MODEL 1
REMARK VINA RESULT:      -7.1      0.000      0.000
REMARK  6 active torsions:
REMARK  status: ('A' for Active; 'I' for Inactive)
REMARK    1  A    between atoms: C2_2  and  C3_3 
REMARK    2  A    between atoms: C3_3  and  S1_7 
REMARK    3  A    between atoms: C4_4  and  C5_5 
REMARK    4  A    between atoms: S1_7  and  N1_10 
REMARK       I    between atoms: N1_10  and  C6_11 
REMARK    5  A    between atoms: C6_11  and  C7_13 
REMARK    6  A    between atoms: C7_13  and  C8_14 
ROOT
HETATM    1  N1  UNL     1      25.805   2.683  53.554  1.00  0.00    -0.250 N 
HETATM    2  C6  UNL     1      24.894   2.352  52.502  1.00  0.00     0.235 C 
HETATM    3  O3  UNL     1      25.362   1.517  51.658  1.00  0.00    -0.272 OA
HETATM    4  H9  UNL     1      25.588   3.348  54.328  1.00  0.00     0.181 HD
ENDROOT
BRANCH   1   5
HETATM    5  S1  UNL     1      27.363   1.925  53.529  1.00  0.00     0.261 S 
HETATM    6  O1  UNL     1      28.337   2.785  54.316  1.00  0.00    -0.200 OA
HETATM    7  O2  UNL     1      27.896   1.862  52.127  1.00  0.00    -0.200 OA
BRANCH   5   8
HETATM    8  C3  UNL     1      27.347   0.354  54.284  1.00  0.00     0.056 C 
HETATM    9  C4  UNL     1      28.504  -0.309  54.134  1.00  0.00     0.025 C 
BRANCH   8  10
HETATM   10  C2  UNL     1      26.124  -0.100  54.998  1.00  0.00     0.048 C 
HETATM   11  C1  UNL     1      25.247  -0.963  54.142  1.00  0.00     0.011 C 
ENDBRANCH   8  10
BRANCH   9  12
HETATM   12  C5  UNL     1      29.862  -0.230  53.545  1.00  0.00     0.250 C 
HETATM   13  F1  UNL     1      30.586  -1.305  53.979  1.00  0.00    -0.251 F 
ENDBRANCH   9  12
ENDBRANCH   5   8
ENDBRANCH   1   5
BRANCH   2  14
HETATM   14  C7  UNL     1      23.564   3.025  52.559  1.00  0.00     0.142 C 
BRANCH  14  15
HETATM   15  C8  UNL     1      22.461   2.057  52.324  1.00  0.00    -0.048 A 
HETATM   16  C9  UNL     1      21.545   2.124  51.296  1.00  0.00     0.007 A 
HETATM   17  C10 UNL     1      20.544   1.189  51.136  1.00  0.00     0.002 A 
HETATM   18  C11 UNL     1      20.462   0.151  52.042  1.00  0.00     0.019 A 
HETATM   19  C12 UNL     1      21.368   0.071  53.073  1.00  0.00     0.011 A 
HETATM   20 BR1  UNL     1      21.169  -1.411  54.283  1.00  0.00    -0.051 Br
HETATM   21  C13 UNL     1      22.365   1.000  53.234  1.00  0.00     0.026 A 
ENDBRANCH  14  15
ENDBRANCH   2  14
TORSDOF 6
ENDMDL
MODEL 2
REMARK VINA RESULT:      -6.8      4.678      5.954
REMARK  6 active torsions:
REMARK  status: ('A' for Active; 'I' for Inactive)
REMARK    1  A    between atoms: C2_2  and  C3_3 
REMARK    2  A    between atoms: C3_3  and  S1_7 
REMARK    3  A    between atoms: C4_4  and  C5_5 
REMARK    4  A    between atoms: S1_7  and  N1_10 
REMARK       I    between atoms: N1_10  and  C6_11 
REMARK    5  A    between atoms: C6_11  and  C7_13 
REMARK    6  A    between atoms: C7_13  and  C8_14 
ROOT
HETATM    1  N1  UNL     1      26.516   2.446  51.842  1.00  0.00    -0.250 N 
HETATM    2  C6  UNL     1      25.794   2.723  50.639  1.00  0.00     0.235 C 
HETATM    3  O3  UNL     1      24.528   2.629  50.763  1.00  0.00    -0.272 OA
HETATM    4  H9  UNL     1      27.556   2.476  51.921  1.00  0.00     0.181 HD
ENDROOT
BRANCH   1   5
HETATM    5  S1  UNL     1      25.593   2.037  53.250  1.00  0.00     0.261 S 
HETATM    6  O1  UNL     1      24.532   3.103  53.466  1.00  0.00    -0.200 OA
HETATM    7  O2  UNL     1      26.462   2.055  54.474  1.00  0.00    -0.200 OA
BRANCH   5   8
HETATM    8  C3  UNL     1      24.758   0.517  53.075  1.00  0.00     0.056 C 
HETATM    9  C4  UNL     1      25.589  -0.515  52.857  1.00  0.00     0.025 C 
BRANCH   8  10
HETATM   10  C2  UNL     1      23.274   0.484  53.176  1.00  0.00     0.048 C 
HETATM   11  C1  UNL     1      22.784  -0.593  54.094  1.00  0.00     0.011 C 
ENDBRANCH   8  10
BRANCH   9  12
HETATM   12  C5  UNL     1      27.013  -0.892  52.698  1.00  0.00     0.250 C 
HETATM   13  F1  UNL     1      27.076  -2.204  52.324  1.00  0.00    -0.251 F 
ENDBRANCH   9  12
ENDBRANCH   5   8
ENDBRANCH   1   5
BRANCH   2  14
HETATM   14  C7  UNL     1      26.625   3.071  49.449  1.00  0.00     0.142 C 
BRANCH  14  15
HETATM   15  C8  UNL     1      26.683   4.542  49.246  1.00  0.00    -0.048 A 
HETATM   16  C9  UNL     1      25.736   5.447  49.676  1.00  0.00     0.007 A 
HETATM   17  C10 UNL     1      25.854   6.802  49.453  1.00  0.00     0.002 A 
HETATM   18  C11 UNL     1      26.963   7.264  48.774  1.00  0.00     0.019 A 
HETATM   19  C12 UNL     1      27.916   6.374  48.338  1.00  0.00     0.011 A 
HETATM   20 BR1  UNL     1      29.423   7.116  47.401  1.00  0.00    -0.051 Br
HETATM   21  C13 UNL     1      27.802   5.025  48.559  1.00  0.00     0.026 A 
ENDBRANCH  14  15
ENDBRANCH   2  14
TORSDOF 6
ENDMDL
MODEL 3
REMARK VINA RESULT:      -6.8      2.009      2.316
REMARK  6 active torsions:
REMARK  status: ('A' for Active; 'I' for Inactive)
REMARK    1  A    between atoms: C2_2  and  C3_3 
REMARK    2  A    between atoms: C3_3  and  S1_7 
REMARK    3  A    between atoms: C4_4  and  C5_5 
REMARK    4  A    between atoms: S1_7  and  N1_10 
REMARK       I    between atoms: N1_10  and  C6_11 
REMARK    5  A    between atoms: C6_11  and  C7_13 
REMARK    6  A    between atoms: C7_13  and  C8_14 
ROOT
HETATM    1  N1  UNL     1      25.799   2.866  52.310  1.00  0.00    -0.250 N 
HETATM    2  C6  UNL     1      25.814   3.014  50.887  1.00  0.00     0.235 C 
HETATM    3  O3  UNL     1      26.795   2.429  50.318  1.00  0.00    -0.272 OA
HETATM    4  H9  UNL     1      25.071   3.278  52.933  1.00  0.00     0.181 HD
ENDROOT
BRANCH   1   5
HETATM    5  S1  UNL     1      27.076   1.943  53.029  1.00  0.00     0.261 S 
HETATM    6  O1  UNL     1      27.107   2.230  54.521  1.00  0.00    -0.200 OA
HETATM    7  O2  UNL     1      28.409   2.377  52.491  1.00  0.00    -0.200 OA
BRANCH   5   8
HETATM    8  C3  UNL     1      26.835   0.226  52.848  1.00  0.00     0.056 C 
HETATM    9  C4  UNL     1      27.893  -0.496  53.251  1.00  0.00     0.025 C 
BRANCH   8  10
HETATM   10  C2  UNL     1      25.549  -0.276  52.294  1.00  0.00     0.048 C 
HETATM   11  C1  UNL     1      24.453  -0.297  53.315  1.00  0.00     0.011 C 
ENDBRANCH   8  10
BRANCH   9  12
HETATM   12  C5  UNL     1      29.259  -0.404  53.819  1.00  0.00     0.250 C 
HETATM   13  F1  UNL     1      30.120  -1.062  52.987  1.00  0.00    -0.251 F 
ENDBRANCH   9  12
ENDBRANCH   5   8
ENDBRANCH   1   5
BRANCH   2  14
HETATM   14  C7  UNL     1      24.697   3.816  50.307  1.00  0.00     0.142 C 
BRANCH  14  15
HETATM   15  C8  UNL     1      23.620   2.937  49.782  1.00  0.00    -0.048 A 
HETATM   16  C9  UNL     1      23.252   2.826  48.459  1.00  0.00     0.007 A 
HETATM   17  C10 UNL     1      22.240   1.988  48.041  1.00  0.00     0.002 A 
HETATM   18  C11 UNL     1      21.575   1.236  48.988  1.00  0.00     0.019 A 
HETATM   19  C12 UNL     1      21.930   1.336  50.313  1.00  0.00     0.011 A 
HETATM   20 BR1  UNL     1      20.943   0.248  51.554  1.00  0.00    -0.051 Br
HETATM   21  C13 UNL     1      22.937   2.169  50.731  1.00  0.00     0.026 A 
ENDBRANCH  14  15
ENDBRANCH   2  14
TORSDOF 6
ENDMDL
MODEL 4
REMARK VINA RESULT:      -6.8      4.103      5.473
REMARK  6 active torsions:
REMARK  status: ('A' for Active; 'I' for Inactive)
REMARK    1  A    between atoms: C2_2  and  C3_3 
REMARK    2  A    between atoms: C3_3  and  S1_7 
REMARK    3  A    between atoms: C4_4  and  C5_5 
REMARK    4  A    between atoms: S1_7  and  N1_10 
REMARK       I    between atoms: N1_10  and  C6_11 
REMARK    5  A    between atoms: C6_11  and  C7_13 
REMARK    6  A    between atoms: C7_13  and  C8_14 
ROOT
HETATM    1  N1  UNL     1      27.006   2.246  51.759  1.00  0.00    -0.250 N 
HETATM    2  C6  UNL     1      25.669   2.711  51.556  1.00  0.00     0.235 C 
HETATM    3  O3  UNL     1      24.984   2.799  52.629  1.00  0.00    -0.272 OA
HETATM    4  H9  UNL     1      27.703   2.115  50.995  1.00  0.00     0.181 HD
ENDROOT
BRANCH   1   5
HETATM    5  S1  UNL     1      27.485   1.879  53.384  1.00  0.00     0.261 S 
HETATM    6  O1  UNL     1      26.311   2.144  54.311  1.00  0.00    -0.200 OA
HETATM    7  O2  UNL     1      28.587   2.797  53.828  1.00  0.00    -0.200 OA
BRANCH   5   8
HETATM    8  C3  UNL     1      27.922   0.204  53.583  1.00  0.00     0.056 C 
HETATM    9  C4  UNL     1      26.881  -0.630  53.428  1.00  0.00     0.025 C 
BRANCH   8  10
HETATM   10  C2  UNL     1      29.333  -0.150  53.890  1.00  0.00     0.048 C 
HETATM   11  C1  UNL     1      29.677  -1.550  53.479  1.00  0.00     0.011 C 
ENDBRANCH   8  10
BRANCH   9  12
HETATM   12  C5  UNL     1      25.428  -0.691  53.140  1.00  0.00     0.250 C 
HETATM   13  F1  UNL     1      24.754  -0.770  54.326  1.00  0.00    -0.251 F 
ENDBRANCH   9  12
ENDBRANCH   5   8
ENDBRANCH   1   5
BRANCH   2  14
HETATM   14  C7  UNL     1      25.296   3.015  50.143  1.00  0.00     0.142 C 
BRANCH  14  15
HETATM   15  C8  UNL     1      25.958   4.258  49.668  1.00  0.00    -0.048 A 
HETATM   16  C9  UNL     1      27.136   4.313  48.954  1.00  0.00     0.007 A 
HETATM   17  C10 UNL     1      27.696   5.504  48.543  1.00  0.00     0.002 A 
HETATM   18  C11 UNL     1      27.048   6.681  48.861  1.00  0.00     0.019 A 
HETATM   19  C12 UNL     1      25.872   6.642  49.573  1.00  0.00     0.011 A 
HETATM   20 BR1  UNL     1      25.046   8.334  49.966  1.00  0.00    -0.051 Br
HETATM   21  C13 UNL     1      25.313   5.458  49.983  1.00  0.00     0.026 A 
ENDBRANCH  14  15
ENDBRANCH   2  14
TORSDOF 6
ENDMDL
MODEL 5
REMARK VINA RESULT:      -6.7      1.810      2.800
REMARK  6 active torsions:
REMARK  status: ('A' for Active; 'I' for Inactive)
REMARK    1  A    between atoms: C2_2  and  C3_3 
REMARK    2  A    between atoms: C3_3  and  S1_7 
REMARK    3  A    between atoms: C4_4  and  C5_5 
REMARK    4  A    between atoms: S1_7  and  N1_10 
REMARK       I    between atoms: N1_10  and  C6_11 
REMARK    5  A    between atoms: C6_11  and  C7_13 
REMARK    6  A    between atoms: C7_13  and  C8_14 
ROOT
HETATM    1  N1  UNL     1      25.519   2.139  53.539  1.00  0.00    -0.250 N 
HETATM    2  C6  UNL     1      24.602   1.488  52.655  1.00  0.00     0.235 C 
HETATM    3  O3  UNL     1      25.161   0.707  51.815  1.00  0.00    -0.272 OA
HETATM    4  H9  UNL     1      25.235   2.810  54.286  1.00  0.00     0.181 HD
ENDROOT
BRANCH   1   5
HETATM    5  S1  UNL     1      27.203   1.782  53.346  1.00  0.00     0.261 S 
HETATM    6  O1  UNL     1      28.005   2.698  54.256  1.00  0.00    -0.200 OA
HETATM    7  O2  UNL     1      27.649   2.086  51.945  1.00  0.00    -0.200 OA
BRANCH   5   8
HETATM    8  C3  UNL     1      27.589   0.145  53.805  1.00  0.00     0.056 C 
HETATM    9  C4  UNL     1      26.911  -0.268  54.888  1.00  0.00     0.025 C 
BRANCH   8  10
HETATM   10  C2  UNL     1      28.582  -0.622  53.006  1.00  0.00     0.048 C 
HETATM   11  C1  UNL     1      29.972  -0.507  53.554  1.00  0.00     0.011 C 
ENDBRANCH   8  10
BRANCH   9  12
HETATM   12  C5  UNL     1      25.910   0.140  55.902  1.00  0.00     0.250 C 
HETATM   13  F1  UNL     1      25.297  -0.982  56.383  1.00  0.00    -0.251 F 
ENDBRANCH   9  12
ENDBRANCH   5   8
ENDBRANCH   1   5
BRANCH   2  14
HETATM   14  C7  UNL     1      23.161   1.823  52.853  1.00  0.00     0.142 C 
BRANCH  14  15
HETATM   15  C8  UNL     1      22.398   0.645  53.342  1.00  0.00    -0.048 A 
HETATM   16  C9  UNL     1      22.898  -0.352  54.151  1.00  0.00     0.007 A 
HETATM   17  C10 UNL     1      22.132  -1.419  54.569  1.00  0.00     0.002 A 
HETATM   18  C11 UNL     1      20.816  -1.486  54.158  1.00  0.00     0.019 A 
HETATM   19  C12 UNL     1      20.302  -0.498  53.350  1.00  0.00     0.011 A 
HETATM   20 BR1  UNL     1      18.459  -0.681  52.832  1.00  0.00    -0.051 Br
HETATM   21  C13 UNL     1      21.063   0.565  52.934  1.00  0.00     0.026 A 
ENDBRANCH  14  15
ENDBRANCH   2  14
TORSDOF 6
ENDMDL
MODEL 6
REMARK VINA RESULT:      -6.6      4.986      6.252
REMARK  6 active torsions:
REMARK  status: ('A' for Active; 'I' for Inactive)
REMARK    1  A    between atoms: C2_2  and  C3_3 
REMARK    2  A    between atoms: C3_3  and  S1_7 
REMARK    3  A    between atoms: C4_4  and  C5_5 
REMARK    4  A    between atoms: S1_7  and  N1_10 
REMARK       I    between atoms: N1_10  and  C6_11 
REMARK    5  A    between atoms: C6_11  and  C7_13 
REMARK    6  A    between atoms: C7_13  and  C8_14 
ROOT
HETATM    1  N1  UNL     1      25.666   3.207  51.860  1.00  0.00    -0.250 N 
HETATM    2  C6  UNL     1      25.963   3.240  50.461  1.00  0.00     0.235 C 
HETATM    3  O3  UNL     1      26.897   2.443  50.113  1.00  0.00    -0.272 OA
HETATM    4  H9  UNL     1      24.933   3.792  52.316  1.00  0.00     0.181 HD
ENDROOT
BRANCH   1   5
HETATM    5  S1  UNL     1      26.590   2.124  52.847  1.00  0.00     0.261 S 
HETATM    6  O1  UNL     1      26.313   2.437  54.308  1.00  0.00    -0.200 OA
HETATM    7  O2  UNL     1      28.061   2.348  52.641  1.00  0.00    -0.200 OA
BRANCH   5   8
HETATM    8  C3  UNL     1      26.150   0.457  52.592  1.00  0.00     0.056 C 
HETATM    9  C4  UNL     1      24.827   0.246  52.684  1.00  0.00     0.025 C 
BRANCH   8  10
HETATM   10  C2  UNL     1      27.213  -0.543  52.306  1.00  0.00     0.048 C 
HETATM   11  C1  UNL     1      26.780  -1.945  52.606  1.00  0.00     0.011 C 
ENDBRANCH   8  10
BRANCH   9  12
HETATM   12  C5  UNL     1      23.524   0.905  52.933  1.00  0.00     0.250 C 
HETATM   13  F1  UNL     1      22.993   1.284  51.732  1.00  0.00    -0.251 F 
ENDBRANCH   9  12
ENDBRANCH   5   8
ENDBRANCH   1   5
BRANCH   2  14
HETATM   14  C7  UNL     1      25.145   4.186  49.646  1.00  0.00     0.142 C 
BRANCH  14  15
HETATM   15  C8  UNL     1      25.797   5.518  49.554  1.00  0.00    -0.048 A 
HETATM   16  C9  UNL     1      25.405   6.649  50.237  1.00  0.00     0.007 A 
HETATM   17  C10 UNL     1      26.057   7.856  50.104  1.00  0.00     0.002 A 
HETATM   18  C11 UNL     1      27.141   7.928  49.254  1.00  0.00     0.019 A 
HETATM   19  C12 UNL     1      27.544   6.808  48.564  1.00  0.00     0.011 A 
HETATM   20 BR1  UNL     1      29.065   7.012  47.403  1.00  0.00    -0.051 Br
HETATM   21  C13 UNL     1      26.897   5.606  48.695  1.00  0.00     0.026 A 
ENDBRANCH  14  15
ENDBRANCH   2  14
TORSDOF 6
ENDMDL
MODEL 7
REMARK VINA RESULT:      -6.5      2.813      3.443
REMARK  6 active torsions:
REMARK  status: ('A' for Active; 'I' for Inactive)
REMARK    1  A    between atoms: C2_2  and  C3_3 
REMARK    2  A    between atoms: C3_3  and  S1_7 
REMARK    3  A    between atoms: C4_4  and  C5_5 
REMARK    4  A    between atoms: S1_7  and  N1_10 
REMARK       I    between atoms: N1_10  and  C6_11 
REMARK    5  A    between atoms: C6_11  and  C7_13 
REMARK    6  A    between atoms: C7_13  and  C8_14 
ROOT
HETATM    1  N1  UNL     1      25.546   2.801  52.288  1.00  0.00    -0.250 N 
HETATM    2  C6  UNL     1      25.713   2.929  50.873  1.00  0.00     0.235 C 
HETATM    3  O3  UNL     1      26.701   2.269  50.408  1.00  0.00    -0.272 OA
HETATM    4  H9  UNL     1      24.791   3.272  52.833  1.00  0.00     0.181 HD
ENDROOT
BRANCH   1   5
HETATM    5  S1  UNL     1      26.676   1.800  53.138  1.00  0.00     0.261 S 
HETATM    6  O1  UNL     1      26.535   2.061  54.628  1.00  0.00    -0.200 OA
HETATM    7  O2  UNL     1      28.085   2.173  52.777  1.00  0.00    -0.200 OA
BRANCH   5   8
HETATM    8  C3  UNL     1      26.373   0.102  52.888  1.00  0.00     0.056 C 
HETATM    9  C4  UNL     1      25.083  -0.229  53.053  1.00  0.00     0.025 C 
BRANCH   8  10
HETATM   10  C2  UNL     1      27.504  -0.795  52.531  1.00  0.00     0.048 C 
HETATM   11  C1  UNL     1      27.107  -2.240  52.508  1.00  0.00     0.011 C 
ENDBRANCH   8  10
BRANCH   9  12
HETATM   12  C5  UNL     1      23.741   0.308  53.382  1.00  0.00     0.250 C 
HETATM   13  F1  UNL     1      22.989  -0.700  53.915  1.00  0.00    -0.251 F 
ENDBRANCH   9  12
ENDBRANCH   5   8
ENDBRANCH   1   5
BRANCH   2  14
HETATM   14  C7  UNL     1      24.720   3.800  50.178  1.00  0.00     0.142 C 
BRANCH  14  15
HETATM   15  C8  UNL     1      23.624   2.994  49.579  1.00  0.00    -0.048 A 
HETATM   16  C9  UNL     1      23.314   2.941  48.237  1.00  0.00     0.007 A 
HETATM   17  C10 UNL     1      22.281   2.169  47.748  1.00  0.00     0.002 A 
HETATM   18  C11 UNL     1      21.535   1.426  48.639  1.00  0.00     0.019 A 
HETATM   19  C12 UNL     1      21.833   1.469  49.981  1.00  0.00     0.011 A 
HETATM   20 BR1  UNL     1      20.735   0.398  51.142  1.00  0.00    -0.051 Br
HETATM   21  C13 UNL     1      22.860   2.236  50.470  1.00  0.00     0.026 A 
ENDBRANCH  14  15
ENDBRANCH   2  14
TORSDOF 6
ENDMDL
MODEL 8
REMARK VINA RESULT:      -6.4      3.822      5.039
REMARK  6 active torsions:
REMARK  status: ('A' for Active; 'I' for Inactive)
REMARK    1  A    between atoms: C2_2  and  C3_3 
REMARK    2  A    between atoms: C3_3  and  S1_7 
REMARK    3  A    between atoms: C4_4  and  C5_5 
REMARK    4  A    between atoms: S1_7  and  N1_10 
REMARK       I    between atoms: N1_10  and  C6_11 
REMARK    5  A    between atoms: C6_11  and  C7_13 
REMARK    6  A    between atoms: C7_13  and  C8_14 
ROOT
HETATM    1  N1  UNL     1      27.336   2.630  51.720  1.00  0.00    -0.250 N 
HETATM    2  C6  UNL     1      26.215   2.537  50.836  1.00  0.00     0.235 C 
HETATM    3  O3  UNL     1      25.161   2.075  51.386  1.00  0.00    -0.272 OA
HETATM    4  H9  UNL     1      28.276   2.985  51.439  1.00  0.00     0.181 HD
ENDROOT
BRANCH   1   5
HETATM    5  S1  UNL     1      27.105   2.115  53.358  1.00  0.00     0.261 S 
HETATM    6  O1  UNL     1      25.740   2.587  53.831  1.00  0.00    -0.200 OA
HETATM    7  O2  UNL     1      28.111   2.767  54.263  1.00  0.00    -0.200 OA
BRANCH   5   8
HETATM    8  C3  UNL     1      27.125   0.380  53.517  1.00  0.00     0.056 C 
HETATM    9  C4  UNL     1      28.362  -0.116  53.678  1.00  0.00     0.025 C 
BRANCH   8  10
HETATM   10  C2  UNL     1      25.843  -0.372  53.465  1.00  0.00     0.048 C 
HETATM   11  C1  UNL     1      25.984  -1.705  52.795  1.00  0.00     0.011 C 
ENDBRANCH   8  10
BRANCH   9  12
HETATM   12  C5  UNL     1      29.795   0.249  53.778  1.00  0.00     0.250 C 
HETATM   13  F1  UNL     1      30.543  -0.805  53.336  1.00  0.00    -0.251 F 
ENDBRANCH   9  12
ENDBRANCH   5   8
ENDBRANCH   1   5
BRANCH   2  14
HETATM   14  C7  UNL     1      26.456   2.989  49.434  1.00  0.00     0.142 C 
BRANCH  14  15
HETATM   15  C8  UNL     1      26.466   4.473  49.342  1.00  0.00    -0.048 A 
HETATM   16  C9  UNL     1      27.407   5.226  48.673  1.00  0.00     0.007 A 
HETATM   17  C10 UNL     1      27.355   6.602  48.628  1.00  0.00     0.002 A 
HETATM   18  C11 UNL     1      26.321   7.245  49.278  1.00  0.00     0.019 A 
HETATM   19  C12 UNL     1      25.375   6.507  49.951  1.00  0.00     0.011 A 
HETATM   20 BR1  UNL     1      23.975   7.494  50.826  1.00  0.00    -0.051 Br
HETATM   21  C13 UNL     1      25.424   5.137  49.997  1.00  0.00     0.026 A 
ENDBRANCH  14  15
ENDBRANCH   2  14
TORSDOF 6
ENDMDL
MODEL 9
REMARK VINA RESULT:      -6.4      2.960      3.404
REMARK  6 active torsions:
REMARK  status: ('A' for Active; 'I' for Inactive)
REMARK    1  A    between atoms: C2_2  and  C3_3 
REMARK    2  A    between atoms: C3_3  and  S1_7 
REMARK    3  A    between atoms: C4_4  and  C5_5 
REMARK    4  A    between atoms: S1_7  and  N1_10 
REMARK       I    between atoms: N1_10  and  C6_11 
REMARK    5  A    between atoms: C6_11  and  C7_13 
REMARK    6  A    between atoms: C7_13  and  C8_14 
ROOT
HETATM    1  N1  UNL     1      25.725   2.906  52.450  1.00  0.00    -0.250 N 
HETATM    2  C6  UNL     1      25.668   3.107  51.035  1.00  0.00     0.235 C 
HETATM    3  O3  UNL     1      26.584   2.496  50.390  1.00  0.00    -0.272 OA
HETATM    4  H9  UNL     1      25.055   3.329  53.129  1.00  0.00     0.181 HD
ENDROOT
BRANCH   1   5
HETATM    5  S1  UNL     1      26.991   1.893  53.062  1.00  0.00     0.261 S 
HETATM    6  O1  UNL     1      27.096   2.096  54.564  1.00  0.00    -0.200 OA
HETATM    7  O2  UNL     1      28.317   2.303  52.489  1.00  0.00    -0.200 OA
BRANCH   5   8
HETATM    8  C3  UNL     1      26.670   0.200  52.798  1.00  0.00     0.056 C 
HETATM    9  C4  UNL     1      27.729  -0.580  53.070  1.00  0.00     0.025 C 
BRANCH   8  10
HETATM   10  C2  UNL     1      25.326  -0.222  52.323  1.00  0.00     0.048 C 
HETATM   11  C1  UNL     1      24.309  -0.248  53.423  1.00  0.00     0.011 C 
ENDBRANCH   8  10
BRANCH   9  12
HETATM   12  C5  UNL     1      29.138  -0.570  53.528  1.00  0.00     0.250 C 
HETATM   13  F1  UNL     1      29.158  -0.280  54.863  1.00  0.00    -0.251 F 
ENDBRANCH   9  12
ENDBRANCH   5   8
ENDBRANCH   1   5
BRANCH   2  14
HETATM   14  C7  UNL     1      24.564   3.985  50.549  1.00  0.00     0.142 C 
BRANCH  14  15
HETATM   15  C8  UNL     1      23.542   3.202  49.806  1.00  0.00    -0.048 A 
HETATM   16  C9  UNL     1      22.929   2.054  50.260  1.00  0.00     0.007 A 
HETATM   17  C10 UNL     1      21.986   1.376  49.517  1.00  0.00     0.002 A 
HETATM   18  C11 UNL     1      21.647   1.871  48.274  1.00  0.00     0.019 A 
HETATM   19  C12 UNL     1      22.250   3.016  47.807  1.00  0.00     0.011 A 
HETATM   20 BR1  UNL     1      21.710   3.625  46.064  1.00  0.00    -0.051 Br
HETATM   21  C13 UNL     1      23.188   3.692  48.545  1.00  0.00     0.026 A 
ENDBRANCH  14  15
ENDBRANCH   2  14
TORSDOF 6
ENDMDL
