MODEL 1
REMARK VINA RESULT:     -10.3      0.000      0.000
REMARK  1 active torsions:
REMARK  status: ('A' for Active; 'I' for Inactive)
REMARK    1  A    between atoms: C14_16  and  C15_17 
ROOT
HETATM    1  S1  UNL     1      25.896   5.109  49.096  1.00  0.00    -0.037 SA
HETATM    2  C1  UNL     1      25.554   4.177  50.387  1.00  0.00     0.214 C 
HETATM    3  N1  UNL     1      24.394   4.727  51.095  1.00  0.00    -0.228 NA
HETATM    4  C2  UNL     1      23.479   3.902  51.597  1.00  0.00     0.022 C 
HETATM    5  C3  UNL     1      22.268   4.336  52.346  1.00  0.00     0.082 C 
HETATM    6  C4  UNL     1      21.160   3.292  52.333  1.00  0.00    -0.024 C 
HETATM    7  C5  UNL     1      20.072   2.481  52.266  1.00  0.00    -0.024 C 
HETATM    8  C6  UNL     1      20.369   1.159  52.639  1.00  0.00     0.034 C 
HETATM    9  C7  UNL     1      20.460  -0.107  52.960  1.00  0.00     0.089 C 
HETATM   10  C8  UNL     1      21.809  -0.252  53.227  1.00  0.00    -0.099 C 
HETATM   11  C9  UNL     1      22.920  -0.370  53.426  1.00  0.00    -0.102 C 
HETATM   12  C10 UNL     1      24.388  -0.518  53.661  1.00  0.00     0.134 C 
HETATM   13  C11 UNL     1      25.035   0.548  52.798  1.00  0.00    -0.019 C 
HETATM   14  C12 UNL     1      24.153   1.454  52.218  1.00  0.00    -0.011 C 
HETATM   15  C13 UNL     1      23.819   2.538  51.437  1.00  0.00     0.083 C 
HETATM   16  C14 UNL     1      26.239   1.122  52.217  1.00  0.00     0.094 C 
HETATM   17  N2  UNL     1      26.540   2.014  51.458  1.00  0.00    -0.171 NA
HETATM   18  N3  UNL     1      26.372   3.026  50.643  1.00  0.00    -0.251 N 
HETATM   19  H17 UNL     1      27.141   2.880  49.960  1.00  0.00     0.191 HD
ENDROOT
BRANCH  16  20
HETATM   20  C15 UNL     1      27.245   0.236  52.726  1.00  0.00    -0.005 A 
HETATM   21  C16 UNL     1      27.675  -1.045  52.708  1.00  0.00     0.014 A 
HETATM   22  C17 UNL     1      28.771  -1.674  53.176  1.00  0.00     0.001 A 
HETATM   23  C18 UNL     1      29.698  -0.893  53.833  1.00  0.00     0.000 A 
HETATM   24  C19 UNL     1      29.421   0.441  53.947  1.00  0.00     0.001 A 
HETATM   25  C20 UNL     1      28.250   0.963  53.416  1.00  0.00     0.014 A 
ENDBRANCH  16  20
TORSDOF 1
ENDMDL
MODEL 2
REMARK VINA RESULT:     -10.2      2.839      4.378
REMARK  1 active torsions:
REMARK  status: ('A' for Active; 'I' for Inactive)
REMARK    1  A    between atoms: C14_16  and  C15_17 
ROOT
HETATM    1  S1  UNL     1      21.245  -0.669  54.534  1.00  0.00    -0.037 SA
HETATM    2  C1  UNL     1      22.369  -0.288  53.419  1.00  0.00     0.214 C 
HETATM    3  N1  UNL     1      21.728  -0.142  52.107  1.00  0.00    -0.228 NA
HETATM    4  C2  UNL     1      22.124   0.827  51.286  1.00  0.00     0.022 C 
HETATM    5  C3  UNL     1      21.563   1.067  49.929  1.00  0.00     0.082 C 
HETATM    6  C4  UNL     1      21.784   2.492  49.443  1.00  0.00    -0.024 C 
HETATM    7  C5  UNL     1      21.820   3.769  48.980  1.00  0.00    -0.024 C 
HETATM    8  C6  UNL     1      23.113   4.318  49.024  1.00  0.00     0.034 C 
HETATM    9  C7  UNL     1      24.241   4.982  48.985  1.00  0.00     0.089 C 
HETATM   10  C8  UNL     1      25.131   4.095  49.563  1.00  0.00    -0.099 C 
HETATM   11  C9  UNL     1      25.853   3.372  50.055  1.00  0.00    -0.102 C 
HETATM   12  C10 UNL     1      26.789   2.421  50.727  1.00  0.00     0.134 C 
HETATM   13  C11 UNL     1      25.917   1.597  51.654  1.00  0.00    -0.019 C 
HETATM   14  C12 UNL     1      24.546   1.784  51.496  1.00  0.00    -0.011 C 
HETATM   15  C13 UNL     1      23.220   1.564  51.792  1.00  0.00     0.083 C 
HETATM   16  C14 UNL     1      25.810   0.633  52.738  1.00  0.00     0.094 C 
HETATM   17  N2  UNL     1      24.944   0.115  53.406  1.00  0.00    -0.171 NA
HETATM   18  N3  UNL     1      23.736  -0.153  53.834  1.00  0.00    -0.251 N 
HETATM   19  H17 UNL     1      23.899  -0.318  54.846  1.00  0.00     0.191 HD
ENDROOT
BRANCH  16  20
HETATM   20  C15 UNL     1      27.192   0.378  53.021  1.00  0.00    -0.005 A 
HETATM   21  C16 UNL     1      28.316   0.926  53.530  1.00  0.00     0.014 A 
HETATM   22  C17 UNL     1      29.538   0.448  53.840  1.00  0.00     0.001 A 
HETATM   23  C18 UNL     1      29.753  -0.894  53.604  1.00  0.00     0.000 A 
HETATM   24  C19 UNL     1      28.713  -1.611  53.083  1.00  0.00     0.001 A 
HETATM   25  C20 UNL     1      27.501  -0.992  52.810  1.00  0.00     0.014 A 
ENDBRANCH  16  20
TORSDOF 1
ENDMDL
MODEL 3
REMARK VINA RESULT:      -9.6      2.496      5.246
REMARK  1 active torsions:
REMARK  status: ('A' for Active; 'I' for Inactive)
REMARK    1  A    between atoms: C14_16  and  C15_17 
ROOT
HETATM    1  S1  UNL     1      20.127   2.871  48.207  1.00  0.00    -0.037 SA
HETATM    2  C1  UNL     1      21.390   3.037  49.222  1.00  0.00     0.214 C 
HETATM    3  N1  UNL     1      20.977   2.670  50.581  1.00  0.00    -0.228 NA
HETATM    4  C2  UNL     1      21.812   1.985  51.359  1.00  0.00     0.022 C 
HETATM    5  C3  UNL     1      21.516   1.568  52.756  1.00  0.00     0.082 C 
HETATM    6  C4  UNL     1      22.362   0.388  53.211  1.00  0.00    -0.024 C 
HETATM    7  C5  UNL     1      22.976  -0.739  53.660  1.00  0.00    -0.024 C 
HETATM    8  C6  UNL     1      24.371  -0.685  53.504  1.00  0.00     0.034 C 
HETATM    9  C7  UNL     1      25.673  -0.805  53.444  1.00  0.00     0.089 C 
HETATM   10  C8  UNL     1      26.052   0.360  52.801  1.00  0.00    -0.099 C 
HETATM   11  C9  UNL     1      26.355   1.308  52.256  1.00  0.00    -0.102 C 
HETATM   12  C10 UNL     1      26.739   2.548  51.517  1.00  0.00     0.134 C 
HETATM   13  C11 UNL     1      25.529   2.894  50.671  1.00  0.00    -0.019 C 
HETATM   14  C12 UNL     1      24.387   2.146  50.941  1.00  0.00    -0.011 C 
HETATM   15  C13 UNL     1      23.075   1.771  50.758  1.00  0.00     0.083 C 
HETATM   16  C14 UNL     1      24.936   3.690  49.607  1.00  0.00     0.094 C 
HETATM   17  N2  UNL     1      23.883   3.770  49.018  1.00  0.00    -0.171 NA
HETATM   18  N3  UNL     1      22.646   3.486  48.694  1.00  0.00    -0.251 N 
HETATM   19  H17 UNL     1      22.643   3.675  47.673  1.00  0.00     0.191 HD
ENDROOT
BRANCH  16  20
HETATM   20  C15 UNL     1      26.050   4.501  49.212  1.00  0.00    -0.005 A 
HETATM   21  C16 UNL     1      27.361   4.465  48.890  1.00  0.00     0.014 A 
HETATM   22  C17 UNL     1      28.233   5.367  48.398  1.00  0.00     0.001 A 
HETATM   23  C18 UNL     1      27.739   6.631  48.150  1.00  0.00     0.000 A 
HETATM   24  C19 UNL     1      26.418   6.850  48.423  1.00  0.00     0.001 A 
HETATM   25  C20 UNL     1      25.627   5.827  48.929  1.00  0.00     0.014 A 
ENDBRANCH  16  20
TORSDOF 1
ENDMDL
MODEL 4
REMARK VINA RESULT:      -9.5      1.855      6.073
REMARK  1 active torsions:
REMARK  status: ('A' for Active; 'I' for Inactive)
REMARK    1  A    between atoms: C14_16  and  C15_17 
ROOT
HETATM    1  S1  UNL     1      22.702   6.011  50.722  1.00  0.00    -0.037 SA
HETATM    2  C1  UNL     1      22.955   4.423  50.975  1.00  0.00     0.214 C 
HETATM    3  N1  UNL     1      24.312   4.068  50.544  1.00  0.00    -0.228 NA
HETATM    4  C2  UNL     1      25.026   3.207  51.265  1.00  0.00     0.022 C 
HETATM    5  C3  UNL     1      26.404   2.758  50.925  1.00  0.00     0.082 C 
HETATM    6  C4  UNL     1      27.168   2.232  52.131  1.00  0.00    -0.024 C 
HETATM    7  C5  UNL     1      27.969   1.868  53.167  1.00  0.00    -0.024 C 
HETATM    8  C6  UNL     1      27.377   0.889  53.982  1.00  0.00     0.034 C 
HETATM    9  C7  UNL     1      26.987  -0.021  54.839  1.00  0.00     0.089 C 
HETATM   10  C8  UNL     1      25.703  -0.305  54.412  1.00  0.00    -0.099 C 
HETATM   11  C9  UNL     1      24.643  -0.520  54.069  1.00  0.00    -0.102 C 
HETATM   12  C10 UNL     1      23.241  -0.777  53.623  1.00  0.00     0.134 C 
HETATM   13  C11 UNL     1      22.795   0.513  52.961  1.00  0.00    -0.019 C 
HETATM   14  C12 UNL     1      23.801   1.456  52.768  1.00  0.00    -0.011 C 
HETATM   15  C13 UNL     1      24.304   2.669  52.356  1.00  0.00     0.083 C 
HETATM   16  C14 UNL     1      21.725   1.320  52.394  1.00  0.00     0.094 C 
HETATM   17  N2  UNL     1      21.576   2.428  51.932  1.00  0.00    -0.171 NA
HETATM   18  N3  UNL     1      21.898   3.637  51.545  1.00  0.00    -0.251 N 
HETATM   19  H17 UNL     1      21.029   4.167  51.753  1.00  0.00     0.191 HD
ENDROOT
BRANCH  16  20
HETATM   20  C15 UNL     1      20.599   0.451  52.567  1.00  0.00    -0.005 A 
HETATM   21  C16 UNL     1      19.965  -0.344  53.457  1.00  0.00     0.014 A 
HETATM   22  C17 UNL     1      18.790  -1.003  53.457  1.00  0.00     0.001 A 
HETATM   23  C18 UNL     1      18.015  -0.884  52.322  1.00  0.00     0.000 A 
HETATM   24  C19 UNL     1      18.508  -0.111  51.308  1.00  0.00     0.001 A 
HETATM   25  C20 UNL     1      19.738   0.517  51.440  1.00  0.00     0.014 A 
ENDBRANCH  16  20
TORSDOF 1
ENDMDL
MODEL 5
REMARK VINA RESULT:      -9.0      3.088      5.036
REMARK  1 active torsions:
REMARK  status: ('A' for Active; 'I' for Inactive)
REMARK    1  A    between atoms: C14_16  and  C15_17 
ROOT
HETATM    1  S1  UNL     1      19.435   3.307  47.450  1.00  0.00    -0.037 SA
HETATM    2  C1  UNL     1      20.542   3.387  48.642  1.00  0.00     0.214 C 
HETATM    3  N1  UNL     1      19.883   3.182  49.937  1.00  0.00    -0.228 NA
HETATM    4  C2  UNL     1      20.488   2.457  50.874  1.00  0.00     0.022 C 
HETATM    5  C3  UNL     1      19.931   2.191  52.228  1.00  0.00     0.082 C 
HETATM    6  C4  UNL     1      20.526   0.950  52.878  1.00  0.00    -0.024 C 
HETATM    7  C5  UNL     1      20.903  -0.208  53.480  1.00  0.00    -0.024 C 
HETATM    8  C6  UNL     1      22.300  -0.347  53.546  1.00  0.00     0.034 C 
HETATM    9  C7  UNL     1      23.567  -0.637  53.700  1.00  0.00     0.089 C 
HETATM   10  C8  UNL     1      24.196   0.416  53.062  1.00  0.00    -0.099 C 
HETATM   11  C9  UNL     1      24.706   1.272  52.520  1.00  0.00    -0.102 C 
HETATM   12  C10 UNL     1      25.366   2.391  51.782  1.00  0.00     0.134 C 
HETATM   13  C11 UNL     1      24.356   2.824  50.737  1.00  0.00    -0.019 C 
HETATM   14  C12 UNL     1      23.094   2.252  50.863  1.00  0.00    -0.011 C 
HETATM   15  C13 UNL     1      21.785   2.037  50.495  1.00  0.00     0.083 C 
HETATM   16  C14 UNL     1      24.046   3.606  49.549  1.00  0.00     0.094 C 
HETATM   17  N2  UNL     1      23.115   3.775  48.796  1.00  0.00    -0.171 NA
HETATM   18  N3  UNL     1      21.913   3.628  48.296  1.00  0.00    -0.251 N 
HETATM   19  H17 UNL     1      22.090   3.737  47.279  1.00  0.00     0.191 HD
ENDROOT
BRANCH  16  20
HETATM   20  C15 UNL     1      25.308   4.234  49.291  1.00  0.00    -0.005 A 
HETATM   21  C16 UNL     1      26.628   3.996  49.128  1.00  0.00     0.014 A 
HETATM   22  C17 UNL     1      27.678   4.749  48.745  1.00  0.00     0.001 A 
HETATM   23  C18 UNL     1      27.414   6.068  48.442  1.00  0.00     0.000 A 
HETATM   24  C19 UNL     1      26.118   6.487  48.556  1.00  0.00     0.001 A 
HETATM   25  C20 UNL     1      25.128   5.603  48.962  1.00  0.00     0.014 A 
ENDBRANCH  16  20
TORSDOF 1
ENDMDL
MODEL 6
REMARK VINA RESULT:      -8.3      1.742      2.409
REMARK  1 active torsions:
REMARK  status: ('A' for Active; 'I' for Inactive)
REMARK    1  A    between atoms: C14_16  and  C15_17 
ROOT
HETATM    1  S1  UNL     1      25.381   6.734  49.346  1.00  0.00    -0.037 SA
HETATM    2  C1  UNL     1      24.652   5.626  50.291  1.00  0.00     0.214 C 
HETATM    3  N1  UNL     1      23.257   6.016  50.518  1.00  0.00    -0.228 NA
HETATM    4  C2  UNL     1      22.307   5.084  50.524  1.00  0.00     0.022 C 
HETATM    5  C3  UNL     1      20.861   5.352  50.757  1.00  0.00     0.082 C 
HETATM    6  C4  UNL     1      19.961   4.261  50.195  1.00  0.00    -0.024 C 
HETATM    7  C5  UNL     1      19.077   3.407  49.617  1.00  0.00    -0.024 C 
HETATM    8  C6  UNL     1      19.333   2.066  49.948  1.00  0.00     0.034 C 
HETATM    9  C7  UNL     1      19.418   0.776  50.154  1.00  0.00     0.089 C 
HETATM   10  C8  UNL     1      20.559   0.671  50.929  1.00  0.00    -0.099 C 
HETATM   11  C9  UNL     1      21.506   0.589  51.549  1.00  0.00    -0.102 C 
HETATM   12  C10 UNL     1      22.768   0.491  52.342  1.00  0.00     0.134 C 
HETATM   13  C11 UNL     1      23.592   1.692  51.923  1.00  0.00    -0.019 C 
HETATM   14  C12 UNL     1      22.924   2.617  51.125  1.00  0.00    -0.011 C 
HETATM   15  C13 UNL     1      22.819   3.773  50.385  1.00  0.00     0.083 C 
HETATM   16  C14 UNL     1      24.863   2.401  51.937  1.00  0.00     0.094 C 
HETATM   17  N2  UNL     1      25.348   3.399  51.455  1.00  0.00    -0.171 NA
HETATM   18  N3  UNL     1      25.414   4.496  50.743  1.00  0.00    -0.251 N 
HETATM   19  H17 UNL     1      26.401   4.482  50.420  1.00  0.00     0.191 HD
ENDROOT
BRANCH  16  20
HETATM   20  C15 UNL     1      25.669   1.512  52.721  1.00  0.00    -0.005 A 
HETATM   21  C16 UNL     1      25.993   1.169  53.987  1.00  0.00     0.014 A 
HETATM   22  C17 UNL     1      26.710   0.168  54.534  1.00  0.00     0.001 A 
HETATM   23  C18 UNL     1      27.267  -0.742  53.661  1.00  0.00     0.000 A 
HETATM   24  C19 UNL     1      27.040  -0.546  52.327  1.00  0.00     0.001 A 
HETATM   25  C20 UNL     1      26.279   0.531  51.896  1.00  0.00     0.014 A 
ENDBRANCH  16  20
TORSDOF 1
ENDMDL
MODEL 7
REMARK VINA RESULT:      -8.1      3.251      4.700
REMARK  1 active torsions:
REMARK  status: ('A' for Active; 'I' for Inactive)
REMARK    1  A    between atoms: C14_16  and  C15_17 
ROOT
HETATM    1  S1  UNL     1      19.162  -1.198  53.593  1.00  0.00    -0.037 SA
HETATM    2  C1  UNL     1      20.360  -0.365  52.870  1.00  0.00     0.214 C 
HETATM    3  N1  UNL     1      19.857   0.242  51.633  1.00  0.00    -0.228 NA
HETATM    4  C2  UNL     1      20.246   1.470  51.298  1.00  0.00     0.022 C 
HETATM    5  C3  UNL     1      19.818   2.186  50.066  1.00  0.00     0.082 C 
HETATM    6  C4  UNL     1      19.953   3.697  50.185  1.00  0.00    -0.024 C 
HETATM    7  C5  UNL     1      19.916   5.054  50.244  1.00  0.00    -0.024 C 
HETATM    8  C6  UNL     1      21.137   5.604  50.670  1.00  0.00     0.034 C 
HETATM    9  C7  UNL     1      22.192   6.285  51.040  1.00  0.00     0.089 C 
HETATM   10  C8  UNL     1      23.095   5.288  51.362  1.00  0.00    -0.099 C 
HETATM   11  C9  UNL     1      23.825   4.465  51.642  1.00  0.00    -0.102 C 
HETATM   12  C10 UNL     1      24.768   3.375  52.032  1.00  0.00     0.134 C 
HETATM   13  C11 UNL     1      23.882   2.218  52.453  1.00  0.00    -0.019 C 
HETATM   14  C12 UNL     1      22.526   2.386  52.187  1.00  0.00    -0.011 C 
HETATM   15  C13 UNL     1      21.203   2.007  52.191  1.00  0.00     0.083 C 
HETATM   16  C14 UNL     1      23.749   0.907  53.070  1.00  0.00     0.094 C 
HETATM   17  N2  UNL     1      22.870   0.133  53.368  1.00  0.00    -0.171 NA
HETATM   18  N3  UNL     1      21.653  -0.336  53.491  1.00  0.00    -0.251 N 
HETATM   19  H17 UNL     1      21.718  -0.869  54.380  1.00  0.00     0.191 HD
ENDROOT
BRANCH  16  20
HETATM   20  C15 UNL     1      25.110   0.629  53.427  1.00  0.00    -0.005 A 
HETATM   21  C16 UNL     1      25.999   0.678  54.442  1.00  0.00     0.014 A 
HETATM   22  C17 UNL     1      27.257   0.223  54.612  1.00  0.00     0.001 A 
HETATM   23  C18 UNL     1      27.820  -0.447  53.547  1.00  0.00     0.000 A 
HETATM   24  C19 UNL     1      27.055  -0.589  52.423  1.00  0.00     0.001 A 
HETATM   25  C20 UNL     1      25.768  -0.071  52.381  1.00  0.00     0.014 A 
ENDBRANCH  16  20
TORSDOF 1
ENDMDL
MODEL 8
REMARK VINA RESULT:      -8.0      3.719      6.807
REMARK  1 active torsions:
REMARK  status: ('A' for Active; 'I' for Inactive)
REMARK    1  A    between atoms: C14_16  and  C15_17 
ROOT
HETATM    1  S1  UNL     1      25.679   6.931  49.955  1.00  0.00    -0.037 SA
HETATM    2  C1  UNL     1      25.017   5.491  49.582  1.00  0.00     0.214 C 
HETATM    3  N1  UNL     1      25.847   4.413  50.132  1.00  0.00    -0.228 NA
HETATM    4  C2  UNL     1      25.264   3.342  50.664  1.00  0.00     0.022 C 
HETATM    5  C3  UNL     1      25.995   2.180  51.238  1.00  0.00     0.082 C 
HETATM    6  C4  UNL     1      25.154   1.384  52.226  1.00  0.00    -0.024 C 
HETATM    7  C5  UNL     1      24.528   0.691  53.214  1.00  0.00    -0.024 C 
HETATM    8  C6  UNL     1      23.246   0.259  52.833  1.00  0.00     0.034 C 
HETATM    9  C7  UNL     1      22.044  -0.226  52.650  1.00  0.00     0.089 C 
HETATM   10  C8  UNL     1      21.725   0.235  51.386  1.00  0.00    -0.099 C 
HETATM   11  C9  UNL     1      21.460   0.633  50.356  1.00  0.00    -0.102 C 
HETATM   12  C10 UNL     1      21.114   1.183  49.011  1.00  0.00     0.134 C 
HETATM   13  C11 UNL     1      21.920   2.461  48.888  1.00  0.00    -0.019 C 
HETATM   14  C12 UNL     1      22.860   2.665  49.893  1.00  0.00    -0.011 C 
HETATM   15  C13 UNL     1      23.855   3.362  50.541  1.00  0.00     0.083 C 
HETATM   16  C14 UNL     1      22.199   3.697  48.172  1.00  0.00     0.094 C 
HETATM   17  N2  UNL     1      22.908   4.670  48.289  1.00  0.00    -0.171 NA
HETATM   18  N3  UNL     1      23.800   5.467  48.822  1.00  0.00    -0.251 N 
HETATM   19  H17 UNL     1      23.432   6.403  48.564  1.00  0.00     0.191 HD
ENDROOT
BRANCH  16  20
HETATM   20  C15 UNL     1      21.248   3.620  47.102  1.00  0.00    -0.005 A 
HETATM   21  C16 UNL     1      19.929   3.520  46.825  1.00  0.00     0.014 A 
HETATM   22  C17 UNL     1      19.199   3.598  45.695  1.00  0.00     0.001 A 
HETATM   23  C18 UNL     1      19.892   3.825  44.525  1.00  0.00     0.000 A 
HETATM   24  C19 UNL     1      21.251   3.950  44.619  1.00  0.00     0.001 A 
HETATM   25  C20 UNL     1      21.880   3.849  45.852  1.00  0.00     0.014 A 
ENDBRANCH  16  20
TORSDOF 1
ENDMDL
MODEL 9
REMARK VINA RESULT:      -7.9      3.771      5.496
REMARK  1 active torsions:
REMARK  status: ('A' for Active; 'I' for Inactive)
REMARK    1  A    between atoms: C14_16  and  C15_17 
ROOT
HETATM    1  S1  UNL     1      27.270   8.496  49.513  1.00  0.00    -0.037 SA
HETATM    2  C1  UNL     1      26.016   7.459  49.568  1.00  0.00     0.214 C 
HETATM    3  N1  UNL     1      24.822   8.106  49.013  1.00  0.00    -0.228 NA
HETATM    4  C2  UNL     1      23.990   7.404  48.248  1.00  0.00     0.022 C 
HETATM    5  C3  UNL     1      22.742   7.941  47.641  1.00  0.00     0.082 C 
HETATM    6  C4  UNL     1      22.285   7.144  46.428  1.00  0.00    -0.024 C 
HETATM    7  C5  UNL     1      21.872   6.575  45.265  1.00  0.00    -0.024 C 
HETATM    8  C6  UNL     1      21.745   5.180  45.368  1.00  0.00     0.034 C 
HETATM    9  C7  UNL     1      21.565   3.885  45.285  1.00  0.00     0.089 C 
HETATM   10  C8  UNL     1      21.967   3.446  46.533  1.00  0.00    -0.099 C 
HETATM   11  C9  UNL     1      22.317   3.089  47.552  1.00  0.00    -0.102 C 
HETATM   12  C10 UNL     1      22.803   2.628  48.887  1.00  0.00     0.134 C 
HETATM   13  C11 UNL     1      23.817   3.670  49.318  1.00  0.00    -0.019 C 
HETATM   14  C12 UNL     1      23.873   4.807  48.517  1.00  0.00    -0.011 C 
HETATM   15  C13 UNL     1      24.355   6.041  48.143  1.00  0.00     0.083 C 
HETATM   16  C14 UNL     1      24.866   4.086  50.237  1.00  0.00     0.094 C 
HETATM   17  N2  UNL     1      25.635   5.010  50.374  1.00  0.00    -0.171 NA
HETATM   18  N3  UNL     1      26.227   6.147  50.110  1.00  0.00    -0.251 N 
HETATM   19  H17 UNL     1      27.196   5.964  50.434  1.00  0.00     0.191 HD
ENDROOT
BRANCH  16  20
HETATM   20  C15 UNL     1      24.930   2.956  51.117  1.00  0.00    -0.005 A 
HETATM   21  C16 UNL     1      24.189   2.158  51.917  1.00  0.00     0.014 A 
HETATM   22  C17 UNL     1      24.432   1.014  52.587  1.00  0.00     0.001 A 
HETATM   23  C18 UNL     1      25.703   0.492  52.476  1.00  0.00     0.000 A 
HETATM   24  C19 UNL     1      26.594   1.178  51.699  1.00  0.00     0.001 A 
HETATM   25  C20 UNL     1      26.211   2.348  51.059  1.00  0.00     0.014 A 
ENDBRANCH  16  20
TORSDOF 1
ENDMDL
