MODEL 1
REMARK VINA RESULT:      -9.4      0.000      0.000
REMARK  1 active torsions:
REMARK  status: ('A' for Active; 'I' for Inactive)
REMARK       I    between atoms: N1_4  and  C4_5 
REMARK    1  A    between atoms: C4_5  and  C5_7 
ROOT
HETATM    1  C5  UNL     1      23.553   3.799  51.533  1.00  0.00     0.076 C 
HETATM    2  C6  UNL     1      23.737   3.001  52.623  1.00  0.00     0.135 C 
HETATM    3  N2  UNL     1      23.086   1.824  53.024  1.00  0.00    -0.255 NA
HETATM    4  C7  UNL     1      23.278   0.605  52.749  1.00  0.00     0.208 C 
HETATM    5  N3  UNL     1      22.582  -0.582  53.183  1.00  0.00    -0.335 N 
HETATM    6  C8  UNL     1      21.212  -0.497  52.921  1.00  0.00     0.134 A 
HETATM    7  C9  UNL     1      20.697   0.346  51.972  1.00  0.00     0.100 A 
HETATM    8  C10 UNL     1      19.636   0.891  51.296  1.00  0.00     0.131 A 
HETATM    9  N4  UNL     1      18.642   0.245  51.895  1.00  0.00    -0.216 NA
HETATM   10  C11 UNL     1      18.846  -0.652  52.871  1.00  0.00     0.126 A 
HETATM   11  C12 UNL     1      17.596  -1.292  53.441  1.00  0.00     0.093 C 
HETATM   12  N5  UNL     1      20.043  -1.003  53.356  1.00  0.00    -0.216 NA
HETATM   13  N6  UNL     1      19.992   1.891  50.316  1.00  0.00    -0.362 N 
HETATM   14  C13 UNL     1      20.607   1.519  49.059  1.00  0.00     0.143 C 
HETATM   15  C14 UNL     1      22.080   1.358  49.099  1.00  0.00     0.136 C 
HETATM   16  N7  UNL     1      22.879   2.265  49.799  1.00  0.00    -0.391 N 
HETATM   17  C15 UNL     1      22.419   3.235  50.666  1.00  0.00     0.258 C 
HETATM   18  O2  UNL     1      21.789   4.334  50.128  1.00  0.00    -0.356 OA
HETATM   19  C16 UNL     1      20.429   4.341  50.064  1.00  0.00     0.138 C 
HETATM   20  C17 UNL     1      19.885   4.693  48.697  1.00  0.00     0.041 C 
HETATM   21  C18 UNL     1      19.692   3.233  50.757  1.00  0.00     0.156 C 
HETATM   22  H7  UNL     1      22.971  -1.425  53.636  1.00  0.00     0.168 HD
HETATM   23  H16 UNL     1      23.738   1.795  50.165  1.00  0.00     0.156 HD
ENDROOT
BRANCH   1  24
HETATM   24  C4  UNL     1      24.197   4.998  51.097  1.00  0.00     0.264 C 
HETATM   25  N1  UNL     1      25.191   5.582  50.323  1.00  0.00    -0.279 N 
HETATM   26  C3  UNL     1      25.379   6.975  50.299  1.00  0.00     0.104 A 
HETATM   27  C19 UNL     1      26.076   4.848  49.512  1.00  0.00     0.109 A 
HETATM   28  C2  UNL     1      26.303   7.561  49.583  1.00  0.00    -0.064 A 
HETATM   29  C1  UNL     1      26.478   9.020  49.577  1.00  0.00     0.045 C 
HETATM   30  C21 UNL     1      27.250   6.846  48.722  1.00  0.00     0.065 A 
HETATM   31  C20 UNL     1      27.010   5.398  48.784  1.00  0.00     0.020 A 
HETATM   32 CL1  UNL     1      26.084   3.139  49.339  1.00  0.00    -0.064 Cl
HETATM   33  O1  UNL     1      23.588   5.962  51.677  1.00  0.00    -0.267 OA
ENDBRANCH   1  24
TORSDOF 1
ENDMDL
MODEL 2
REMARK VINA RESULT:      -9.3      2.296      3.239
REMARK  1 active torsions:
REMARK  status: ('A' for Active; 'I' for Inactive)
REMARK       I    between atoms: N1_4  and  C4_5 
REMARK    1  A    between atoms: C4_5  and  C5_7 
ROOT
HETATM    1  C5  UNL     1      24.253   3.951  50.198  1.00  0.00     0.076 C 
HETATM    2  C6  UNL     1      23.812   3.775  51.476  1.00  0.00     0.135 C 
HETATM    3  N2  UNL     1      22.538   3.463  51.976  1.00  0.00    -0.255 NA
HETATM    4  C7  UNL     1      21.943   2.365  52.174  1.00  0.00     0.208 C 
HETATM    5  N3  UNL     1      20.626   2.084  52.692  1.00  0.00    -0.335 N 
HETATM    6  C8  UNL     1      19.637   2.757  51.969  1.00  0.00     0.134 A 
HETATM    7  C9  UNL     1      19.840   3.206  50.690  1.00  0.00     0.100 A 
HETATM    8  C10 UNL     1      19.411   3.856  49.562  1.00  0.00     0.131 A 
HETATM    9  N4  UNL     1      18.190   4.195  49.958  1.00  0.00    -0.216 NA
HETATM   10  C11 UNL     1      17.711   3.887  51.172  1.00  0.00     0.126 A 
HETATM   11  C12 UNL     1      16.296   4.355  51.454  1.00  0.00     0.093 C 
HETATM   12  N5  UNL     1      18.381   3.217  52.117  1.00  0.00    -0.216 NA
HETATM   13  N6  UNL     1      20.389   3.937  48.502  1.00  0.00    -0.362 N 
HETATM   14  C13 UNL     1      20.729   2.775  47.708  1.00  0.00     0.143 C 
HETATM   15  C14 UNL     1      21.767   1.892  48.293  1.00  0.00     0.136 C 
HETATM   16  N7  UNL     1      22.901   2.431  48.904  1.00  0.00    -0.391 N 
HETATM   17  C15 UNL     1      23.086   3.761  49.218  1.00  0.00     0.258 C 
HETATM   18  O2  UNL     1      23.328   4.640  48.188  1.00  0.00    -0.356 OA
HETATM   19  C16 UNL     1      22.284   5.341  47.668  1.00  0.00     0.138 C 
HETATM   20  C17 UNL     1      22.188   5.265  46.161  1.00  0.00     0.041 C 
HETATM   21  C18 UNL     1      20.965   5.256  48.377  1.00  0.00     0.156 C 
HETATM   22  H7  UNL     1      20.364   1.479  53.487  1.00  0.00     0.168 HD
HETATM   23  H16 UNL     1      23.245   1.802  49.666  1.00  0.00     0.156 HD
ENDROOT
BRANCH   1  24
HETATM   24  C4  UNL     1      25.538   4.267  49.657  1.00  0.00     0.264 C 
HETATM   25  N1  UNL     1      26.423   5.249  49.233  1.00  0.00    -0.279 N 
HETATM   26  C3  UNL     1      27.693   4.922  48.726  1.00  0.00     0.104 A 
HETATM   27  C19 UNL     1      26.135   6.625  49.273  1.00  0.00     0.109 A 
HETATM   28  C2  UNL     1      28.553   5.818  48.317  1.00  0.00    -0.064 A 
HETATM   29  C1  UNL     1      29.875   5.448  47.790  1.00  0.00     0.045 C 
HETATM   30  C21 UNL     1      28.305   7.262  48.337  1.00  0.00     0.065 A 
HETATM   31  C20 UNL     1      26.968   7.548  48.874  1.00  0.00     0.020 A 
HETATM   32 CL1  UNL     1      24.670   7.320  49.842  1.00  0.00    -0.064 Cl
HETATM   33  O1  UNL     1      26.140   3.151  49.491  1.00  0.00    -0.267 OA
ENDBRANCH   1  24
TORSDOF 1
ENDMDL
MODEL 3
REMARK VINA RESULT:      -9.0      2.709      8.370
REMARK  1 active torsions:
REMARK  status: ('A' for Active; 'I' for Inactive)
REMARK       I    between atoms: N1_4  and  C4_5 
REMARK    1  A    between atoms: C4_5  and  C5_7 
ROOT
HETATM    1  C5  UNL     1      25.464   4.013  49.938  1.00  0.00     0.076 C 
HETATM    2  C6  UNL     1      26.643   3.818  49.283  1.00  0.00     0.135 C 
HETATM    3  N2  UNL     1      27.423   4.692  48.510  1.00  0.00    -0.255 NA
HETATM    4  C7  UNL     1      28.329   5.523  48.811  1.00  0.00     0.208 C 
HETATM    5  N3  UNL     1      29.111   6.409  47.982  1.00  0.00    -0.335 N 
HETATM    6  C8  UNL     1      28.295   7.227  47.196  1.00  0.00     0.134 A 
HETATM    7  C9  UNL     1      26.990   7.490  47.518  1.00  0.00     0.100 A 
HETATM    8  C10 UNL     1      25.781   8.081  47.253  1.00  0.00     0.131 A 
HETATM    9  N4  UNL     1      26.082   8.687  46.111  1.00  0.00    -0.216 NA
HETATM   10  C11 UNL     1      27.296   8.608  45.547  1.00  0.00     0.126 A 
HETATM   11  C12 UNL     1      27.461   9.363  44.243  1.00  0.00     0.093 C 
HETATM   12  N5  UNL     1      28.334   7.928  46.048  1.00  0.00    -0.216 NA
HETATM   13  N6  UNL     1      24.745   7.799  48.220  1.00  0.00    -0.362 N 
HETATM   14  C13 UNL     1      24.761   8.411  49.532  1.00  0.00     0.143 C 
HETATM   15  C14 UNL     1      25.585   7.710  50.546  1.00  0.00     0.136 C 
HETATM   16  N7  UNL     1      25.566   6.317  50.643  1.00  0.00    -0.391 N 
HETATM   17  C15 UNL     1      24.990   5.458  49.729  1.00  0.00     0.258 C 
HETATM   18  O2  UNL     1      23.616   5.389  49.686  1.00  0.00    -0.356 OA
HETATM   19  C16 UNL     1      22.952   6.142  48.766  1.00  0.00     0.138 C 
HETATM   20  C17 UNL     1      21.827   6.966  49.349  1.00  0.00     0.041 C 
HETATM   21  C18 UNL     1      23.769   6.855  47.728  1.00  0.00     0.156 C 
HETATM   22  H7  UNL     1      30.138   6.489  47.920  1.00  0.00     0.168 HD
HETATM   23  H16 UNL     1      26.487   5.957  50.984  1.00  0.00     0.156 HD
ENDROOT
BRANCH   1  24
HETATM   24  C4  UNL     1      24.648   3.147  50.731  1.00  0.00     0.264 C 
HETATM   25  N1  UNL     1      23.561   2.286  50.787  1.00  0.00    -0.279 N 
HETATM   26  C3  UNL     1      23.181   1.660  51.988  1.00  0.00     0.104 A 
HETATM   27  C19 UNL     1      22.763   1.968  49.673  1.00  0.00     0.109 A 
HETATM   28  C2  UNL     1      22.165   0.844  52.080  1.00  0.00    -0.064 A 
HETATM   29  C1  UNL     1      21.789   0.204  53.349  1.00  0.00     0.045 C 
HETATM   30  C21 UNL     1      21.301   0.479  50.953  1.00  0.00     0.065 A 
HETATM   31  C20 UNL     1      21.740   1.157  49.727  1.00  0.00     0.020 A 
HETATM   32 CL1  UNL     1      22.985   2.576  48.082  1.00  0.00    -0.064 Cl
HETATM   33  O1  UNL     1      25.135   3.181  51.913  1.00  0.00    -0.267 OA
ENDBRANCH   1  24
TORSDOF 1
ENDMDL
MODEL 4
REMARK VINA RESULT:      -8.8      7.783     10.687
REMARK  1 active torsions:
REMARK  status: ('A' for Active; 'I' for Inactive)
REMARK       I    between atoms: N1_4  and  C4_5 
REMARK    1  A    between atoms: C4_5  and  C5_7 
ROOT
HETATM    1  C5  UNL     1      30.307   9.440  48.395  1.00  0.00     0.076 C 
HETATM    2  C6  UNL     1      30.245  10.734  47.973  1.00  0.00     0.135 C 
HETATM    3  N2  UNL     1      29.158  11.616  47.860  1.00  0.00    -0.255 NA
HETATM    4  C7  UNL     1      28.608  12.405  48.682  1.00  0.00     0.208 C 
HETATM    5  N3  UNL     1      27.486  13.298  48.526  1.00  0.00    -0.335 N 
HETATM    6  C8  UNL     1      26.355  12.624  48.058  1.00  0.00     0.134 A 
HETATM    7  C9  UNL     1      26.198  11.270  48.197  1.00  0.00     0.100 A 
HETATM    8  C10 UNL     1      25.485  10.116  47.998  1.00  0.00     0.131 A 
HETATM    9  N4  UNL     1      24.442  10.615  47.346  1.00  0.00    -0.216 NA
HETATM   10  C11 UNL     1      24.321  11.920  47.064  1.00  0.00     0.126 A 
HETATM   11  C12 UNL     1      23.063  12.312  46.313  1.00  0.00     0.093 C 
HETATM   12  N5  UNL     1      25.211  12.864  47.393  1.00  0.00    -0.216 NA
HETATM   13  N6  UNL     1      26.121   8.918  48.499  1.00  0.00    -0.362 N 
HETATM   14  C13 UNL     1      26.179   8.642  49.919  1.00  0.00     0.143 C 
HETATM   15  C14 UNL     1      27.310   9.274  50.640  1.00  0.00     0.136 C 
HETATM   16  N7  UNL     1      28.589   9.296  50.081  1.00  0.00    -0.391 N 
HETATM   17  C15 UNL     1      28.903   8.955  48.782  1.00  0.00     0.258 C 
HETATM   18  O2  UNL     1      28.868   7.623  48.439  1.00  0.00    -0.356 OA
HETATM   19  C16 UNL     1      27.743   7.127  47.855  1.00  0.00     0.138 C 
HETATM   20  C17 UNL     1      27.216   5.872  48.514  1.00  0.00     0.041 C 
HETATM   21  C18 UNL     1      26.681   8.104  47.446  1.00  0.00     0.156 C 
HETATM   22  H7  UNL     1      27.443  14.313  48.714  1.00  0.00     0.168 HD
HETATM   23  H16 UNL     1      29.116  10.144  50.396  1.00  0.00     0.156 HD
ENDROOT
BRANCH   1  24
HETATM   24  C4  UNL     1      31.393   8.519  48.522  1.00  0.00     0.264 C 
HETATM   25  N1  UNL     1      32.225   7.593  47.907  1.00  0.00    -0.279 N 
HETATM   26  C3  UNL     1      33.223   6.912  48.625  1.00  0.00     0.104 A 
HETATM   27  C19 UNL     1      32.146   7.266  46.541  1.00  0.00     0.109 A 
HETATM   28  C2  UNL     1      34.025   6.035  48.081  1.00  0.00    -0.064 A 
HETATM   29  C1  UNL     1      35.059   5.335  48.856  1.00  0.00     0.045 C 
HETATM   30  C21 UNL     1      33.986   5.656  46.665  1.00  0.00     0.065 A 
HETATM   31  C20 UNL     1      32.930   6.395  45.963  1.00  0.00     0.020 A 
HETATM   32 CL1  UNL     1      31.033   7.935  45.417  1.00  0.00    -0.064 Cl
HETATM   33  O1  UNL     1      31.762   8.569  49.746  1.00  0.00    -0.267 OA
ENDBRANCH   1  24
TORSDOF 1
ENDMDL
MODEL 5
REMARK VINA RESULT:      -8.4      3.295      6.962
REMARK  1 active torsions:
REMARK  status: ('A' for Active; 'I' for Inactive)
REMARK       I    between atoms: N1_4  and  C4_5 
REMARK    1  A    between atoms: C4_5  and  C5_7 
ROOT
HETATM    1  C5  UNL     1      22.372   3.698  50.785  1.00  0.00     0.076 C 
HETATM    2  C6  UNL     1      21.100   4.046  51.129  1.00  0.00     0.135 C 
HETATM    3  N2  UNL     1      20.299   5.125  50.723  1.00  0.00    -0.255 NA
HETATM    4  C7  UNL     1      19.521   5.289  49.739  1.00  0.00     0.208 C 
HETATM    5  N3  UNL     1      18.710   6.419  49.355  1.00  0.00    -0.335 N 
HETATM    6  C8  UNL     1      19.476   7.583  49.244  1.00  0.00     0.134 A 
HETATM    7  C9  UNL     1      20.832   7.555  49.048  1.00  0.00     0.100 A 
HETATM    8  C10 UNL     1      22.037   8.189  48.894  1.00  0.00     0.131 A 
HETATM    9  N4  UNL     1      21.633   9.450  48.985  1.00  0.00    -0.216 NA
HETATM   10  C11 UNL     1      20.350   9.787  49.178  1.00  0.00     0.126 A 
HETATM   11  C12 UNL     1      20.070  11.275  49.258  1.00  0.00     0.093 C 
HETATM   12  N5  UNL     1      19.337   8.920  49.300  1.00  0.00    -0.216 NA
HETATM   13  N6  UNL     1      23.171   7.305  48.747  1.00  0.00    -0.362 N 
HETATM   14  C13 UNL     1      23.393   6.574  47.516  1.00  0.00     0.143 C 
HETATM   15  C14 UNL     1      22.662   5.289  47.404  1.00  0.00     0.136 C 
HETATM   16  N7  UNL     1      22.572   4.420  48.494  1.00  0.00    -0.391 N 
HETATM   17  C15 UNL     1      22.937   4.721  49.790  1.00  0.00     0.258 C 
HETATM   18  O2  UNL     1      24.279   4.809  50.078  1.00  0.00    -0.356 OA
HETATM   19  C16 UNL     1      24.870   6.035  50.073  1.00  0.00     0.138 C 
HETATM   20  C17 UNL     1      26.134   6.099  49.245  1.00  0.00     0.041 C 
HETATM   21  C18 UNL     1      23.982   7.237  49.940  1.00  0.00     0.156 C 
HETATM   22  H7  UNL     1      17.695   6.447  49.168  1.00  0.00     0.168 HD
HETATM   23  H16 UNL     1      21.681   3.874  48.460  1.00  0.00     0.156 HD
ENDROOT
BRANCH   1  24
HETATM   24  C4  UNL     1      23.213   2.610  51.178  1.00  0.00     0.264 C 
HETATM   25  N1  UNL     1      24.158   2.120  52.069  1.00  0.00    -0.279 N 
HETATM   26  C3  UNL     1      24.697   0.829  51.931  1.00  0.00     0.104 A 
HETATM   27  C19 UNL     1      24.647   2.855  53.165  1.00  0.00     0.109 A 
HETATM   28  C2  UNL     1      25.587   0.333  52.749  1.00  0.00    -0.064 A 
HETATM   29  C1  UNL     1      26.135  -1.021  52.581  1.00  0.00     0.045 C 
HETATM   30  C21 UNL     1      26.131   1.053  53.905  1.00  0.00     0.065 A 
HETATM   31  C20 UNL     1      25.536   2.392  54.003  1.00  0.00     0.020 A 
HETATM   32 CL1  UNL     1      24.173   4.451  53.586  1.00  0.00    -0.064 Cl
HETATM   33  O1  UNL     1      23.000   1.671  50.335  1.00  0.00    -0.267 OA
ENDBRANCH   1  24
TORSDOF 1
ENDMDL
MODEL 6
REMARK VINA RESULT:      -8.4     10.045     12.333
REMARK  1 active torsions:
REMARK  status: ('A' for Active; 'I' for Inactive)
REMARK       I    between atoms: N1_4  and  C4_5 
REMARK    1  A    between atoms: C4_5  and  C5_7 
ROOT
HETATM    1  C5  UNL     1      30.648   7.347  48.109  1.00  0.00     0.076 C 
HETATM    2  C6  UNL     1      30.330   8.132  49.177  1.00  0.00     0.135 C 
HETATM    3  N2  UNL     1      29.757   9.412  49.241  1.00  0.00    -0.255 NA
HETATM    4  C7  UNL     1      28.556   9.811  49.253  1.00  0.00     0.208 C 
HETATM    5  N3  UNL     1      28.005  11.143  49.319  1.00  0.00    -0.335 N 
HETATM    6  C8  UNL     1      28.512  11.958  48.303  1.00  0.00     0.134 A 
HETATM    7  C9  UNL     1      29.052  11.447  47.153  1.00  0.00     0.100 A 
HETATM    8  C10 UNL     1      29.662  11.609  45.936  1.00  0.00     0.131 A 
HETATM    9  N4  UNL     1      29.743  12.934  45.907  1.00  0.00    -0.216 NA
HETATM   10  C11 UNL     1      29.291  13.708  46.905  1.00  0.00     0.126 A 
HETATM   11  C12 UNL     1      29.466  15.200  46.704  1.00  0.00     0.093 C 
HETATM   12  N5  UNL     1      28.715  13.259  48.027  1.00  0.00    -0.216 NA
HETATM   13  N6  UNL     1      29.980  10.377  45.250  1.00  0.00    -0.362 N 
HETATM   14  C13 UNL     1      28.944   9.579  44.629  1.00  0.00     0.143 C 
HETATM   15  C14 UNL     1      28.248   8.633  45.533  1.00  0.00     0.136 C 
HETATM   16  N7  UNL     1      28.962   7.884  46.471  1.00  0.00    -0.391 N 
HETATM   17  C15 UNL     1      30.287   8.075  46.807  1.00  0.00     0.258 C 
HETATM   18  O2  UNL     1      31.244   7.691  45.896  1.00  0.00    -0.356 OA
HETATM   19  C16 UNL     1      31.759   8.629  45.054  1.00  0.00     0.138 C 
HETATM   20  C17 UNL     1      31.739   8.218  43.599  1.00  0.00     0.041 C 
HETATM   21  C18 UNL     1      31.389  10.062  45.297  1.00  0.00     0.156 C 
HETATM   22  H7  UNL     1      27.323  11.523  49.996  1.00  0.00     0.168 HD
HETATM   23  H16 UNL     1      28.374   7.688  47.314  1.00  0.00     0.156 HD
ENDROOT
BRANCH   1  24
HETATM   24  C4  UNL     1      31.229   6.044  48.010  1.00  0.00     0.264 C 
HETATM   25  N1  UNL     1      32.384   5.276  47.947  1.00  0.00    -0.279 N 
HETATM   26  C3  UNL     1      32.329   3.877  47.830  1.00  0.00     0.104 A 
HETATM   27  C19 UNL     1      33.681   5.819  47.996  1.00  0.00     0.109 A 
HETATM   28  C2  UNL     1      33.394   3.121  47.768  1.00  0.00    -0.064 A 
HETATM   29  C1  UNL     1      33.308   1.659  47.645  1.00  0.00     0.045 C 
HETATM   30  C21 UNL     1      34.767   3.632  47.814  1.00  0.00     0.065 A 
HETATM   31  C20 UNL     1      34.767   5.096  47.937  1.00  0.00     0.020 A 
HETATM   32 CL1  UNL     1      34.059   7.489  48.138  1.00  0.00    -0.064 Cl
HETATM   33  O1  UNL     1      30.252   5.220  47.957  1.00  0.00    -0.267 OA
ENDBRANCH   1  24
TORSDOF 1
ENDMDL
MODEL 7
REMARK VINA RESULT:      -8.3      2.194      7.876
REMARK  1 active torsions:
REMARK  status: ('A' for Active; 'I' for Inactive)
REMARK       I    between atoms: N1_4  and  C4_5 
REMARK    1  A    between atoms: C4_5  and  C5_7 
ROOT
HETATM    1  C5  UNL     1      23.215   3.173  49.991  1.00  0.00     0.076 C 
HETATM    2  C6  UNL     1      24.439   2.844  49.489  1.00  0.00     0.135 C 
HETATM    3  N2  UNL     1      25.518   3.647  49.091  1.00  0.00    -0.255 NA
HETATM    4  C7  UNL     1      26.493   4.146  49.726  1.00  0.00     0.208 C 
HETATM    5  N3  UNL     1      27.588   4.972  49.279  1.00  0.00    -0.335 N 
HETATM    6  C8  UNL     1      27.130   6.116  48.619  1.00  0.00     0.134 A 
HETATM    7  C9  UNL     1      25.866   6.613  48.802  1.00  0.00     0.100 A 
HETATM    8  C10 UNL     1      24.881   7.524  48.524  1.00  0.00     0.131 A 
HETATM    9  N4  UNL     1      25.522   8.272  47.634  1.00  0.00    -0.216 NA
HETATM   10  C11 UNL     1      26.784   8.024  47.254  1.00  0.00     0.126 A 
HETATM   11  C12 UNL     1      27.358   8.980  46.227  1.00  0.00     0.093 C 
HETATM   12  N5  UNL     1      27.540   7.018  47.709  1.00  0.00    -0.216 NA
HETATM   13  N6  UNL     1      23.635   7.301  49.221  1.00  0.00    -0.362 N 
HETATM   14  C13 UNL     1      23.508   7.589  50.634  1.00  0.00     0.143 C 
HETATM   15  C14 UNL     1      23.952   6.505  51.543  1.00  0.00     0.136 C 
HETATM   16  N7  UNL     1      23.633   5.172  51.273  1.00  0.00    -0.391 N 
HETATM   17  C15 UNL     1      23.094   4.700  50.094  1.00  0.00     0.258 C 
HETATM   18  O2  UNL     1      21.772   4.980  49.833  1.00  0.00    -0.356 OA
HETATM   19  C16 UNL     1      21.473   6.053  49.051  1.00  0.00     0.138 C 
HETATM   20  C17 UNL     1      20.443   6.980  49.655  1.00  0.00     0.041 C 
HETATM   21  C18 UNL     1      22.609   6.753  48.364  1.00  0.00     0.156 C 
HETATM   22  H7  UNL     1      28.602   4.810  49.391  1.00  0.00     0.168 HD
HETATM   23  H16 UNL     1      24.375   4.533  51.642  1.00  0.00     0.156 HD
ENDROOT
BRANCH   1  24
HETATM   24  C4  UNL     1      22.098   2.382  50.404  1.00  0.00     0.264 C 
HETATM   25  N1  UNL     1      21.517   1.597  51.391  1.00  0.00    -0.279 N 
HETATM   26  C3  UNL     1      20.258   1.001  51.208  1.00  0.00     0.104 A 
HETATM   27  C19 UNL     1      22.123   1.337  52.634  1.00  0.00     0.109 A 
HETATM   28  C2  UNL     1      19.679   0.257  52.113  1.00  0.00    -0.064 A 
HETATM   29  C1  UNL     1      18.361  -0.356  51.894  1.00  0.00     0.045 C 
HETATM   30  C21 UNL     1      20.264  -0.047  53.422  1.00  0.00     0.065 A 
HETATM   31  C20 UNL     1      21.576   0.599  53.562  1.00  0.00     0.020 A 
HETATM   32 CL1  UNL     1      23.654   1.930  53.140  1.00  0.00    -0.064 Cl
HETATM   33  O1  UNL     1      21.263   2.409  49.436  1.00  0.00    -0.267 OA
ENDBRANCH   1  24
TORSDOF 1
ENDMDL
MODEL 8
REMARK VINA RESULT:      -8.3      3.256      6.588
REMARK  1 active torsions:
REMARK  status: ('A' for Active; 'I' for Inactive)
REMARK       I    between atoms: N1_4  and  C4_5 
REMARK    1  A    between atoms: C4_5  and  C5_7 
ROOT
HETATM    1  C5  UNL     1      23.764   4.558  51.237  1.00  0.00     0.076 C 
HETATM    2  C6  UNL     1      24.140   5.857  51.068  1.00  0.00     0.135 C 
HETATM    3  N2  UNL     1      23.631   6.862  50.232  1.00  0.00    -0.255 NA
HETATM    4  C7  UNL     1      22.692   7.698  50.373  1.00  0.00     0.208 C 
HETATM    5  N3  UNL     1      22.197   8.721  49.484  1.00  0.00    -0.335 N 
HETATM    6  C8  UNL     1      21.853   8.192  48.237  1.00  0.00     0.134 A 
HETATM    7  C9  UNL     1      21.567   6.865  48.055  1.00  0.00     0.100 A 
HETATM    8  C10 UNL     1      21.231   5.807  47.251  1.00  0.00     0.131 A 
HETATM    9  N4  UNL     1      21.155   6.436  46.084  1.00  0.00    -0.216 NA
HETATM   10  C11 UNL     1      21.385   7.750  45.954  1.00  0.00     0.126 A 
HETATM   11  C12 UNL     1      21.255   8.300  44.548  1.00  0.00     0.093 C 
HETATM   12  N5  UNL     1      21.712   8.577  46.955  1.00  0.00    -0.216 NA
HETATM   13  N6  UNL     1      21.141   4.535  47.931  1.00  0.00    -0.362 N 
HETATM   14  C13 UNL     1      20.026   4.232  48.803  1.00  0.00     0.143 C 
HETATM   15  C14 UNL     1      20.166   4.714  50.199  1.00  0.00     0.136 C 
HETATM   16  N7  UNL     1      21.380   4.593  50.878  1.00  0.00    -0.391 N 
HETATM   17  C15 UNL     1      22.585   4.237  50.308  1.00  0.00     0.258 C 
HETATM   18  O2  UNL     1      22.759   2.924  49.936  1.00  0.00    -0.356 OA
HETATM   19  C16 UNL     1      22.522   2.574  48.642  1.00  0.00     0.138 C 
HETATM   20  C17 UNL     1      21.606   1.380  48.491  1.00  0.00     0.041 C 
HETATM   21  C18 UNL     1      22.270   3.676  47.656  1.00  0.00     0.156 C 
HETATM   22  H7  UNL     1      22.081   9.731  49.668  1.00  0.00     0.168 HD
HETATM   23  H16 UNL     1      21.494   5.367  51.571  1.00  0.00     0.156 HD
ENDROOT
BRANCH   1  24
HETATM   24  C4  UNL     1      24.259   3.512  52.077  1.00  0.00     0.264 C 
HETATM   25  N1  UNL     1      25.179   2.489  52.259  1.00  0.00    -0.279 N 
HETATM   26  C3  UNL     1      25.175   1.696  53.420  1.00  0.00     0.104 A 
HETATM   27  C19 UNL     1      26.175   2.164  51.319  1.00  0.00     0.109 A 
HETATM   28  C2  UNL     1      26.025   0.725  53.626  1.00  0.00    -0.064 A 
HETATM   29  C1  UNL     1      25.998  -0.090  54.850  1.00  0.00     0.045 C 
HETATM   30  C21 UNL     1      27.080   0.344  52.683  1.00  0.00     0.065 A 
HETATM   31  C20 UNL     1      27.040   1.201  51.491  1.00  0.00     0.020 A 
HETATM   32 CL1  UNL     1      26.423   2.956  49.816  1.00  0.00    -0.064 Cl
HETATM   33  O1  UNL     1      23.531   3.526  53.130  1.00  0.00    -0.267 OA
ENDBRANCH   1  24
TORSDOF 1
ENDMDL
MODEL 9
REMARK VINA RESULT:      -8.2      3.153      5.654
REMARK  1 active torsions:
REMARK  status: ('A' for Active; 'I' for Inactive)
REMARK       I    between atoms: N1_4  and  C4_5 
REMARK    1  A    between atoms: C4_5  and  C5_7 
ROOT
HETATM    1  C5  UNL     1      22.726   6.440  50.098  1.00  0.00     0.076 C 
HETATM    2  C6  UNL     1      24.071   6.643  50.197  1.00  0.00     0.135 C 
HETATM    3  N2  UNL     1      25.130   5.737  50.359  1.00  0.00    -0.255 NA
HETATM    4  C7  UNL     1      25.819   5.071  49.532  1.00  0.00     0.208 C 
HETATM    5  N3  UNL     1      26.905   4.144  49.740  1.00  0.00    -0.335 N 
HETATM    6  C8  UNL     1      26.544   3.120  50.620  1.00  0.00     0.134 A 
HETATM    7  C9  UNL     1      25.237   2.781  50.854  1.00  0.00     0.100 A 
HETATM    8  C10 UNL     1      24.287   2.028  51.495  1.00  0.00     0.131 A 
HETATM    9  N4  UNL     1      25.079   1.270  52.244  1.00  0.00    -0.216 NA
HETATM   10  C11 UNL     1      26.416   1.379  52.224  1.00  0.00     0.126 A 
HETATM   11  C12 UNL     1      27.162   0.433  53.144  1.00  0.00     0.093 C 
HETATM   12  N5  UNL     1      27.106   2.241  51.469  1.00  0.00    -0.216 NA
HETATM   13  N6  UNL     1      22.923   2.360  51.157  1.00  0.00    -0.362 N 
HETATM   14  C13 UNL     1      22.359   1.989  49.876  1.00  0.00     0.143 C 
HETATM   15  C14 UNL     1      22.628   2.937  48.768  1.00  0.00     0.136 C 
HETATM   16  N7  UNL     1      22.542   4.316  48.972  1.00  0.00    -0.391 N 
HETATM   17  C15 UNL     1      22.422   4.939  50.197  1.00  0.00     0.258 C 
HETATM   18  O2  UNL     1      21.213   4.853  50.848  1.00  0.00    -0.356 OA
HETATM   19  C16 UNL     1      21.046   3.888  51.793  1.00  0.00     0.138 C 
HETATM   20  C17 UNL     1      19.794   3.061  51.607  1.00  0.00     0.041 C 
HETATM   21  C18 UNL     1      22.254   3.097  52.204  1.00  0.00     0.156 C 
HETATM   22  H7  UNL     1      27.853   4.164  49.330  1.00  0.00     0.168 HD
HETATM   23  H16 UNL     1      23.206   4.825  48.343  1.00  0.00     0.156 HD
ENDROOT
BRANCH   1  24
HETATM   24  C4  UNL     1      21.626   7.338  49.933  1.00  0.00     0.264 C 
HETATM   25  N1  UNL     1      20.763   7.989  49.062  1.00  0.00    -0.279 N 
HETATM   26  C3  UNL     1      19.768   8.864  49.531  1.00  0.00     0.104 A 
HETATM   27  C19 UNL     1      20.807   7.834  47.664  1.00  0.00     0.109 A 
HETATM   28  C2  UNL     1      18.938   9.494  48.743  1.00  0.00    -0.064 A 
HETATM   29  C1  UNL     1      17.907  10.404  49.262  1.00  0.00     0.045 C 
HETATM   30  C21 UNL     1      18.939   9.370  47.283  1.00  0.00     0.065 A 
HETATM   31  C20 UNL     1      19.995   8.447  46.845  1.00  0.00     0.020 A 
HETATM   32 CL1  UNL     1      21.910   6.834  46.806  1.00  0.00    -0.064 Cl
HETATM   33  O1  UNL     1      21.283   7.702  51.110  1.00  0.00    -0.267 OA
ENDBRANCH   1  24
TORSDOF 1
ENDMDL
