MODEL 1
REMARK VINA RESULT:      -6.4      0.000      0.000
REMARK  6 active torsions:
REMARK  status: ('A' for Active; 'I' for Inactive)
REMARK    1  A    between atoms: O1_2  and  C2_3 
REMARK    2  A    between atoms: C8_11  and  O2_12 
REMARK    3  A    between atoms: O2_12  and  C9_13 
REMARK    4  A    between atoms: C9_13  and  C10_14 
REMARK    5  A    between atoms: C10_14  and  C11_15 
REMARK    6  A    between atoms: C11_15  and  N3_16 
ROOT
HETATM    1  C2  UNL     1      25.563   0.114  54.196  1.00  0.00     0.126 C 
HETATM    2  C3  UNL     1      26.869   0.437  53.975  1.00  0.00     0.077 C 
HETATM    3  C4  UNL     1      27.332   0.076  52.504  1.00  0.00     0.121 C 
HETATM    4  C5  UNL     1      26.690   1.455  52.190  1.00  0.00     0.044 C 
HETATM    5  N1  UNL     1      27.692   2.317  52.249  1.00  0.00    -0.246 NA
HETATM    6  C6  UNL     1      28.466   2.114  53.580  1.00  0.00     0.233 C 
HETATM    7  N2  UNL     1      28.058   1.122  54.492  1.00  0.00    -0.243 NA
HETATM    8  C7  UNL     1      25.242   1.328  52.113  1.00  0.00     0.067 C 
HETATM    9  C8  UNL     1      24.623   0.623  53.107  1.00  0.00     0.106 C 
ENDROOT
BRANCH   9  10
HETATM   10  O2  UNL     1      23.430   0.223  53.450  1.00  0.00    -0.348 OA
BRANCH  10  11
HETATM   11  C9  UNL     1      22.496  -0.692  52.942  1.00  0.00     0.177 C 
BRANCH  11  12
HETATM   12  C10 UNL     1      21.373   0.060  52.302  1.00  0.00     0.057 C 
BRANCH  12  13
HETATM   13  C11 UNL     1      21.528   0.582  50.937  1.00  0.00     0.274 C 
BRANCH  13  14
HETATM   14  N3  UNL     1      21.340   1.989  50.723  1.00  0.00     0.091 N 
HETATM   15  C12 UNL     1      22.480   2.553  49.971  1.00  0.00     0.302 C 
HETATM   16  C13 UNL     1      22.236   4.055  49.856  1.00  0.00     0.302 C 
HETATM   17  N4  UNL     1      22.498   4.695  51.140  1.00  0.00     0.087 N 
HETATM   18  C14 UNL     1      23.854   5.243  51.165  1.00  0.00     0.310 C 
HETATM   19  C15 UNL     1      22.399   3.695  52.174  1.00  0.00     0.302 C 
HETATM   20  C16 UNL     1      21.273   2.715  52.006  1.00  0.00     0.302 C 
ENDBRANCH  13  14
ENDBRANCH  12  13
ENDBRANCH  11  12
ENDBRANCH  10  11
ENDBRANCH   9  10
BRANCH   1  21
HETATM   21  O1  UNL     1      25.728  -0.557  55.380  1.00  0.00    -0.351 OA
HETATM   22  C1  UNL     1      24.639  -1.288  55.885  1.00  0.00     0.210 C 
ENDBRANCH   1  21
TORSDOF 6
ENDMDL
MODEL 2
REMARK VINA RESULT:      -6.3      2.092      3.428
REMARK  6 active torsions:
REMARK  status: ('A' for Active; 'I' for Inactive)
REMARK    1  A    between atoms: O1_2  and  C2_3 
REMARK    2  A    between atoms: C8_11  and  O2_12 
REMARK    3  A    between atoms: O2_12  and  C9_13 
REMARK    4  A    between atoms: C9_13  and  C10_14 
REMARK    5  A    between atoms: C10_14  and  C11_15 
REMARK    6  A    between atoms: C11_15  and  N3_16 
ROOT
HETATM    1  C2  UNL     1      24.625   0.403  53.158  1.00  0.00     0.126 C 
HETATM    2  C3  UNL     1      25.732  -0.187  53.691  1.00  0.00     0.077 C 
HETATM    3  C4  UNL     1      26.685  -0.784  52.576  1.00  0.00     0.121 C 
HETATM    4  C5  UNL     1      27.197   0.681  52.528  1.00  0.00     0.044 C 
HETATM    5  N1  UNL     1      28.238   0.704  53.346  1.00  0.00    -0.246 NA
HETATM    6  C6  UNL     1      27.834   0.074  54.707  1.00  0.00     0.233 C 
HETATM    7  N2  UNL     1      26.528  -0.413  54.902  1.00  0.00    -0.243 NA
HETATM    8  C7  UNL     1      26.280   1.508  51.760  1.00  0.00     0.067 C 
HETATM    9  C8  UNL     1      24.946   1.379  52.029  1.00  0.00     0.106 C 
ENDROOT
BRANCH   9  10
HETATM   10  O2  UNL     1      23.798   1.840  51.618  1.00  0.00    -0.348 OA
BRANCH  10  11
HETATM   11  C9  UNL     1      23.112   1.876  50.395  1.00  0.00     0.177 C 
BRANCH  11  12
HETATM   12  C10 UNL     1      23.318   3.212  49.758  1.00  0.00     0.057 C 
BRANCH  12  13
HETATM   13  C11 UNL     1      23.235   4.431  50.576  1.00  0.00     0.274 C 
BRANCH  13  14
HETATM   14  N3  UNL     1      24.422   5.223  50.735  1.00  0.00     0.091 N 
HETATM   15  C12 UNL     1      24.211   6.582  50.194  1.00  0.00     0.302 C 
HETATM   16  C13 UNL     1      25.536   7.326  50.333  1.00  0.00     0.302 C 
HETATM   17  N4  UNL     1      26.476   6.846  49.326  1.00  0.00     0.087 N 
HETATM   18  C14 UNL     1      26.469   7.734  48.164  1.00  0.00     0.310 C 
HETATM   19  C15 UNL     1      26.051   5.538  48.895  1.00  0.00     0.302 C 
HETATM   20  C16 UNL     1      25.553   4.637  49.989  1.00  0.00     0.302 C 
ENDBRANCH  13  14
ENDBRANCH  12  13
ENDBRANCH  11  12
ENDBRANCH  10  11
ENDBRANCH   9  10
BRANCH   1  21
HETATM   21  O1  UNL     1      23.684  -0.198  53.952  1.00  0.00    -0.351 OA
HETATM   22  C1  UNL     1      22.714  -1.007  53.334  1.00  0.00     0.210 C 
ENDBRANCH   1  21
TORSDOF 6
ENDMDL
MODEL 3
REMARK VINA RESULT:      -6.3      1.445      2.091
REMARK  6 active torsions:
REMARK  status: ('A' for Active; 'I' for Inactive)
REMARK    1  A    between atoms: O1_2  and  C2_3 
REMARK    2  A    between atoms: C8_11  and  O2_12 
REMARK    3  A    between atoms: O2_12  and  C9_13 
REMARK    4  A    between atoms: C9_13  and  C10_14 
REMARK    5  A    between atoms: C10_14  and  C11_15 
REMARK    6  A    between atoms: C11_15  and  N3_16 
ROOT
HETATM    1  C2  UNL     1      26.093  -0.638  53.462  1.00  0.00     0.126 C 
HETATM    2  C3  UNL     1      27.311  -0.028  53.426  1.00  0.00     0.077 C 
HETATM    3  C4  UNL     1      27.376   1.110  52.327  1.00  0.00     0.121 C 
HETATM    4  C5  UNL     1      26.725   1.949  53.460  1.00  0.00     0.044 C 
HETATM    5  N1  UNL     1      27.740   2.539  54.071  1.00  0.00    -0.246 NA
HETATM    6  C6  UNL     1      28.816   1.475  54.421  1.00  0.00     0.233 C 
HETATM    7  N2  UNL     1      28.616   0.125  54.078  1.00  0.00    -0.243 NA
HETATM    8  C7  UNL     1      25.302   1.661  53.543  1.00  0.00     0.067 C 
HETATM    9  C8  UNL     1      24.927   0.346  53.519  1.00  0.00     0.106 C 
ENDROOT
BRANCH   9  10
HETATM   10  O2  UNL     1      23.846  -0.382  53.530  1.00  0.00    -0.348 OA
BRANCH  10  11
HETATM   11  C9  UNL     1      22.977  -0.871  54.517  1.00  0.00     0.177 C 
BRANCH  11  12
HETATM   12  C10 UNL     1      21.689  -0.115  54.453  1.00  0.00     0.057 C 
BRANCH  12  13
HETATM   13  C11 UNL     1      20.689  -0.461  53.434  1.00  0.00     0.274 C 
BRANCH  13  14
HETATM   14  N3  UNL     1      20.450   0.475  52.370  1.00  0.00     0.091 N 
HETATM   15  C12 UNL     1      21.378   0.225  51.248  1.00  0.00     0.302 C 
HETATM   16  C13 UNL     1      21.110   1.305  50.203  1.00  0.00     0.302 C 
HETATM   17  N4  UNL     1      21.667   2.575  50.655  1.00  0.00     0.087 N 
HETATM   18  C14 UNL     1      22.988   2.786  50.064  1.00  0.00     0.310 C 
HETATM   19  C15 UNL     1      21.819   2.521  52.087  1.00  0.00     0.302 C 
HETATM   20  C16 UNL     1      20.688   1.859  52.822  1.00  0.00     0.302 C 
ENDBRANCH  13  14
ENDBRANCH  12  13
ENDBRANCH  11  12
ENDBRANCH  10  11
ENDBRANCH   9  10
BRANCH   1  21
HETATM   21  O1  UNL     1      26.526  -1.938  53.436  1.00  0.00    -0.351 OA
HETATM   22  C1  UNL     1      26.955  -2.470  52.208  1.00  0.00     0.210 C 
ENDBRANCH   1  21
TORSDOF 6
ENDMDL
MODEL 4
REMARK VINA RESULT:      -6.2      1.381      1.889
REMARK  6 active torsions:
REMARK  status: ('A' for Active; 'I' for Inactive)
REMARK    1  A    between atoms: O1_2  and  C2_3 
REMARK    2  A    between atoms: C8_11  and  O2_12 
REMARK    3  A    between atoms: O2_12  and  C9_13 
REMARK    4  A    between atoms: C9_13  and  C10_14 
REMARK    5  A    between atoms: C10_14  and  C11_15 
REMARK    6  A    between atoms: C11_15  and  N3_16 
ROOT
HETATM    1  C2  UNL     1      25.845  -0.071  54.243  1.00  0.00     0.126 C 
HETATM    2  C3  UNL     1      27.192   0.043  54.420  1.00  0.00     0.077 C 
HETATM    3  C4  UNL     1      28.006  -0.529  53.188  1.00  0.00     0.121 C 
HETATM    4  C5  UNL     1      27.722   0.886  52.615  1.00  0.00     0.044 C 
HETATM    5  N1  UNL     1      28.789   1.601  52.933  1.00  0.00    -0.246 NA
HETATM    6  C6  UNL     1      29.087   1.430  54.448  1.00  0.00     0.233 C 
HETATM    7  N2  UNL     1      28.269   0.604  55.242  1.00  0.00    -0.243 NA
HETATM    8  C7  UNL     1      26.363   0.955  52.100  1.00  0.00     0.067 C 
HETATM    9  C8  UNL     1      25.369   0.450  52.890  1.00  0.00     0.106 C 
ENDROOT
BRANCH   9  10
HETATM   10  O2  UNL     1      24.080   0.257  52.867  1.00  0.00    -0.348 OA
BRANCH  10  11
HETATM   11  C9  UNL     1      22.945   1.030  53.159  1.00  0.00     0.177 C 
BRANCH  11  12
HETATM   12  C10 UNL     1      22.858   2.158  52.183  1.00  0.00     0.057 C 
BRANCH  12  13
HETATM   13  C11 UNL     1      21.647   2.989  52.135  1.00  0.00     0.274 C 
BRANCH  13  14
HETATM   14  N3  UNL     1      21.800   4.416  52.183  1.00  0.00     0.091 N 
HETATM   15  C12 UNL     1      21.349   5.026  50.915  1.00  0.00     0.302 C 
HETATM   16  C13 UNL     1      21.618   6.524  51.023  1.00  0.00     0.302 C 
HETATM   17  N4  UNL     1      23.047   6.779  50.879  1.00  0.00     0.087 N 
HETATM   18  C14 UNL     1      23.358   7.150  49.499  1.00  0.00     0.310 C 
HETATM   19  C15 UNL     1      23.758   5.564  51.189  1.00  0.00     0.302 C 
HETATM   20  C16 UNL     1      23.217   4.790  52.357  1.00  0.00     0.302 C 
ENDBRANCH  13  14
ENDBRANCH  12  13
ENDBRANCH  11  12
ENDBRANCH  10  11
ENDBRANCH   9  10
BRANCH   1  21
HETATM   21  O1  UNL     1      25.537  -0.632  55.455  1.00  0.00    -0.351 OA
HETATM   22  C1  UNL     1      24.384  -1.431  55.542  1.00  0.00     0.210 C 
ENDBRANCH   1  21
TORSDOF 6
ENDMDL
MODEL 5
REMARK VINA RESULT:      -6.1      1.700      2.121
REMARK  6 active torsions:
REMARK  status: ('A' for Active; 'I' for Inactive)
REMARK    1  A    between atoms: O1_2  and  C2_3 
REMARK    2  A    between atoms: C8_11  and  O2_12 
REMARK    3  A    between atoms: O2_12  and  C9_13 
REMARK    4  A    between atoms: C9_13  and  C10_14 
REMARK    5  A    between atoms: C10_14  and  C11_15 
REMARK    6  A    between atoms: C11_15  and  N3_16 
ROOT
HETATM    1  C2  UNL     1      23.572  -0.180  53.356  1.00  0.00     0.126 C 
HETATM    2  C3  UNL     1      24.819  -0.431  53.847  1.00  0.00     0.077 C 
HETATM    3  C4  UNL     1      25.942  -0.255  52.745  1.00  0.00     0.121 C 
HETATM    4  C5  UNL     1      25.819   1.236  53.160  1.00  0.00     0.044 C 
HETATM    5  N1  UNL     1      26.755   1.410  54.080  1.00  0.00    -0.246 NA
HETATM    6  C6  UNL     1      26.627   0.298  55.157  1.00  0.00     0.233 C 
HETATM    7  N2  UNL     1      25.627  -0.686  55.044  1.00  0.00    -0.243 NA
HETATM    8  C7  UNL     1      24.653   1.837  52.532  1.00  0.00     0.067 C 
HETATM    9  C8  UNL     1      23.483   1.133  52.582  1.00  0.00     0.106 C 
ENDROOT
BRANCH   9  10
HETATM   10  O2  UNL     1      22.250   1.219  52.167  1.00  0.00    -0.348 OA
BRANCH  10  11
HETATM   11  C9  UNL     1      21.378   0.395  51.438  1.00  0.00     0.177 C 
BRANCH  11  12
HETATM   12  C10 UNL     1      20.959   1.109  50.193  1.00  0.00     0.057 C 
BRANCH  12  13
HETATM   13  C11 UNL     1      21.964   1.462  49.181  1.00  0.00     0.274 C 
BRANCH  13  14
HETATM   14  N3  UNL     1      22.204   2.854  48.920  1.00  0.00     0.091 N 
HETATM   15  C12 UNL     1      23.614   3.195  49.203  1.00  0.00     0.302 C 
HETATM   16  C13 UNL     1      23.762   4.697  48.975  1.00  0.00     0.302 C 
HETATM   17  N4  UNL     1      23.147   5.424  50.080  1.00  0.00     0.087 N 
HETATM   18  C14 UNL     1      24.161   5.799  51.065  1.00  0.00     0.310 C 
HETATM   19  C15 UNL     1      22.197   4.552  50.725  1.00  0.00     0.302 C 
HETATM   20  C16 UNL     1      21.375   3.707  49.794  1.00  0.00     0.302 C 
ENDBRANCH  13  14
ENDBRANCH  12  13
ENDBRANCH  11  12
ENDBRANCH  10  11
ENDBRANCH   9  10
BRANCH   1  21
HETATM   21  O1  UNL     1      22.947  -1.303  53.830  1.00  0.00    -0.351 OA
HETATM   22  C1  UNL     1      21.999  -1.151  54.857  1.00  0.00     0.210 C 
ENDBRANCH   1  21
TORSDOF 6
ENDMDL
MODEL 6
REMARK VINA RESULT:      -5.9      1.752      3.405
REMARK  6 active torsions:
REMARK  status: ('A' for Active; 'I' for Inactive)
REMARK    1  A    between atoms: O1_2  and  C2_3 
REMARK    2  A    between atoms: C8_11  and  O2_12 
REMARK    3  A    between atoms: O2_12  and  C9_13 
REMARK    4  A    between atoms: C9_13  and  C10_14 
REMARK    5  A    between atoms: C10_14  and  C11_15 
REMARK    6  A    between atoms: C11_15  and  N3_16 
ROOT
HETATM    1  C2  UNL     1      24.901   0.542  53.111  1.00  0.00     0.126 C 
HETATM    2  C3  UNL     1      25.952  -0.094  53.703  1.00  0.00     0.077 C 
HETATM    3  C4  UNL     1      26.900  -0.793  52.644  1.00  0.00     0.121 C 
HETATM    4  C5  UNL     1      27.505   0.634  52.558  1.00  0.00     0.044 C 
HETATM    5  N1  UNL     1      28.519   0.625  53.409  1.00  0.00    -0.246 NA
HETATM    6  C6  UNL     1      28.033   0.076  54.778  1.00  0.00     0.233 C 
HETATM    7  N2  UNL     1      26.693  -0.321  54.947  1.00  0.00    -0.243 NA
HETATM    8  C7  UNL     1      26.666   1.485  51.728  1.00  0.00     0.067 C 
HETATM    9  C8  UNL     1      25.319   1.450  51.957  1.00  0.00     0.106 C 
ENDROOT
BRANCH   9  10
HETATM   10  O2  UNL     1      24.216   1.964  51.490  1.00  0.00    -0.348 OA
BRANCH  10  11
HETATM   11  C9  UNL     1      23.399   3.056  51.822  1.00  0.00     0.177 C 
BRANCH  11  12
HETATM   12  C10 UNL     1      22.427   3.295  50.712  1.00  0.00     0.057 C 
BRANCH  12  13
HETATM   13  C11 UNL     1      21.040   3.666  51.023  1.00  0.00     0.274 C 
BRANCH  13  14
HETATM   14  N3  UNL     1      19.993   2.760  50.641  1.00  0.00     0.091 N 
HETATM   15  C12 UNL     1      19.064   2.540  51.769  1.00  0.00     0.302 C 
HETATM   16  C13 UNL     1      18.036   1.514  51.303  1.00  0.00     0.302 C 
HETATM   17  N4  UNL     1      18.643   0.188  51.273  1.00  0.00     0.087 N 
HETATM   18  C14 UNL     1      18.334  -0.538  52.505  1.00  0.00     0.310 C 
HETATM   19  C15 UNL     1      20.074   0.346  51.192  1.00  0.00     0.302 C 
HETATM   20  C16 UNL     1      20.543   1.440  50.276  1.00  0.00     0.302 C 
ENDBRANCH  13  14
ENDBRANCH  12  13
ENDBRANCH  11  12
ENDBRANCH  10  11
ENDBRANCH   9  10
BRANCH   1  21
HETATM   21  O1  UNL     1      23.900   0.032  53.894  1.00  0.00    -0.351 OA
HETATM   22  C1  UNL     1      22.970  -0.839  53.300  1.00  0.00     0.210 C 
ENDBRANCH   1  21
TORSDOF 6
ENDMDL
MODEL 7
REMARK VINA RESULT:      -5.8      1.998      3.061
REMARK  6 active torsions:
REMARK  status: ('A' for Active; 'I' for Inactive)
REMARK    1  A    between atoms: O1_2  and  C2_3 
REMARK    2  A    between atoms: C8_11  and  O2_12 
REMARK    3  A    between atoms: O2_12  and  C9_13 
REMARK    4  A    between atoms: C9_13  and  C10_14 
REMARK    5  A    between atoms: C10_14  and  C11_15 
REMARK    6  A    between atoms: C11_15  and  N3_16 
ROOT
HETATM    1  C2  UNL     1      24.594   0.430  53.109  1.00  0.00     0.126 C 
HETATM    2  C3  UNL     1      25.697  -0.157  53.654  1.00  0.00     0.077 C 
HETATM    3  C4  UNL     1      26.646  -0.782  52.551  1.00  0.00     0.121 C 
HETATM    4  C5  UNL     1      27.168   0.678  52.474  1.00  0.00     0.044 C 
HETATM    5  N1  UNL     1      28.209   0.709  53.291  1.00  0.00    -0.246 NA
HETATM    6  C6  UNL     1      27.800   0.109  54.664  1.00  0.00     0.233 C 
HETATM    7  N2  UNL     1      26.491  -0.365  54.869  1.00  0.00    -0.243 NA
HETATM    8  C7  UNL     1      26.257   1.496  51.689  1.00  0.00     0.067 C 
HETATM    9  C8  UNL     1      24.922   1.382  51.961  1.00  0.00     0.106 C 
ENDROOT
BRANCH   9  10
HETATM   10  O2  UNL     1      23.777   1.842  51.541  1.00  0.00    -0.348 OA
BRANCH  10  11
HETATM   11  C9  UNL     1      23.200   2.103  50.289  1.00  0.00     0.177 C 
BRANCH  11  12
HETATM   12  C10 UNL     1      23.959   3.204  49.621  1.00  0.00     0.057 C 
BRANCH  12  13
HETATM   13  C11 UNL     1      23.677   4.603  49.974  1.00  0.00     0.274 C 
BRANCH  13  14
HETATM   14  N3  UNL     1      22.307   5.033  50.002  1.00  0.00     0.091 N 
HETATM   15  C12 UNL     1      21.993   5.832  48.799  1.00  0.00     0.302 C 
HETATM   16  C13 UNL     1      20.552   6.310  48.948  1.00  0.00     0.302 C 
HETATM   17  N4  UNL     1      20.490   7.385  49.932  1.00  0.00     0.087 N 
HETATM   18  C14 UNL     1      20.512   8.685  49.263  1.00  0.00     0.310 C 
HETATM   19  C15 UNL     1      21.654   7.294  50.778  1.00  0.00     0.302 C 
HETATM   20  C16 UNL     1      22.050   5.899  51.169  1.00  0.00     0.302 C 
ENDBRANCH  13  14
ENDBRANCH  12  13
ENDBRANCH  11  12
ENDBRANCH  10  11
ENDBRANCH   9  10
BRANCH   1  21
HETATM   21  O1  UNL     1      23.649  -0.149  53.914  1.00  0.00    -0.351 OA
HETATM   22  C1  UNL     1      22.702  -1.000  53.319  1.00  0.00     0.210 C 
ENDBRANCH   1  21
TORSDOF 6
ENDMDL
MODEL 8
REMARK VINA RESULT:      -5.8      2.469      4.744
REMARK  6 active torsions:
REMARK  status: ('A' for Active; 'I' for Inactive)
REMARK    1  A    between atoms: O1_2  and  C2_3 
REMARK    2  A    between atoms: C8_11  and  O2_12 
REMARK    3  A    between atoms: O2_12  and  C9_13 
REMARK    4  A    between atoms: C9_13  and  C10_14 
REMARK    5  A    between atoms: C10_14  and  C11_15 
REMARK    6  A    between atoms: C11_15  and  N3_16 
ROOT
HETATM    1  C2  UNL     1      23.472   1.243  52.578  1.00  0.00     0.126 C 
HETATM    2  C3  UNL     1      22.370   0.562  53.002  1.00  0.00     0.077 C 
HETATM    3  C4  UNL     1      22.551  -1.006  52.871  1.00  0.00     0.121 C 
HETATM    4  C5  UNL     1      23.259  -0.826  54.241  1.00  0.00     0.044 C 
HETATM    5  N1  UNL     1      22.316  -1.053  55.142  1.00  0.00    -0.246 NA
HETATM    6  C6  UNL     1      21.067  -0.195  54.803  1.00  0.00     0.233 C 
HETATM    7  N2  UNL     1      21.070   0.647  53.675  1.00  0.00    -0.243 NA
HETATM    8  C7  UNL     1      24.611  -0.328  54.045  1.00  0.00     0.067 C 
HETATM    9  C8  UNL     1      24.774   0.716  53.178  1.00  0.00     0.106 C 
ENDROOT
BRANCH   9  10
HETATM   10  O2  UNL     1      25.724   1.449  52.668  1.00  0.00    -0.348 OA
BRANCH  10  11
HETATM   11  C9  UNL     1      26.423   1.480  51.452  1.00  0.00     0.177 C 
BRANCH  11  12
HETATM   12  C10 UNL     1      26.512   2.895  50.976  1.00  0.00     0.057 C 
BRANCH  12  13
HETATM   13  C11 UNL     1      25.648   3.351  49.879  1.00  0.00     0.274 C 
BRANCH  13  14
HETATM   14  N3  UNL     1      25.186   4.711  49.898  1.00  0.00     0.091 N 
HETATM   15  C12 UNL     1      24.501   5.004  51.174  1.00  0.00     0.302 C 
HETATM   16  C13 UNL     1      23.979   6.435  51.079  1.00  0.00     0.302 C 
HETATM   17  N4  UNL     1      22.813   6.475  50.203  1.00  0.00     0.087 N 
HETATM   18  C14 UNL     1      21.585   6.422  50.995  1.00  0.00     0.310 C 
HETATM   19  C15 UNL     1      22.847   5.315  49.348  1.00  0.00     0.302 C 
HETATM   20  C16 UNL     1      24.206   4.952  48.822  1.00  0.00     0.302 C 
ENDBRANCH  13  14
ENDBRANCH  12  13
ENDBRANCH  11  12
ENDBRANCH  10  11
ENDBRANCH   9  10
BRANCH   1  21
HETATM   21  O1  UNL     1      22.841   2.146  51.763  1.00  0.00    -0.351 OA
HETATM   22  C1  UNL     1      22.501   1.739  50.461  1.00  0.00     0.210 C 
ENDBRANCH   1  21
TORSDOF 6
ENDMDL
MODEL 9
REMARK VINA RESULT:      -5.7      1.787      2.553
REMARK  6 active torsions:
REMARK  status: ('A' for Active; 'I' for Inactive)
REMARK    1  A    between atoms: O1_2  and  C2_3 
REMARK    2  A    between atoms: C8_11  and  O2_12 
REMARK    3  A    between atoms: O2_12  and  C9_13 
REMARK    4  A    between atoms: C9_13  and  C10_14 
REMARK    5  A    between atoms: C10_14  and  C11_15 
REMARK    6  A    between atoms: C11_15  and  N3_16 
ROOT
HETATM    1  C2  UNL     1      24.670   0.383  53.134  1.00  0.00     0.126 C 
HETATM    2  C3  UNL     1      25.750  -0.207  53.720  1.00  0.00     0.077 C 
HETATM    3  C4  UNL     1      26.707  -0.888  52.657  1.00  0.00     0.121 C 
HETATM    4  C5  UNL     1      27.260   0.558  52.542  1.00  0.00     0.044 C 
HETATM    5  N1  UNL     1      28.286   0.596  53.377  1.00  0.00    -0.246 NA
HETATM    6  C6  UNL     1      27.839   0.051  54.762  1.00  0.00     0.233 C 
HETATM    7  N2  UNL     1      26.517  -0.390  54.956  1.00  0.00    -0.243 NA
HETATM    8  C7  UNL     1      26.381   1.367  51.712  1.00  0.00     0.067 C 
HETATM    9  C8  UNL     1      25.039   1.288  51.961  1.00  0.00     0.106 C 
ENDROOT
BRANCH   9  10
HETATM   10  O2  UNL     1      23.912   1.756  51.504  1.00  0.00    -0.348 OA
BRANCH  10  11
HETATM   11  C9  UNL     1      23.055   2.814  51.842  1.00  0.00     0.177 C 
BRANCH  11  12
HETATM   12  C10 UNL     1      21.662   2.290  51.979  1.00  0.00     0.057 C 
BRANCH  12  13
HETATM   13  C11 UNL     1      21.125   1.371  50.965  1.00  0.00     0.274 C 
BRANCH  13  14
HETATM   14  N3  UNL     1      20.276   1.911  49.940  1.00  0.00     0.091 N 
HETATM   15  C12 UNL     1      21.053   2.162  48.708  1.00  0.00     0.302 C 
HETATM   16  C13 UNL     1      20.098   2.802  47.705  1.00  0.00     0.302 C 
HETATM   17  N4  UNL     1      19.849   4.190  48.080  1.00  0.00     0.087 N 
HETATM   18  C14 UNL     1      20.728   5.082  47.325  1.00  0.00     0.310 C 
HETATM   19  C15 UNL     1      20.151   4.342  49.482  1.00  0.00     0.302 C 
HETATM   20  C16 UNL     1      19.704   3.206  50.356  1.00  0.00     0.302 C 
ENDBRANCH  13  14
ENDBRANCH  12  13
ENDBRANCH  11  12
ENDBRANCH  10  11
ENDBRANCH   9  10
BRANCH   1  21
HETATM   21  O1  UNL     1      23.698  -0.150  53.940  1.00  0.00    -0.351 OA
HETATM   22  C1  UNL     1      22.755  -1.015  53.358  1.00  0.00     0.210 C 
ENDBRANCH   1  21
TORSDOF 6
ENDMDL
