MODEL 1
REMARK VINA RESULT:      -7.2      0.000      0.000
REMARK  6 active torsions:
REMARK  status: ('A' for Active; 'I' for Inactive)
REMARK    1  A    between atoms: O1_2  and  C2_3 
REMARK    2  A    between atoms: C2_3  and  C14_18 
REMARK    3  A    between atoms: C3_4  and  C4_5 
REMARK    4  A    between atoms: C6_7  and  N1_8 
REMARK    5  A    between atoms: N1_8  and  C7_9 
REMARK    6  A    between atoms: C7_9  and  C8_10 
ROOT
HETATM    1  C4  UNL     1      25.290   1.935  53.706  1.00  0.00     0.135 A 
HETATM    2  C5  UNL     1      24.017   2.013  52.941  1.00  0.00     0.050 A 
HETATM    3  C6  UNL     1      24.364   2.939  52.030  1.00  0.00     0.096 A 
HETATM    4  N2  UNL     1      25.642   2.947  52.698  1.00  0.00    -0.365 N 
HETATM    5  H16 UNL     1      26.447   3.558  52.403  1.00  0.00     0.162 HD
ENDROOT
BRANCH   3   6
HETATM    6  N1  UNL     1      23.706   3.584  50.922  1.00  0.00    -0.373 N 
HETATM    7  H7  UNL     1      22.929   4.040  51.415  1.00  0.00     0.161 HD
BRANCH   6   8
HETATM    8  C7  UNL     1      24.473   3.251  49.740  1.00  0.00     0.158 C 
BRANCH   8   9
HETATM    9  C8  UNL     1      25.341   4.364  49.273  1.00  0.00    -0.024 A 
HETATM   10  C9  UNL     1      24.904   5.556  48.980  1.00  0.00     0.120 A 
HETATM   11  F1  UNL     1      23.629   5.983  49.044  1.00  0.00    -0.206 F 
HETATM   12  C10 UNL     1      25.851   6.557  48.533  1.00  0.00     0.038 A 
HETATM   13  C11 UNL     1      27.130   6.200  48.447  1.00  0.00    -0.023 A 
HETATM   14  C12 UNL     1      27.726   4.893  48.751  1.00  0.00     0.031 A 
HETATM   15  C13 UNL     1      26.738   3.875  49.210  1.00  0.00     0.043 A 
ENDBRANCH   8   9
ENDBRANCH   6   8
ENDBRANCH   3   6
BRANCH   1  16
HETATM   16  C3  UNL     1      26.068   0.705  53.456  1.00  0.00     0.042 C 
HETATM   17  C2  UNL     1      27.337   0.600  53.811  1.00  0.00     0.099 C 
BRANCH  17  18
HETATM   18  O1  UNL     1      27.928   1.691  54.434  1.00  0.00    -0.353 OA
HETATM   19  C1  UNL     1      28.888   2.451  53.716  1.00  0.00     0.210 C 
ENDBRANCH  17  18
BRANCH  17  20
HETATM   20  C14 UNL     1      28.074  -0.630  53.548  1.00  0.00     0.100 A 
HETATM   21  C15 UNL     1      29.331  -0.955  53.625  1.00  0.00     0.039 A 
HETATM   22  C16 UNL     1      29.066  -2.318  53.186  1.00  0.00     0.206 A 
HETATM   23  O2  UNL     1      27.740  -1.894  53.130  1.00  0.00    -0.345 OA
ENDBRANCH  17  20
ENDBRANCH   1  16
TORSDOF 6
ENDMDL
MODEL 2
REMARK VINA RESULT:      -7.2      1.386      1.857
REMARK  6 active torsions:
REMARK  status: ('A' for Active; 'I' for Inactive)
REMARK    1  A    between atoms: O1_2  and  C2_3 
REMARK    2  A    between atoms: C2_3  and  C14_18 
REMARK    3  A    between atoms: C3_4  and  C4_5 
REMARK    4  A    between atoms: C6_7  and  N1_8 
REMARK    5  A    between atoms: N1_8  and  C7_9 
REMARK    6  A    between atoms: C7_9  and  C8_10 
ROOT
HETATM    1  C4  UNL     1      24.350   2.536  53.328  1.00  0.00     0.135 A 
HETATM    2  C5  UNL     1      23.224   2.858  52.412  1.00  0.00     0.050 A 
HETATM    3  C6  UNL     1      23.825   3.780  51.640  1.00  0.00     0.096 A 
HETATM    4  N2  UNL     1      24.982   3.548  52.468  1.00  0.00    -0.365 N 
HETATM    5  H16 UNL     1      25.899   4.049  52.337  1.00  0.00     0.162 HD
ENDROOT
BRANCH   3   6
HETATM    6  N1  UNL     1      23.430   4.591  50.515  1.00  0.00    -0.373 N 
HETATM    7  H7  UNL     1      22.815   5.264  50.987  1.00  0.00     0.161 HD
BRANCH   6   8
HETATM    8  C7  UNL     1      24.095   4.034  49.356  1.00  0.00     0.158 C 
BRANCH   8   9
HETATM    9  C8  UNL     1      25.375   4.718  49.030  1.00  0.00    -0.024 A 
HETATM   10  C9  UNL     1      26.542   4.142  49.080  1.00  0.00     0.120 A 
HETATM   11  F1  UNL     1      26.795   2.866  49.425  1.00  0.00    -0.206 F 
HETATM   12  C10 UNL     1      27.719   4.916  48.739  1.00  0.00     0.038 A 
HETATM   13  C11 UNL     1      27.538   6.187  48.389  1.00  0.00    -0.023 A 
HETATM   14  C12 UNL     1      26.275   6.930  48.300  1.00  0.00     0.031 A 
HETATM   15  C13 UNL     1      25.076   6.119  48.653  1.00  0.00     0.043 A 
ENDBRANCH   8   9
ENDBRANCH   6   8
ENDBRANCH   3   6
BRANCH   1  16
HETATM   16  C3  UNL     1      24.974   1.222  53.077  1.00  0.00     0.042 C 
HETATM   17  C2  UNL     1      26.212   0.955  53.455  1.00  0.00     0.099 C 
BRANCH  17  18
HETATM   18  O1  UNL     1      26.920   1.956  54.106  1.00  0.00    -0.353 OA
HETATM   19  C1  UNL     1      28.196   2.327  53.606  1.00  0.00     0.210 C 
ENDBRANCH  17  18
BRANCH  17  20
HETATM   20  C14 UNL     1      26.795  -0.354  53.190  1.00  0.00     0.100 A 
HETATM   21  C15 UNL     1      26.551  -1.282  52.312  1.00  0.00     0.039 A 
HETATM   22  C16 UNL     1      27.603  -2.140  52.840  1.00  0.00     0.206 A 
HETATM   23  O2  UNL     1      27.804  -1.101  53.746  1.00  0.00    -0.345 OA
ENDBRANCH  17  20
ENDBRANCH   1  16
TORSDOF 6
ENDMDL
MODEL 3
REMARK VINA RESULT:      -7.0      3.230      7.377
REMARK  6 active torsions:
REMARK  status: ('A' for Active; 'I' for Inactive)
REMARK    1  A    between atoms: O1_2  and  C2_3 
REMARK    2  A    between atoms: C2_3  and  C14_18 
REMARK    3  A    between atoms: C3_4  and  C4_5 
REMARK    4  A    between atoms: C6_7  and  N1_8 
REMARK    5  A    between atoms: N1_8  and  C7_9 
REMARK    6  A    between atoms: C7_9  and  C8_10 
ROOT
HETATM    1  C4  UNL     1      25.455   2.885  50.773  1.00  0.00     0.135 A 
HETATM    2  C5  UNL     1      25.000   2.544  52.147  1.00  0.00     0.050 A 
HETATM    3  C6  UNL     1      26.190   2.522  52.773  1.00  0.00     0.096 A 
HETATM    4  N2  UNL     1      26.743   2.853  51.483  1.00  0.00    -0.365 N 
HETATM    5  H16 UNL     1      27.772   2.987  51.311  1.00  0.00     0.162 HD
ENDROOT
BRANCH   3   6
HETATM    6  N1  UNL     1      26.634   2.273  54.122  1.00  0.00    -0.373 N 
HETATM    7  H7  UNL     1      27.014   3.197  54.358  1.00  0.00     0.161 HD
BRANCH   6   8
HETATM    8  C7  UNL     1      26.314   0.891  54.410  1.00  0.00     0.158 C 
BRANCH   8   9
HETATM    9  C8  UNL     1      27.381  -0.057  53.993  1.00  0.00    -0.024 A 
HETATM   10  C9  UNL     1      28.633   0.060  54.334  1.00  0.00     0.120 A 
HETATM   11  F1  UNL     1      29.171   1.028  55.099  1.00  0.00    -0.206 F 
HETATM   12  C10 UNL     1      29.580  -0.930  53.863  1.00  0.00     0.038 A 
HETATM   13  C11 UNL     1      29.113  -1.915  53.100  1.00  0.00    -0.023 A 
HETATM   14  C12 UNL     1      27.730  -2.139  52.660  1.00  0.00     0.031 A 
HETATM   15  C13 UNL     1      26.769  -1.113  53.154  1.00  0.00     0.043 A 
ENDBRANCH   8   9
ENDBRANCH   6   8
ENDBRANCH   3   6
BRANCH   1  16
HETATM   16  C3  UNL     1      25.156   4.272  50.365  1.00  0.00     0.042 C 
HETATM   17  C2  UNL     1      25.925   4.929  49.516  1.00  0.00     0.099 C 
BRANCH  17  18
HETATM   18  O1  UNL     1      27.038   4.273  49.008  1.00  0.00    -0.353 OA
HETATM   19  C1  UNL     1      28.118   5.046  48.507  1.00  0.00     0.210 C 
ENDBRANCH  17  18
BRANCH  17  20
HETATM   20  C14 UNL     1      25.598   6.299  49.136  1.00  0.00     0.100 A 
HETATM   21  C15 UNL     1      24.881   6.817  48.183  1.00  0.00     0.039 A 
HETATM   22  C16 UNL     1      25.160   8.174  48.631  1.00  0.00     0.206 A 
HETATM   23  O2  UNL     1      25.909   7.544  49.623  1.00  0.00    -0.345 OA
ENDBRANCH  17  20
ENDBRANCH   1  16
TORSDOF 6
ENDMDL
MODEL 4
REMARK VINA RESULT:      -6.9      4.102      7.187
REMARK  6 active torsions:
REMARK  status: ('A' for Active; 'I' for Inactive)
REMARK    1  A    between atoms: O1_2  and  C2_3 
REMARK    2  A    between atoms: C2_3  and  C14_18 
REMARK    3  A    between atoms: C3_4  and  C4_5 
REMARK    4  A    between atoms: C6_7  and  N1_8 
REMARK    5  A    between atoms: N1_8  and  C7_9 
REMARK    6  A    between atoms: C7_9  and  C8_10 
ROOT
HETATM    1  C4  UNL     1      23.022   2.634  51.668  1.00  0.00     0.135 A 
HETATM    2  C5  UNL     1      24.394   2.203  51.289  1.00  0.00     0.050 A 
HETATM    3  C6  UNL     1      25.052   2.561  52.406  1.00  0.00     0.096 A 
HETATM    4  N2  UNL     1      23.768   3.016  52.877  1.00  0.00    -0.365 N 
HETATM    5  H16 UNL     1      23.619   3.456  53.821  1.00  0.00     0.162 HD
ENDROOT
BRANCH   3   6
HETATM    6  N1  UNL     1      26.420   2.491  52.857  1.00  0.00    -0.373 N 
HETATM    7  H7  UNL     1      26.854   3.164  52.214  1.00  0.00     0.161 HD
BRANCH   6   8
HETATM    8  C7  UNL     1      26.445   1.534  53.943  1.00  0.00     0.158 C 
BRANCH   8   9
HETATM    9  C8  UNL     1      27.425   0.436  53.733  1.00  0.00    -0.024 A 
HETATM   10  C9  UNL     1      28.666   0.482  54.128  1.00  0.00     0.120 A 
HETATM   11  F1  UNL     1      29.267   1.497  54.775  1.00  0.00    -0.206 F 
HETATM   12  C10 UNL     1      29.526  -0.655  53.864  1.00  0.00     0.038 A 
HETATM   13  C11 UNL     1      28.993  -1.694  53.226  1.00  0.00    -0.023 A 
HETATM   14  C12 UNL     1      27.616  -1.848  52.740  1.00  0.00     0.031 A 
HETATM   15  C13 UNL     1      26.746  -0.670  53.021  1.00  0.00     0.043 A 
ENDBRANCH   8   9
ENDBRANCH   6   8
ENDBRANCH   3   6
BRANCH   1  16
HETATM   16  C3  UNL     1      22.107   1.520  51.988  1.00  0.00     0.042 C 
HETATM   17  C2  UNL     1      20.898   1.730  52.477  1.00  0.00     0.099 C 
BRANCH  17  18
HETATM   18  O1  UNL     1      20.503   3.045  52.685  1.00  0.00    -0.353 OA
HETATM   19  C1  UNL     1      19.656   3.664  51.728  1.00  0.00     0.210 C 
ENDBRANCH  17  18
BRANCH  17  20
HETATM   20  C14 UNL     1      20.023   0.605  52.782  1.00  0.00     0.100 A 
HETATM   21  C15 UNL     1      19.041   0.036  52.146  1.00  0.00     0.039 A 
HETATM   22  C16 UNL     1      18.835  -0.934  53.213  1.00  0.00     0.206 A 
HETATM   23  O2  UNL     1      19.894  -0.272  53.830  1.00  0.00    -0.345 OA
ENDBRANCH  17  20
ENDBRANCH   1  16
TORSDOF 6
ENDMDL
MODEL 5
REMARK VINA RESULT:      -6.8      3.830      7.706
REMARK  6 active torsions:
REMARK  status: ('A' for Active; 'I' for Inactive)
REMARK    1  A    between atoms: O1_2  and  C2_3 
REMARK    2  A    between atoms: C2_3  and  C14_18 
REMARK    3  A    between atoms: C3_4  and  C4_5 
REMARK    4  A    between atoms: C6_7  and  N1_8 
REMARK    5  A    between atoms: N1_8  and  C7_9 
REMARK    6  A    between atoms: C7_9  and  C8_10 
ROOT
HETATM    1  C4  UNL     1      26.203   3.407  49.599  1.00  0.00     0.135 A 
HETATM    2  C5  UNL     1      24.985   2.864  50.256  1.00  0.00     0.050 A 
HETATM    3  C6  UNL     1      25.459   2.708  51.504  1.00  0.00     0.096 A 
HETATM    4  N2  UNL     1      26.696   3.225  50.972  1.00  0.00    -0.365 N 
HETATM    5  H16 UNL     1      27.566   3.356  51.550  1.00  0.00     0.162 HD
ENDROOT
BRANCH   3   6
HETATM    6  N1  UNL     1      24.921   2.234  52.755  1.00  0.00    -0.373 N 
HETATM    7  H7  UNL     1      24.747   3.130  53.226  1.00  0.00     0.161 HD
BRANCH   6   8
HETATM    8  C7  UNL     1      24.914   0.789  52.676  1.00  0.00     0.158 C 
BRANCH   8   9
HETATM    9  C8  UNL     1      23.759   0.169  53.377  1.00  0.00    -0.024 A 
HETATM   10  C9  UNL     1      23.871  -0.651  54.383  1.00  0.00     0.120 A 
HETATM   11  F1  UNL     1      25.016  -1.072  54.953  1.00  0.00    -0.206 F 
HETATM   12  C10 UNL     1      22.668  -1.191  54.983  1.00  0.00     0.038 A 
HETATM   13  C11 UNL     1      21.501  -0.814  54.466  1.00  0.00    -0.023 A 
HETATM   14  C12 UNL     1      21.262   0.098  53.341  1.00  0.00     0.031 A 
HETATM   15  C13 UNL     1      22.511   0.644  52.737  1.00  0.00     0.043 A 
ENDBRANCH   8   9
ENDBRANCH   6   8
ENDBRANCH   3   6
BRANCH   1  16
HETATM   16  C3  UNL     1      26.130   4.849  49.292  1.00  0.00     0.042 C 
HETATM   17  C2  UNL     1      27.154   5.504  48.774  1.00  0.00     0.099 C 
BRANCH  17  18
HETATM   18  O1  UNL     1      28.317   4.790  48.521  1.00  0.00    -0.353 OA
HETATM   19  C1  UNL     1      29.489   5.501  48.151  1.00  0.00     0.210 C 
ENDBRANCH  17  18
BRANCH  17  20
HETATM   20  C14 UNL     1      27.045   6.928  48.484  1.00  0.00     0.100 A 
HETATM   21  C15 UNL     1      26.539   7.605  47.496  1.00  0.00     0.039 A 
HETATM   22  C16 UNL     1      26.904   8.878  48.103  1.00  0.00     0.206 A 
HETATM   23  O2  UNL     1      27.423   8.083  49.123  1.00  0.00    -0.345 OA
ENDBRANCH  17  20
ENDBRANCH   1  16
TORSDOF 6
ENDMDL
MODEL 6
REMARK VINA RESULT:      -6.5      5.720      8.314
REMARK  6 active torsions:
REMARK  status: ('A' for Active; 'I' for Inactive)
REMARK    1  A    between atoms: O1_2  and  C2_3 
REMARK    2  A    between atoms: C2_3  and  C14_18 
REMARK    3  A    between atoms: C3_4  and  C4_5 
REMARK    4  A    between atoms: C6_7  and  N1_8 
REMARK    5  A    between atoms: N1_8  and  C7_9 
REMARK    6  A    between atoms: C7_9  and  C8_10 
ROOT
HETATM    1  C4  UNL     1      29.228   6.045  47.967  1.00  0.00     0.135 A 
HETATM    2  C5  UNL     1      30.483   5.268  47.788  1.00  0.00     0.050 A 
HETATM    3  C6  UNL     1      31.189   5.748  48.827  1.00  0.00     0.096 A 
HETATM    4  N2  UNL     1      30.023   6.553  49.095  1.00  0.00    -0.365 N 
HETATM    5  H16 UNL     1      29.959   7.232  49.897  1.00  0.00     0.162 HD
ENDROOT
BRANCH   3   6
HETATM    6  N1  UNL     1      32.506   5.517  49.366  1.00  0.00    -0.373 N 
HETATM    7  H7  UNL     1      32.269   4.918  50.166  1.00  0.00     0.161 HD
BRANCH   6   8
HETATM    8  C7  UNL     1      33.429   6.235  48.513  1.00  0.00     0.158 C 
BRANCH   8   9
HETATM    9  C8  UNL     1      33.927   5.420  47.373  1.00  0.00    -0.024 A 
HETATM   10  C9  UNL     1      33.782   5.752  46.122  1.00  0.00     0.120 A 
HETATM   11  F1  UNL     1      33.174   6.855  45.648  1.00  0.00    -0.206 F 
HETATM   12  C10 UNL     1      34.311   4.872  45.099  1.00  0.00     0.038 A 
HETATM   13  C11 UNL     1      34.925   3.762  45.501  1.00  0.00    -0.023 A 
HETATM   14  C12 UNL     1      35.142   3.295  46.876  1.00  0.00     0.031 A 
HETATM   15  C13 UNL     1      34.592   4.212  47.914  1.00  0.00     0.043 A 
ENDBRANCH   8   9
ENDBRANCH   6   8
ENDBRANCH   3   6
BRANCH   1  16
HETATM   16  C3  UNL     1      28.096   5.251  48.485  1.00  0.00     0.042 C 
HETATM   17  C2  UNL     1      26.943   5.810  48.808  1.00  0.00     0.099 C 
BRANCH  17  18
HETATM   18  O1  UNL     1      26.821   7.183  48.645  1.00  0.00    -0.353 OA
HETATM   19  C1  UNL     1      26.566   7.987  49.786  1.00  0.00     0.210 C 
ENDBRANCH  17  18
BRANCH  17  20
HETATM   20  C14 UNL     1      25.848   4.994  49.317  1.00  0.00     0.100 A 
HETATM   21  C15 UNL     1      24.570   4.959  49.076  1.00  0.00     0.039 A 
HETATM   22  C16 UNL     1      24.362   3.871  50.021  1.00  0.00     0.206 A 
HETATM   23  O2  UNL     1      25.737   3.969  50.224  1.00  0.00    -0.345 OA
ENDBRANCH  17  20
ENDBRANCH   1  16
TORSDOF 6
ENDMDL
MODEL 7
REMARK VINA RESULT:      -6.5      3.753      7.671
REMARK  6 active torsions:
REMARK  status: ('A' for Active; 'I' for Inactive)
REMARK    1  A    between atoms: O1_2  and  C2_3 
REMARK    2  A    between atoms: C2_3  and  C14_18 
REMARK    3  A    between atoms: C3_4  and  C4_5 
REMARK    4  A    between atoms: C6_7  and  N1_8 
REMARK    5  A    between atoms: N1_8  and  C7_9 
REMARK    6  A    between atoms: C7_9  and  C8_10 
ROOT
HETATM    1  C4  UNL     1      26.241   4.698  48.958  1.00  0.00     0.135 A 
HETATM    2  C5  UNL     1      25.204   4.074  49.822  1.00  0.00     0.050 A 
HETATM    3  C6  UNL     1      25.992   3.594  50.801  1.00  0.00     0.096 A 
HETATM    4  N2  UNL     1      27.080   4.161  50.042  1.00  0.00    -0.365 N 
HETATM    5  H16 UNL     1      28.088   4.103  50.340  1.00  0.00     0.162 HD
ENDROOT
BRANCH   3   6
HETATM    6  N1  UNL     1      25.779   2.857  52.021  1.00  0.00    -0.373 N 
HETATM    7  H7  UNL     1      25.484   3.621  52.641  1.00  0.00     0.161 HD
BRANCH   6   8
HETATM    8  C7  UNL     1      26.087   1.475  51.724  1.00  0.00     0.158 C 
BRANCH   8   9
HETATM    9  C8  UNL     1      27.191   0.928  52.557  1.00  0.00    -0.024 A 
HETATM   10  C9  UNL     1      27.451  -0.342  52.678  1.00  0.00     0.120 A 
HETATM   11  F1  UNL     1      26.791  -1.358  52.092  1.00  0.00    -0.206 F 
HETATM   12  C10 UNL     1      28.556  -0.752  53.522  1.00  0.00     0.038 A 
HETATM   13  C11 UNL     1      29.251   0.205  54.132  1.00  0.00    -0.023 A 
HETATM   14  C12 UNL     1      29.043   1.657  54.064  1.00  0.00     0.031 A 
HETATM   15  C13 UNL     1      27.904   2.060  53.192  1.00  0.00     0.043 A 
ENDBRANCH   8   9
ENDBRANCH   6   8
ENDBRANCH   3   6
BRANCH   1  16
HETATM   16  C3  UNL     1      26.261   6.173  49.010  1.00  0.00     0.042 C 
HETATM   17  C2  UNL     1      27.360   6.864  48.764  1.00  0.00     0.099 C 
BRANCH  17  18
HETATM   18  O1  UNL     1      28.513   6.158  48.450  1.00  0.00    -0.353 OA
HETATM   19  C1  UNL     1      29.447   6.737  47.552  1.00  0.00     0.210 C 
ENDBRANCH  17  18
BRANCH  17  20
HETATM   20  C14 UNL     1      27.341   8.321  48.824  1.00  0.00     0.100 A 
HETATM   21  C15 UNL     1      27.748   9.186  49.706  1.00  0.00     0.039 A 
HETATM   22  C16 UNL     1      27.309  10.311  48.892  1.00  0.00     0.206 A 
HETATM   23  O2  UNL     1      26.900   9.324  47.998  1.00  0.00    -0.345 OA
ENDBRANCH  17  20
ENDBRANCH   1  16
TORSDOF 6
ENDMDL
MODEL 8
REMARK VINA RESULT:      -6.5      3.935      6.045
REMARK  6 active torsions:
REMARK  status: ('A' for Active; 'I' for Inactive)
REMARK    1  A    between atoms: O1_2  and  C2_3 
REMARK    2  A    between atoms: C2_3  and  C14_18 
REMARK    3  A    between atoms: C3_4  and  C4_5 
REMARK    4  A    between atoms: C6_7  and  N1_8 
REMARK    5  A    between atoms: N1_8  and  C7_9 
REMARK    6  A    between atoms: C7_9  and  C8_10 
ROOT
HETATM    1  C4  UNL     1      25.577   1.850  52.330  1.00  0.00     0.135 A 
HETATM    2  C5  UNL     1      24.329   1.780  53.137  1.00  0.00     0.050 A 
HETATM    3  C6  UNL     1      23.432   1.657  52.143  1.00  0.00     0.096 A 
HETATM    4  N2  UNL     1      24.573   1.716  51.264  1.00  0.00    -0.365 N 
HETATM    5  H16 UNL     1      24.500   1.663  50.215  1.00  0.00     0.162 HD
ENDROOT
BRANCH   3   6
HETATM    6  N1  UNL     1      21.997   1.531  52.067  1.00  0.00    -0.373 N 
HETATM    7  H7  UNL     1      21.788   2.279  51.395  1.00  0.00     0.161 HD
BRANCH   6   8
HETATM    8  C7  UNL     1      21.634   0.447  52.954  1.00  0.00     0.158 C 
BRANCH   8   9
HETATM    9  C8  UNL     1      20.242  -0.035  52.750  1.00  0.00    -0.024 A 
HETATM   10  C9  UNL     1      19.670  -0.943  53.489  1.00  0.00     0.120 A 
HETATM   11  F1  UNL     1      20.215  -1.588  54.536  1.00  0.00    -0.206 F 
HETATM   12  C10 UNL     1      18.306  -1.330  53.189  1.00  0.00     0.038 A 
HETATM   13  C11 UNL     1      17.708  -0.730  52.163  1.00  0.00    -0.023 A 
HETATM   14  C12 UNL     1      18.258   0.299  51.271  1.00  0.00     0.031 A 
HETATM   15  C13 UNL     1      19.660   0.685  51.594  1.00  0.00     0.043 A 
ENDBRANCH   8   9
ENDBRANCH   6   8
ENDBRANCH   3   6
BRANCH   1  16
HETATM   16  C3  UNL     1      26.399   0.625  52.384  1.00  0.00     0.042 C 
HETATM   17  C2  UNL     1      27.404   0.497  53.233  1.00  0.00     0.099 C 
BRANCH  17  18
HETATM   18  O1  UNL     1      27.671   1.560  54.084  1.00  0.00    -0.353 OA
HETATM   19  C1  UNL     1      28.695   2.478  53.733  1.00  0.00     0.210 C 
ENDBRANCH  17  18
BRANCH  17  20
HETATM   20  C14 UNL     1      28.194  -0.728  53.257  1.00  0.00     0.100 A 
HETATM   21  C15 UNL     1      29.468  -0.970  53.355  1.00  0.00     0.039 A 
HETATM   22  C16 UNL     1      29.259  -2.410  53.290  1.00  0.00     0.206 A 
HETATM   23  O2  UNL     1      27.912  -2.069  53.190  1.00  0.00    -0.345 OA
ENDBRANCH  17  20
ENDBRANCH   1  16
TORSDOF 6
ENDMDL
MODEL 9
REMARK VINA RESULT:      -6.5      2.622      3.836
REMARK  6 active torsions:
REMARK  status: ('A' for Active; 'I' for Inactive)
REMARK    1  A    between atoms: O1_2  and  C2_3 
REMARK    2  A    between atoms: C2_3  and  C14_18 
REMARK    3  A    between atoms: C3_4  and  C4_5 
REMARK    4  A    between atoms: C6_7  and  N1_8 
REMARK    5  A    between atoms: N1_8  and  C7_9 
REMARK    6  A    between atoms: C7_9  and  C8_10 
ROOT
HETATM    1  C4  UNL     1      24.985   2.505  52.832  1.00  0.00     0.135 A 
HETATM    2  C5  UNL     1      24.602   3.592  51.893  1.00  0.00     0.050 A 
HETATM    3  C6  UNL     1      25.284   3.194  50.805  1.00  0.00     0.096 A 
HETATM    4  N2  UNL     1      25.722   2.093  51.627  1.00  0.00    -0.365 N 
HETATM    5  H16 UNL     1      26.367   1.334  51.286  1.00  0.00     0.162 HD
ENDROOT
BRANCH   3   6
HETATM    6  N1  UNL     1      25.454   3.690  49.462  1.00  0.00    -0.373 N 
HETATM    7  H7  UNL     1      24.487   3.626  49.124  1.00  0.00     0.161 HD
BRANCH   6   8
HETATM    8  C7  UNL     1      26.860   4.004  49.317  1.00  0.00     0.158 C 
BRANCH   8   9
HETATM    9  C8  UNL     1      27.102   5.330  48.687  1.00  0.00    -0.024 A 
HETATM   10  C9  UNL     1      28.261   5.724  48.242  1.00  0.00     0.120 A 
HETATM   11  F1  UNL     1      29.412   5.027  48.268  1.00  0.00    -0.206 F 
HETATM   12  C10 UNL     1      28.370   7.041  47.649  1.00  0.00     0.038 A 
HETATM   13  C11 UNL     1      27.267   7.784  47.591  1.00  0.00    -0.023 A 
HETATM   14  C12 UNL     1      25.919   7.439  48.062  1.00  0.00     0.031 A 
HETATM   15  C13 UNL     1      25.825   6.080  48.668  1.00  0.00     0.043 A 
ENDBRANCH   8   9
ENDBRANCH   6   8
ENDBRANCH   3   6
BRANCH   1  16
HETATM   16  C3  UNL     1      23.906   1.534  53.102  1.00  0.00     0.042 C 
HETATM   17  C2  UNL     1      24.148   0.362  53.663  1.00  0.00     0.099 C 
BRANCH  17  18
HETATM   18  O1  UNL     1      25.462   0.063  53.997  1.00  0.00    -0.353 OA
HETATM   19  C1  UNL     1      26.107  -1.016  53.337  1.00  0.00     0.210 C 
ENDBRANCH  17  18
BRANCH  17  20
HETATM   20  C14 UNL     1      23.057  -0.572  53.914  1.00  0.00     0.100 A 
HETATM   21  C15 UNL     1      22.087  -1.034  53.181  1.00  0.00     0.039 A 
HETATM   22  C16 UNL     1      21.573  -1.849  54.272  1.00  0.00     0.206 A 
HETATM   23  O2  UNL     1      22.637  -1.310  54.992  1.00  0.00    -0.345 OA
ENDBRANCH  17  20
ENDBRANCH   1  16
TORSDOF 6
ENDMDL
