MODEL 1
REMARK VINA RESULT:      -9.0      0.000      0.000
REMARK  7 active torsions:
REMARK  status: ('A' for Active; 'I' for Inactive)
REMARK    1  A    between atoms: C2_2  and  C3_3 
REMARK       I    between atoms: C3_3  and  N1_5 
REMARK    2  A    between atoms: C6_8  and  N2_9 
REMARK    3  A    between atoms: N2_9  and  C7_10 
REMARK    4  A    between atoms: C15_22  and  O2_23 
REMARK    5  A    between atoms: O2_23  and  C16_24 
REMARK    6  A    between atoms: C16_24  and  C17_25 
REMARK    7  A    between atoms: C17_25  and  C18_26 
ROOT
HETATM    1  C3  UNL     1      26.691  -0.818  53.232  1.00  0.00     0.242 C 
HETATM    2  O1  UNL     1      25.891  -1.153  54.136  1.00  0.00    -0.268 OA
HETATM    3  N1  UNL     1      25.988   0.174  52.502  1.00  0.00    -0.342 N 
HETATM    4  C4  UNL     1      24.669   0.389  53.103  1.00  0.00     0.170 C 
HETATM    5  C5  UNL     1      24.178   1.700  52.540  1.00  0.00     0.033 A 
HETATM    6  C6  UNL     1      22.794   1.739  52.768  1.00  0.00     0.139 A 
HETATM    7  N3  UNL     1      22.074   2.819  52.341  1.00  0.00    -0.224 NA
HETATM    8  C13 UNL     1      22.740   3.823  51.705  1.00  0.00     0.235 A 
HETATM    9  N4  UNL     1      24.052   3.752  51.508  1.00  0.00    -0.243 NA
HETATM   10  C14 UNL     1      24.829   2.735  51.892  1.00  0.00     0.078 A 
HETATM   11  C15 UNL     1      26.261   2.428  51.791  1.00  0.00     0.192 C 
HETATM   12  C22 UNL     1      26.375   0.934  51.339  1.00  0.00     0.164 C 
ENDROOT
BRANCH   6  13
HETATM   13  N2  UNL     1      21.953   0.800  53.401  1.00  0.00    -0.340 N 
HETATM   14  H6  UNL     1      22.261   0.397  54.307  1.00  0.00     0.167 HD
BRANCH  13  15
HETATM   15  C7  UNL     1      20.704   0.361  52.884  1.00  0.00     0.035 A 
HETATM   16  C8  UNL     1      20.105   0.879  51.749  1.00  0.00     0.032 A 
HETATM   17  C9  UNL     1      18.888   0.426  51.272  1.00  0.00     0.046 A 
HETATM   18  C10 UNL     1      18.210  -0.583  51.927  1.00  0.00     0.138 A 
HETATM   19  F1  UNL     1      17.017  -1.067  51.509  1.00  0.00    -0.204 F 
HETATM   20  C11 UNL     1      18.781  -1.128  53.073  1.00  0.00     0.074 A 
HETATM   21 CL1  UNL     1      17.952  -2.422  53.946  1.00  0.00    -0.081 Cl
HETATM   22  C12 UNL     1      19.999  -0.655  53.526  1.00  0.00     0.056 A 
ENDBRANCH  13  15
ENDBRANCH   6  13
BRANCH  11  23
HETATM   23  O2  UNL     1      27.027   3.195  50.965  1.00  0.00    -0.378 OA
BRANCH  23  24
HETATM   24  C16 UNL     1      26.695   3.289  49.660  1.00  0.00     0.171 C 
BRANCH  24  25
HETATM   25  C17 UNL     1      27.186   4.448  48.906  1.00  0.00     0.064 C 
BRANCH  25  26
HETATM   26  C18 UNL     1      26.430   5.720  48.956  1.00  0.00     0.246 C 
HETATM   27  C19 UNL     1      27.112   6.941  48.481  1.00  0.00     0.203 C 
HETATM   28  O3  UNL     1      26.272   8.043  48.570  1.00  0.00    -0.387 OA
HETATM   29  C20 UNL     1      24.936   7.714  48.791  1.00  0.00     0.197 C 
HETATM   30  C21 UNL     1      24.761   6.920  50.065  1.00  0.00     0.296 C 
HETATM   31  N5  UNL     1      25.855   5.987  50.268  1.00  0.00     0.092 N 
HETATM   32  H23 UNL     1      26.572   6.468  50.851  1.00  0.00     0.316 HD
ENDBRANCH  25  26
ENDBRANCH  24  25
ENDBRANCH  23  24
ENDBRANCH  11  23
BRANCH   1  33
HETATM   33  C2  UNL     1      28.009  -1.411  53.099  1.00  0.00     0.064 C 
HETATM   34  C1  UNL     1      29.080  -0.794  53.539  1.00  0.00     0.017 C 
ENDBRANCH   1  33
TORSDOF 7
ENDMDL
MODEL 2
REMARK VINA RESULT:      -8.9      3.630      5.767
REMARK  7 active torsions:
REMARK  status: ('A' for Active; 'I' for Inactive)
REMARK    1  A    between atoms: C2_2  and  C3_3 
REMARK       I    between atoms: C3_3  and  N1_5 
REMARK    2  A    between atoms: C6_8  and  N2_9 
REMARK    3  A    between atoms: N2_9  and  C7_10 
REMARK    4  A    between atoms: C15_22  and  O2_23 
REMARK    5  A    between atoms: O2_23  and  C16_24 
REMARK    6  A    between atoms: C16_24  and  C17_25 
REMARK    7  A    between atoms: C17_25  and  C18_26 
ROOT
HETATM    1  C3  UNL     1      26.538   4.301  49.375  1.00  0.00     0.242 C 
HETATM    2  O1  UNL     1      27.178   3.446  50.028  1.00  0.00    -0.268 OA
HETATM    3  N1  UNL     1      25.181   4.031  49.690  1.00  0.00    -0.342 N 
HETATM    4  C4  UNL     1      25.107   2.908  50.628  1.00  0.00     0.170 C 
HETATM    5  C5  UNL     1      23.714   2.958  51.207  1.00  0.00     0.033 A 
HETATM    6  C6  UNL     1      23.476   1.701  51.784  1.00  0.00     0.139 A 
HETATM    7  N3  UNL     1      22.270   1.454  52.377  1.00  0.00    -0.224 NA
HETATM    8  C13 UNL     1      21.341   2.450  52.382  1.00  0.00     0.235 A 
HETATM    9  N4  UNL     1      21.603   3.628  51.826  1.00  0.00    -0.243 NA
HETATM   10  C14 UNL     1      22.752   3.953  51.228  1.00  0.00     0.078 A 
HETATM   11  C15 UNL     1      23.270   5.151  50.555  1.00  0.00     0.192 C 
HETATM   12  C22 UNL     1      23.968   4.669  49.241  1.00  0.00     0.164 C 
ENDROOT
BRANCH   6  13
HETATM   13  N2  UNL     1      24.314   0.570  51.868  1.00  0.00    -0.340 N 
HETATM   14  H6  UNL     1      24.121  -0.234  51.240  1.00  0.00     0.167 HD
BRANCH  13  15
HETATM   15  C7  UNL     1      25.413   0.448  52.761  1.00  0.00     0.035 A 
HETATM   16  C8  UNL     1      25.592   1.231  53.889  1.00  0.00     0.032 A 
HETATM   17  C9  UNL     1      26.674   1.084  54.737  1.00  0.00     0.046 A 
HETATM   18  C10 UNL     1      27.640   0.130  54.484  1.00  0.00     0.138 A 
HETATM   19  F1  UNL     1      28.720  -0.061  55.277  1.00  0.00    -0.204 F 
HETATM   20  C11 UNL     1      27.495  -0.676  53.359  1.00  0.00     0.074 A 
HETATM   21 CL1  UNL     1      28.703  -1.912  52.992  1.00  0.00    -0.081 Cl
HETATM   22  C12 UNL     1      26.402  -0.506  52.528  1.00  0.00     0.056 A 
ENDBRANCH  13  15
ENDBRANCH   6  13
BRANCH  11  23
HETATM   23  O2  UNL     1      22.390   6.144  50.244  1.00  0.00    -0.378 OA
BRANCH  23  24
HETATM   24  C16 UNL     1      22.743   7.429  50.466  1.00  0.00     0.171 C 
BRANCH  24  25
HETATM   25  C17 UNL     1      24.072   7.692  51.028  1.00  0.00     0.064 C 
BRANCH  25  26
HETATM   26  C18 UNL     1      25.088   8.377  50.196  1.00  0.00     0.246 C 
HETATM   27  C19 UNL     1      24.982   8.233  48.730  1.00  0.00     0.203 C 
HETATM   28  O3  UNL     1      25.987   8.946  48.089  1.00  0.00    -0.387 OA
HETATM   29  C20 UNL     1      26.656   9.842  48.921  1.00  0.00     0.197 C 
HETATM   30  C21 UNL     1      27.292   9.142  50.098  1.00  0.00     0.296 C 
HETATM   31  N5  UNL     1      26.454   8.067  50.598  1.00  0.00     0.092 N 
HETATM   32  H23 UNL     1      26.749   7.191  50.118  1.00  0.00     0.316 HD
ENDBRANCH  25  26
ENDBRANCH  24  25
ENDBRANCH  23  24
ENDBRANCH  11  23
BRANCH   1  33
HETATM   33  C2  UNL     1      27.190   5.283  48.528  1.00  0.00     0.064 C 
HETATM   34  C1  UNL     1      28.498   5.332  48.425  1.00  0.00     0.017 C 
ENDBRANCH   1  33
TORSDOF 7
ENDMDL
MODEL 3
REMARK VINA RESULT:      -8.8      3.637      6.332
REMARK  7 active torsions:
REMARK  status: ('A' for Active; 'I' for Inactive)
REMARK    1  A    between atoms: C2_2  and  C3_3 
REMARK       I    between atoms: C3_3  and  N1_5 
REMARK    2  A    between atoms: C6_8  and  N2_9 
REMARK    3  A    between atoms: N2_9  and  C7_10 
REMARK    4  A    between atoms: C15_22  and  O2_23 
REMARK    5  A    between atoms: O2_23  and  C16_24 
REMARK    6  A    between atoms: C16_24  and  C17_25 
REMARK    7  A    between atoms: C17_25  and  C18_26 
ROOT
HETATM    1  C3  UNL     1      21.713   1.017  53.073  1.00  0.00     0.242 C 
HETATM    2  O1  UNL     1      22.586   0.443  53.765  1.00  0.00    -0.268 OA
HETATM    3  N1  UNL     1      22.457   1.889  52.236  1.00  0.00    -0.342 N 
HETATM    4  C4  UNL     1      23.887   1.744  52.519  1.00  0.00     0.170 C 
HETATM    5  C5  UNL     1      24.595   2.374  51.345  1.00  0.00     0.033 A 
HETATM    6  C6  UNL     1      25.916   2.612  51.756  1.00  0.00     0.139 A 
HETATM    7  N3  UNL     1      26.793   3.199  50.887  1.00  0.00    -0.224 NA
HETATM    8  C13 UNL     1      26.341   3.531  49.646  1.00  0.00     0.235 A 
HETATM    9  N4  UNL     1      25.083   3.290  49.292  1.00  0.00    -0.243 NA
HETATM   10  C14 UNL     1      24.163   2.721  50.076  1.00  0.00     0.078 A 
HETATM   11  C15 UNL     1      22.748   2.360  49.923  1.00  0.00     0.192 C 
HETATM   12  C22 UNL     1      22.018   2.822  51.228  1.00  0.00     0.164 C 
ENDROOT
BRANCH   6  13
HETATM   13  N2  UNL     1      26.545   2.336  52.987  1.00  0.00    -0.340 N 
HETATM   14  H6  UNL     1      26.299   2.923  53.808  1.00  0.00     0.167 HD
BRANCH  13  15
HETATM   15  C7  UNL     1      27.500   1.303  53.189  1.00  0.00     0.035 A 
HETATM   16  C8  UNL     1      28.781   1.511  53.674  1.00  0.00     0.032 A 
HETATM   17  C9  UNL     1      29.686   0.482  53.860  1.00  0.00     0.046 A 
HETATM   18  C10 UNL     1      29.338  -0.821  53.562  1.00  0.00     0.138 A 
HETATM   19  F1  UNL     1      30.180  -1.868  53.723  1.00  0.00    -0.204 F 
HETATM   20  C11 UNL     1      28.059  -1.069  53.072  1.00  0.00     0.074 A 
HETATM   21 CL1  UNL     1      27.566  -2.719  52.676  1.00  0.00    -0.081 Cl
HETATM   22  C12 UNL     1      27.175  -0.020  52.896  1.00  0.00     0.056 A 
ENDBRANCH  13  15
ENDBRANCH   6  13
BRANCH  11  23
HETATM   23  O2  UNL     1      22.072   2.850  48.847  1.00  0.00    -0.378 OA
BRANCH  23  24
HETATM   24  C16 UNL     1      21.377   4.000  48.974  1.00  0.00     0.171 C 
BRANCH  24  25
HETATM   25  C17 UNL     1      21.899   5.199  48.309  1.00  0.00     0.064 C 
BRANCH  25  26
HETATM   26  C18 UNL     1      22.602   6.226  49.111  1.00  0.00     0.246 C 
HETATM   27  C19 UNL     1      22.114   7.617  49.021  1.00  0.00     0.203 C 
HETATM   28  O3  UNL     1      22.856   8.456  49.842  1.00  0.00    -0.387 OA
HETATM   29  C20 UNL     1      23.662   7.778  50.755  1.00  0.00     0.197 C 
HETATM   30  C21 UNL     1      24.640   6.859  50.062  1.00  0.00     0.296 C 
HETATM   31  N5  UNL     1      24.044   6.223  48.900  1.00  0.00     0.092 N 
HETATM   32  H23 UNL     1      24.258   6.819  48.073  1.00  0.00     0.316 HD
ENDBRANCH  25  26
ENDBRANCH  24  25
ENDBRANCH  23  24
ENDBRANCH  11  23
BRANCH   1  33
HETATM   33  C2  UNL     1      20.296   0.738  53.218  1.00  0.00     0.064 C 
HETATM   34  C1  UNL     1      19.626   0.112  52.280  1.00  0.00     0.017 C 
ENDBRANCH   1  33
TORSDOF 7
ENDMDL
MODEL 4
REMARK VINA RESULT:      -8.7      4.077      7.641
REMARK  7 active torsions:
REMARK  status: ('A' for Active; 'I' for Inactive)
REMARK    1  A    between atoms: C2_2  and  C3_3 
REMARK       I    between atoms: C3_3  and  N1_5 
REMARK    2  A    between atoms: C6_8  and  N2_9 
REMARK    3  A    between atoms: N2_9  and  C7_10 
REMARK    4  A    between atoms: C15_22  and  O2_23 
REMARK    5  A    between atoms: O2_23  and  C16_24 
REMARK    6  A    between atoms: C16_24  and  C17_25 
REMARK    7  A    between atoms: C17_25  and  C18_26 
ROOT
HETATM    1  C3  UNL     1      21.516   0.534  53.562  1.00  0.00     0.242 C 
HETATM    2  O1  UNL     1      22.518   0.098  54.175  1.00  0.00    -0.268 OA
HETATM    3  N1  UNL     1      22.055   1.473  52.645  1.00  0.00    -0.342 N 
HETATM    4  C4  UNL     1      23.512   1.524  52.790  1.00  0.00     0.170 C 
HETATM    5  C5  UNL     1      24.018   2.208  51.544  1.00  0.00     0.033 A 
HETATM    6  C6  UNL     1      25.328   2.628  51.822  1.00  0.00     0.139 A 
HETATM    7  N3  UNL     1      26.034   3.300  50.864  1.00  0.00    -0.224 NA
HETATM    8  C13 UNL     1      25.428   3.536  49.668  1.00  0.00     0.235 A 
HETATM    9  N4  UNL     1      24.186   3.124  49.440  1.00  0.00    -0.243 NA
HETATM   10  C14 UNL     1      23.427   2.461  50.318  1.00  0.00     0.078 A 
HETATM   11  C15 UNL     1      22.064   1.915  50.308  1.00  0.00     0.192 C 
HETATM   12  C22 UNL     1      21.404   2.312  51.670  1.00  0.00     0.164 C 
ENDROOT
BRANCH   6  13
HETATM   13  N2  UNL     1      26.100   2.470  52.991  1.00  0.00    -0.340 N 
HETATM   14  H6  UNL     1      25.919   3.107  53.791  1.00  0.00     0.167 HD
BRANCH  13  15
HETATM   15  C7  UNL     1      27.120   1.493  53.156  1.00  0.00     0.035 A 
HETATM   16  C8  UNL     1      28.401   1.772  53.601  1.00  0.00     0.032 A 
HETATM   17  C9  UNL     1      29.369   0.796  53.752  1.00  0.00     0.046 A 
HETATM   18  C10 UNL     1      29.087  -0.523  53.457  1.00  0.00     0.138 A 
HETATM   19  F1  UNL     1      29.993  -1.521  53.585  1.00  0.00    -0.204 F 
HETATM   20  C11 UNL     1      27.811  -0.842  53.006  1.00  0.00     0.074 A 
HETATM   21 CL1  UNL     1      27.401  -2.516  52.614  1.00  0.00    -0.081 Cl
HETATM   22  C12 UNL     1      26.863   0.155  52.864  1.00  0.00     0.056 A 
ENDBRANCH  13  15
ENDBRANCH   6  13
BRANCH  11  23
HETATM   23  O2  UNL     1      21.231   2.283  49.294  1.00  0.00    -0.378 OA
BRANCH  23  24
HETATM   24  C16 UNL     1      20.391   3.323  49.478  1.00  0.00     0.171 C 
BRANCH  24  25
HETATM   25  C17 UNL     1      19.009   3.185  49.005  1.00  0.00     0.064 C 
BRANCH  25  26
HETATM   26  C18 UNL     1      18.081   2.285  49.727  1.00  0.00     0.246 C 
HETATM   27  C19 UNL     1      17.760   2.617  51.131  1.00  0.00     0.203 C 
HETATM   28  O3  UNL     1      16.866   1.697  51.664  1.00  0.00    -0.387 OA
HETATM   29  C20 UNL     1      16.265   0.880  50.708  1.00  0.00     0.197 C 
HETATM   30  C21 UNL     1      17.289   0.096  49.921  1.00  0.00     0.296 C 
HETATM   31  N5  UNL     1      18.480   0.885  49.658  1.00  0.00     0.092 N 
HETATM   32  H23 UNL     1      19.157   0.696  50.428  1.00  0.00     0.316 HD
ENDBRANCH  25  26
ENDBRANCH  24  25
ENDBRANCH  23  24
ENDBRANCH  11  23
BRANCH   1  33
HETATM   33  C2  UNL     1      20.168   0.076  53.847  1.00  0.00     0.064 C 
HETATM   34  C1  UNL     1      19.436  -0.502  52.924  1.00  0.00     0.017 C 
ENDBRANCH   1  33
TORSDOF 7
ENDMDL
MODEL 5
REMARK VINA RESULT:      -8.7      3.630      5.821
REMARK  7 active torsions:
REMARK  status: ('A' for Active; 'I' for Inactive)
REMARK    1  A    between atoms: C2_2  and  C3_3 
REMARK       I    between atoms: C3_3  and  N1_5 
REMARK    2  A    between atoms: C6_8  and  N2_9 
REMARK    3  A    between atoms: N2_9  and  C7_10 
REMARK    4  A    between atoms: C15_22  and  O2_23 
REMARK    5  A    between atoms: O2_23  and  C16_24 
REMARK    6  A    between atoms: C16_24  and  C17_25 
REMARK    7  A    between atoms: C17_25  and  C18_26 
ROOT
HETATM    1  C3  UNL     1      27.669   5.198  48.594  1.00  0.00     0.242 C 
HETATM    2  O1  UNL     1      27.776   4.020  49.005  1.00  0.00    -0.268 OA
HETATM    3  N1  UNL     1      26.346   5.568  48.950  1.00  0.00    -0.342 N 
HETATM    4  C4  UNL     1      25.690   4.453  49.638  1.00  0.00     0.170 C 
HETATM    5  C5  UNL     1      24.485   5.053  50.321  1.00  0.00     0.033 A 
HETATM    6  C6  UNL     1      23.635   3.984  50.642  1.00  0.00     0.139 A 
HETATM    7  N3  UNL     1      22.444   4.238  51.262  1.00  0.00    -0.224 NA
HETATM    8  C13 UNL     1      22.131   5.533  51.544  1.00  0.00     0.235 A 
HETATM    9  N4  UNL     1      22.962   6.519  51.225  1.00  0.00    -0.243 NA
HETATM   10  C14 UNL     1      24.142   6.360  50.620  1.00  0.00     0.078 A 
HETATM   11  C15 UNL     1      25.210   7.263  50.172  1.00  0.00     0.192 C 
HETATM   12  C22 UNL     1      25.625   6.798  48.736  1.00  0.00     0.164 C 
ENDROOT
BRANCH   6  13
HETATM   13  N2  UNL     1      23.798   2.600  50.427  1.00  0.00    -0.340 N 
HETATM   14  H6  UNL     1      23.685   2.235  49.461  1.00  0.00     0.167 HD
BRANCH  13  15
HETATM   15  C7  UNL     1      24.110   1.658  51.445  1.00  0.00     0.035 A 
HETATM   16  C8  UNL     1      23.165   0.998  52.211  1.00  0.00     0.032 A 
HETATM   17  C9  UNL     1      23.504   0.085  53.193  1.00  0.00     0.046 A 
HETATM   18  C10 UNL     1      24.828  -0.207  53.453  1.00  0.00     0.138 A 
HETATM   19  F1  UNL     1      25.220  -1.091  54.401  1.00  0.00    -0.204 F 
HETATM   20  C11 UNL     1      25.807   0.437  52.703  1.00  0.00     0.074 A 
HETATM   21 CL1  UNL     1      27.516   0.097  52.997  1.00  0.00    -0.081 Cl
HETATM   22  C12 UNL     1      25.438   1.345  51.727  1.00  0.00     0.056 A 
ENDBRANCH  13  15
ENDBRANCH   6  13
BRANCH  11  23
HETATM   23  O2  UNL     1      24.950   8.600  50.141  1.00  0.00    -0.378 OA
BRANCH  23  24
HETATM   24  C16 UNL     1      25.910   9.447  49.712  1.00  0.00     0.171 C 
BRANCH  24  25
HETATM   25  C17 UNL     1      27.267   9.276  50.243  1.00  0.00     0.064 C 
BRANCH  25  26
HETATM   26  C18 UNL     1      28.428   9.622  49.391  1.00  0.00     0.246 C 
HETATM   27  C19 UNL     1      28.230   9.609  47.927  1.00  0.00     0.203 C 
HETATM   28  O3  UNL     1      29.396   9.973  47.266  1.00  0.00    -0.387 OA
HETATM   29  C20 UNL     1      30.360  10.537  48.100  1.00  0.00     0.197 C 
HETATM   30  C21 UNL     1      30.756   9.594  49.212  1.00  0.00     0.296 C 
HETATM   31  N5  UNL     1      29.617   8.842  49.707  1.00  0.00     0.092 N 
HETATM   32  H23 UNL     1      29.577   7.947  49.175  1.00  0.00     0.316 HD
ENDBRANCH  25  26
ENDBRANCH  24  25
ENDBRANCH  23  24
ENDBRANCH  11  23
BRANCH   1  33
HETATM   33  C2  UNL     1      28.752   5.891  47.920  1.00  0.00     0.064 C 
HETATM   34  C1  UNL     1      30.006   5.572  48.142  1.00  0.00     0.017 C 
ENDBRANCH   1  33
TORSDOF 7
ENDMDL
MODEL 6
REMARK VINA RESULT:      -8.2      4.177      8.211
REMARK  7 active torsions:
REMARK  status: ('A' for Active; 'I' for Inactive)
REMARK    1  A    between atoms: C2_2  and  C3_3 
REMARK       I    between atoms: C3_3  and  N1_5 
REMARK    2  A    between atoms: C6_8  and  N2_9 
REMARK    3  A    between atoms: N2_9  and  C7_10 
REMARK    4  A    between atoms: C15_22  and  O2_23 
REMARK    5  A    between atoms: O2_23  and  C16_24 
REMARK    6  A    between atoms: C16_24  and  C17_25 
REMARK    7  A    between atoms: C17_25  and  C18_26 
ROOT
HETATM    1  C3  UNL     1      26.046   0.778  52.068  1.00  0.00     0.242 C 
HETATM    2  O1  UNL     1      26.686   1.691  51.498  1.00  0.00    -0.268 OA
HETATM    3  N1  UNL     1      24.770   1.351  52.310  1.00  0.00    -0.342 N 
HETATM    4  C4  UNL     1      24.739   2.722  51.794  1.00  0.00     0.170 C 
HETATM    5  C5  UNL     1      23.278   3.092  51.722  1.00  0.00     0.033 A 
HETATM    6  C6  UNL     1      23.224   4.491  51.623  1.00  0.00     0.139 A 
HETATM    7  N3  UNL     1      22.010   5.112  51.558  1.00  0.00    -0.224 NA
HETATM    8  C13 UNL     1      20.890   4.338  51.591  1.00  0.00     0.235 A 
HETATM    9  N4  UNL     1      20.979   3.016  51.685  1.00  0.00    -0.243 NA
HETATM   10  C14 UNL     1      22.123   2.329  51.753  1.00  0.00     0.078 A 
HETATM   11  C15 UNL     1      22.477   0.908  51.861  1.00  0.00     0.192 C 
HETATM   12  C22 UNL     1      23.599   0.799  52.946  1.00  0.00     0.164 C 
ENDROOT
BRANCH   6  13
HETATM   13  N2  UNL     1      24.270   5.436  51.576  1.00  0.00    -0.340 N 
HETATM   14  H6  UNL     1      24.707   5.732  52.470  1.00  0.00     0.167 HD
BRANCH  13  15
HETATM   15  C7  UNL     1      24.775   6.019  50.382  1.00  0.00     0.035 A 
HETATM   16  C8  UNL     1      24.108   6.981  49.643  1.00  0.00     0.032 A 
HETATM   17  C9  UNL     1      24.630   7.529  48.485  1.00  0.00     0.046 A 
HETATM   18  C10 UNL     1      25.863   7.126  48.012  1.00  0.00     0.138 A 
HETATM   19  F1  UNL     1      26.424   7.626  46.886  1.00  0.00    -0.204 F 
HETATM   20  C11 UNL     1      26.563   6.160  48.728  1.00  0.00     0.074 A 
HETATM   21 CL1  UNL     1      28.144   5.611  48.163  1.00  0.00    -0.081 Cl
HETATM   22  C12 UNL     1      26.016   5.630  49.882  1.00  0.00     0.056 A 
ENDBRANCH  13  15
ENDBRANCH   6  13
BRANCH  11  23
HETATM   23  O2  UNL     1      21.488   0.021  52.164  1.00  0.00    -0.378 OA
BRANCH  23  24
HETATM   24  C16 UNL     1      21.072  -0.089  53.444  1.00  0.00     0.171 C 
BRANCH  24  25
HETATM   25  C17 UNL     1      20.046  -1.092  53.751  1.00  0.00     0.064 C 
BRANCH  25  26
HETATM   26  C18 UNL     1      18.675  -0.912  53.221  1.00  0.00     0.246 C 
HETATM   27  C19 UNL     1      17.751  -2.061  53.312  1.00  0.00     0.203 C 
HETATM   28  O3  UNL     1      16.504  -1.735  52.796  1.00  0.00    -0.387 OA
HETATM   29  C20 UNL     1      16.320  -0.368  52.596  1.00  0.00     0.197 C 
HETATM   30  C21 UNL     1      17.352   0.201  51.651  1.00  0.00     0.296 C 
HETATM   31  N5  UNL     1      18.656  -0.405  51.856  1.00  0.00     0.092 N 
HETATM   32  H23 UNL     1      18.731  -1.213  51.202  1.00  0.00     0.316 HD
ENDBRANCH  25  26
ENDBRANCH  24  25
ENDBRANCH  23  24
ENDBRANCH  11  23
BRANCH   1  33
HETATM   33  C2  UNL     1      26.626  -0.523  52.347  1.00  0.00     0.064 C 
HETATM   34  C1  UNL     1      27.782  -0.636  52.957  1.00  0.00     0.017 C 
ENDBRANCH   1  33
TORSDOF 7
ENDMDL
MODEL 7
REMARK VINA RESULT:      -8.2      2.029      2.594
REMARK  7 active torsions:
REMARK  status: ('A' for Active; 'I' for Inactive)
REMARK    1  A    between atoms: C2_2  and  C3_3 
REMARK       I    between atoms: C3_3  and  N1_5 
REMARK    2  A    between atoms: C6_8  and  N2_9 
REMARK    3  A    between atoms: N2_9  and  C7_10 
REMARK    4  A    between atoms: C15_22  and  O2_23 
REMARK    5  A    between atoms: O2_23  and  C16_24 
REMARK    6  A    between atoms: C16_24  and  C17_25 
REMARK    7  A    between atoms: C17_25  and  C18_26 
ROOT
HETATM    1  C3  UNL     1      25.970   2.371  52.674  1.00  0.00     0.242 C 
HETATM    2  O1  UNL     1      25.257   2.388  53.704  1.00  0.00    -0.268 OA
HETATM    3  N1  UNL     1      25.136   2.925  51.669  1.00  0.00    -0.342 N 
HETATM    4  C4  UNL     1      23.839   3.285  52.246  1.00  0.00     0.170 C 
HETATM    5  C5  UNL     1      23.194   4.211  51.244  1.00  0.00     0.033 A 
HETATM    6  C6  UNL     1      21.827   4.252  51.560  1.00  0.00     0.139 A 
HETATM    7  N3  UNL     1      20.986   5.011  50.796  1.00  0.00    -0.224 NA
HETATM    8  C13 UNL     1      21.516   5.703  49.750  1.00  0.00     0.235 A 
HETATM    9  N4  UNL     1      22.816   5.640  49.482  1.00  0.00    -0.243 NA
HETATM   10  C14 UNL     1      23.707   4.925  50.175  1.00  0.00     0.078 A 
HETATM   11  C15 UNL     1      25.154   4.696  50.081  1.00  0.00     0.192 C 
HETATM   12  C22 UNL     1      25.385   3.159  50.268  1.00  0.00     0.164 C 
ENDROOT
BRANCH   6  13
HETATM   13  N2  UNL     1      21.117   3.607  52.593  1.00  0.00    -0.340 N 
HETATM   14  H6  UNL     1      21.152   4.018  53.546  1.00  0.00     0.167 HD
BRANCH  13  15
HETATM   15  C7  UNL     1      20.348   2.423  52.424  1.00  0.00     0.035 A 
HETATM   16  C8  UNL     1      19.268   2.312  51.566  1.00  0.00     0.032 A 
HETATM   17  C9  UNL     1      18.542   1.143  51.425  1.00  0.00     0.046 A 
HETATM   18  C10 UNL     1      18.876   0.018  52.152  1.00  0.00     0.138 A 
HETATM   19  F1  UNL     1      18.204  -1.154  52.056  1.00  0.00    -0.204 F 
HETATM   20  C11 UNL     1      19.957   0.091  53.026  1.00  0.00     0.074 A 
HETATM   21 CL1  UNL     1      20.424  -1.322  53.979  1.00  0.00    -0.081 Cl
HETATM   22  C12 UNL     1      20.664   1.274  53.146  1.00  0.00     0.056 A 
ENDBRANCH  13  15
ENDBRANCH   6  13
BRANCH  11  23
HETATM   23  O2  UNL     1      25.797   5.100  48.949  1.00  0.00    -0.378 OA
BRANCH  23  24
HETATM   24  C16 UNL     1      27.128   4.905  48.843  1.00  0.00     0.171 C 
BRANCH  24  25
HETATM   25  C17 UNL     1      27.948   6.008  48.328  1.00  0.00     0.064 C 
BRANCH  25  26
HETATM   26  C18 UNL     1      27.540   7.404  48.603  1.00  0.00     0.246 C 
HETATM   27  C19 UNL     1      28.535   8.468  48.356  1.00  0.00     0.203 C 
HETATM   28  O3  UNL     1      28.002   9.719  48.639  1.00  0.00    -0.387 OA
HETATM   29  C20 UNL     1      26.616   9.716  48.794  1.00  0.00     0.197 C 
HETATM   30  C21 UNL     1      26.182   8.789  49.904  1.00  0.00     0.296 C 
HETATM   31  N5  UNL     1      26.990   7.582  49.940  1.00  0.00     0.092 N 
HETATM   32  H23 UNL     1      27.776   7.751  50.602  1.00  0.00     0.316 HD
ENDBRANCH  25  26
ENDBRANCH  24  25
ENDBRANCH  23  24
ENDBRANCH  11  23
BRANCH   1  33
HETATM   33  C2  UNL     1      27.329   1.862  52.676  1.00  0.00     0.064 C 
HETATM   34  C1  UNL     1      28.235   2.344  53.494  1.00  0.00     0.017 C 
ENDBRANCH   1  33
TORSDOF 7
ENDMDL
MODEL 8
REMARK VINA RESULT:      -8.1      4.092      6.744
REMARK  7 active torsions:
REMARK  status: ('A' for Active; 'I' for Inactive)
REMARK    1  A    between atoms: C2_2  and  C3_3 
REMARK       I    between atoms: C3_3  and  N1_5 
REMARK    2  A    between atoms: C6_8  and  N2_9 
REMARK    3  A    between atoms: N2_9  and  C7_10 
REMARK    4  A    between atoms: C15_22  and  O2_23 
REMARK    5  A    between atoms: O2_23  and  C16_24 
REMARK    6  A    between atoms: C16_24  and  C17_25 
REMARK    7  A    between atoms: C17_25  and  C18_26 
ROOT
HETATM    1  C3  UNL     1      28.616   5.911  48.172  1.00  0.00     0.242 C 
HETATM    2  O1  UNL     1      28.686   4.732  48.589  1.00  0.00    -0.268 OA
HETATM    3  N1  UNL     1      27.299   6.318  48.508  1.00  0.00    -0.342 N 
HETATM    4  C4  UNL     1      26.604   5.224  49.191  1.00  0.00     0.170 C 
HETATM    5  C5  UNL     1      25.407   5.860  49.855  1.00  0.00     0.033 A 
HETATM    6  C6  UNL     1      24.523   4.816  50.168  1.00  0.00     0.139 A 
HETATM    7  N3  UNL     1      23.331   5.105  50.771  1.00  0.00    -0.224 NA
HETATM    8  C13 UNL     1      23.050   6.409  51.044  1.00  0.00     0.235 A 
HETATM    9  N4  UNL     1      23.912   7.371  50.733  1.00  0.00    -0.243 NA
HETATM   10  C14 UNL     1      25.096   7.177  50.145  1.00  0.00     0.078 A 
HETATM   11  C15 UNL     1      26.194   8.048  49.709  1.00  0.00     0.192 C 
HETATM   12  C22 UNL     1      26.616   7.568  48.280  1.00  0.00     0.164 C 
ENDROOT
BRANCH   6  13
HETATM   13  N2  UNL     1      24.651   3.427  49.960  1.00  0.00    -0.340 N 
HETATM   14  H6  UNL     1      24.590   3.067  48.988  1.00  0.00     0.167 HD
BRANCH  13  15
HETATM   15  C7  UNL     1      24.859   2.474  50.993  1.00  0.00     0.035 A 
HETATM   16  C8  UNL     1      23.853   1.715  51.566  1.00  0.00     0.032 A 
HETATM   17  C9  UNL     1      24.091   0.794  52.571  1.00  0.00     0.046 A 
HETATM   18  C10 UNL     1      25.370   0.594  53.050  1.00  0.00     0.138 A 
HETATM   19  F1  UNL     1      25.664  -0.293  54.031  1.00  0.00    -0.204 F 
HETATM   20  C11 UNL     1      26.408   1.339  52.499  1.00  0.00     0.074 A 
HETATM   21 CL1  UNL     1      28.062   1.120  53.079  1.00  0.00    -0.081 Cl
HETATM   22  C12 UNL     1      26.140   2.253  51.496  1.00  0.00     0.056 A 
ENDBRANCH  13  15
ENDBRANCH   6  13
BRANCH  11  23
HETATM   23  O2  UNL     1      25.972   9.392  49.670  1.00  0.00    -0.378 OA
BRANCH  23  24
HETATM   24  C16 UNL     1      26.263  10.075  48.542  1.00  0.00     0.171 C 
BRANCH  24  25
HETATM   25  C17 UNL     1      26.996  11.340  48.672  1.00  0.00     0.064 C 
BRANCH  25  26
HETATM   26  C18 UNL     1      28.476  11.323  48.678  1.00  0.00     0.246 C 
HETATM   27  C19 UNL     1      29.145  10.073  49.094  1.00  0.00     0.203 C 
HETATM   28  O3  UNL     1      30.525  10.205  49.029  1.00  0.00    -0.387 OA
HETATM   29  C20 UNL     1      30.949  11.333  48.328  1.00  0.00     0.197 C 
HETATM   30  C21 UNL     1      30.411  12.605  48.942  1.00  0.00     0.296 C 
HETATM   31  N5  UNL     1      29.053  12.432  49.427  1.00  0.00     0.092 N 
HETATM   32  H23 UNL     1      29.112  12.158  50.430  1.00  0.00     0.316 HD
ENDBRANCH  25  26
ENDBRANCH  24  25
ENDBRANCH  23  24
ENDBRANCH  11  23
BRANCH   1  33
HETATM   33  C2  UNL     1      29.728   6.571  47.511  1.00  0.00     0.064 C 
HETATM   34  C1  UNL     1      30.931   6.049  47.519  1.00  0.00     0.017 C 
ENDBRANCH   1  33
TORSDOF 7
ENDMDL
MODEL 9
REMARK VINA RESULT:      -8.1      3.286      5.627
REMARK  7 active torsions:
REMARK  status: ('A' for Active; 'I' for Inactive)
REMARK    1  A    between atoms: C2_2  and  C3_3 
REMARK       I    between atoms: C3_3  and  N1_5 
REMARK    2  A    between atoms: C6_8  and  N2_9 
REMARK    3  A    between atoms: N2_9  and  C7_10 
REMARK    4  A    between atoms: C15_22  and  O2_23 
REMARK    5  A    between atoms: O2_23  and  C16_24 
REMARK    6  A    between atoms: C16_24  and  C17_25 
REMARK    7  A    between atoms: C17_25  and  C18_26 
ROOT
HETATM    1  C3  UNL     1      27.060   4.684  48.999  1.00  0.00     0.242 C 
HETATM    2  O1  UNL     1      27.235   3.559  49.519  1.00  0.00    -0.268 OA
HETATM    3  N1  UNL     1      25.690   4.965  49.240  1.00  0.00    -0.342 N 
HETATM    4  C4  UNL     1      25.083   3.858  49.984  1.00  0.00     0.170 C 
HETATM    5  C5  UNL     1      23.790   4.405  50.537  1.00  0.00     0.033 A 
HETATM    6  C6  UNL     1      23.010   3.297  50.900  1.00  0.00     0.139 A 
HETATM    7  N3  UNL     1      21.763   3.496  51.422  1.00  0.00    -0.224 NA
HETATM    8  C13 UNL     1      21.326   4.778  51.568  1.00  0.00     0.235 A 
HETATM    9  N4  UNL     1      22.093   5.803  51.213  1.00  0.00    -0.243 NA
HETATM   10  C14 UNL     1      23.321   5.698  50.697  1.00  0.00     0.078 A 
HETATM   11  C15 UNL     1      24.339   6.650  50.236  1.00  0.00     0.192 C 
HETATM   12  C22 UNL     1      24.887   6.106  48.875  1.00  0.00     0.164 C 
ENDROOT
BRANCH   6  13
HETATM   13  N2  UNL     1      23.300   1.919  50.818  1.00  0.00    -0.340 N 
HETATM   14  H6  UNL     1      23.228   1.454  49.893  1.00  0.00     0.167 HD
BRANCH  13  15
HETATM   15  C7  UNL     1      23.688   1.112  51.922  1.00  0.00     0.035 A 
HETATM   16  C8  UNL     1      24.982   1.027  52.408  1.00  0.00     0.032 A 
HETATM   17  C9  UNL     1      25.325   0.231  53.486  1.00  0.00     0.046 A 
HETATM   18  C10 UNL     1      24.367  -0.525  54.132  1.00  0.00     0.138 A 
HETATM   19  F1  UNL     1      24.643  -1.322  55.192  1.00  0.00    -0.204 F 
HETATM   20  C11 UNL     1      23.056  -0.466  53.672  1.00  0.00     0.074 A 
HETATM   21 CL1  UNL     1      21.794  -1.416  54.465  1.00  0.00    -0.081 Cl
HETATM   22  C12 UNL     1      22.742   0.338  52.592  1.00  0.00     0.056 A 
ENDBRANCH  13  15
ENDBRANCH   6  13
BRANCH  11  23
HETATM   23  O2  UNL     1      23.973   7.952  50.071  1.00  0.00    -0.378 OA
BRANCH  23  24
HETATM   24  C16 UNL     1      23.724   8.413  48.827  1.00  0.00     0.171 C 
BRANCH  24  25
HETATM   25  C17 UNL     1      22.830   9.568  48.685  1.00  0.00     0.064 C 
BRANCH  25  26
HETATM   26  C18 UNL     1      21.369   9.377  48.830  1.00  0.00     0.246 C 
HETATM   27  C19 UNL     1      20.549  10.571  49.122  1.00  0.00     0.203 C 
HETATM   28  O3  UNL     1      19.204  10.237  49.208  1.00  0.00    -0.387 OA
HETATM   29  C20 UNL     1      18.909   8.965  48.721  1.00  0.00     0.197 C 
HETATM   30  C21 UNL     1      19.678   7.894  49.458  1.00  0.00     0.296 C 
HETATM   31  N5  UNL     1      21.025   8.330  49.782  1.00  0.00     0.092 N 
HETATM   32  H23 UNL     1      20.998   8.747  50.736  1.00  0.00     0.316 HD
ENDBRANCH  25  26
ENDBRANCH  24  25
ENDBRANCH  23  24
ENDBRANCH  11  23
BRANCH   1  33
HETATM   33  C2  UNL     1      28.126   5.410  48.333  1.00  0.00     0.064 C 
HETATM   34  C1  UNL     1      28.148   6.722  48.314  1.00  0.00     0.017 C 
ENDBRANCH   1  33
TORSDOF 7
ENDMDL
