MODEL 1
REMARK VINA RESULT:      -8.2      0.000      0.000
REMARK  7 active torsions:
REMARK  status: ('A' for Active; 'I' for Inactive)
REMARK    1  A    between atoms: C2_2  and  C3_3 
REMARK    2  A    between atoms: C2_2  and  C9_10 
REMARK    3  A    between atoms: C3_3  and  N1_4 
REMARK    4  A    between atoms: C9_10  and  C10_12 
REMARK    5  A    between atoms: C15_17  and  O2_18 
REMARK    6  A    between atoms: O2_18  and  C16_19 
REMARK    7  A    between atoms: C16_19  and  C17_20 
ROOT
HETATM    1  C10 UNL     1      22.795   0.716  52.408  1.00  0.00     0.025 A 
HETATM    2  C11 UNL     1      21.861  -0.188  52.656  1.00  0.00     0.014 A 
HETATM    3  C12 UNL     1      22.210  -1.073  53.764  1.00  0.00     0.006 A 
HETATM    4  C13 UNL     1      23.418  -0.639  54.164  1.00  0.00    -0.051 A 
HETATM    5  C14 UNL     1      24.060  -1.362  55.316  1.00  0.00     0.046 C 
HETATM    6  C15 UNL     1      23.938   0.520  53.369  1.00  0.00     0.187 A 
ENDROOT
BRANCH   1   7
HETATM    7  C9  UNL     1      22.762   1.737  51.382  1.00  0.00     0.188 C 
HETATM    8  O1  UNL     1      22.747   1.430  50.165  1.00  0.00    -0.287 OA
BRANCH   7   9
HETATM    9  C2  UNL     1      22.745   3.168  51.611  1.00  0.00     0.011 C 
HETATM   10  C1  UNL     1      21.646   3.871  51.710  1.00  0.00     0.025 C 
BRANCH   9  11
HETATM   11  C3  UNL     1      23.975   3.969  51.755  1.00  0.00     0.314 C 
BRANCH  11  12
HETATM   12  N1  UNL     1      24.685   4.225  50.549  1.00  0.00     0.092 N 
HETATM   13  C4  UNL     1      26.002   3.563  50.739  1.00  0.00     0.272 C 
HETATM   14  C5  UNL     1      26.654   3.447  49.403  1.00  0.00     0.030 C 
HETATM   15  C6  UNL     1      26.931   4.850  48.892  1.00  0.00     0.003 C 
HETATM   16  C7  UNL     1      25.667   5.692  48.936  1.00  0.00     0.030 C 
HETATM   17  C8  UNL     1      25.035   5.614  50.326  1.00  0.00     0.272 C 
ENDBRANCH  11  12
ENDBRANCH   9  11
ENDBRANCH   7   9
ENDBRANCH   1   7
BRANCH   6  18
HETATM   18  O2  UNL     1      25.041   0.209  52.645  1.00  0.00    -0.372 OA
BRANCH  18  19
HETATM   19  C16 UNL     1      26.220   0.821  52.880  1.00  0.00     0.207 C 
BRANCH  19  20
HETATM   20  C17 UNL     1      27.310  -0.152  53.048  1.00  0.00    -0.035 A 
HETATM   21  C18 UNL     1      28.595  -0.043  53.533  1.00  0.00     0.009 A 
HETATM   22  C19 UNL     1      29.410  -1.141  53.586  1.00  0.00     0.001 A 
HETATM   23  C20 UNL     1      29.030  -2.385  53.178  1.00  0.00     0.000 A 
HETATM   24  C21 UNL     1      27.735  -2.526  52.683  1.00  0.00     0.001 A 
HETATM   25  C22 UNL     1      26.892  -1.413  52.623  1.00  0.00     0.009 A 
ENDBRANCH  19  20
ENDBRANCH  18  19
ENDBRANCH   6  18
TORSDOF 7
ENDMDL
MODEL 2
REMARK VINA RESULT:      -8.0      1.893      4.926
REMARK  7 active torsions:
REMARK  status: ('A' for Active; 'I' for Inactive)
REMARK    1  A    between atoms: C2_2  and  C3_3 
REMARK    2  A    between atoms: C2_2  and  C9_10 
REMARK    3  A    between atoms: C3_3  and  N1_4 
REMARK    4  A    between atoms: C9_10  and  C10_12 
REMARK    5  A    between atoms: C15_17  and  O2_18 
REMARK    6  A    between atoms: O2_18  and  C16_19 
REMARK    7  A    between atoms: C16_19  and  C17_20 
ROOT
HETATM    1  C10 UNL     1      27.069   1.698  52.284  1.00  0.00     0.025 A 
HETATM    2  C11 UNL     1      27.958   2.180  53.137  1.00  0.00     0.014 A 
HETATM    3  C12 UNL     1      28.797   1.141  53.727  1.00  0.00     0.006 A 
HETATM    4  C13 UNL     1      28.350   0.001  53.171  1.00  0.00    -0.051 A 
HETATM    5  C14 UNL     1      29.029  -1.276  53.585  1.00  0.00     0.046 C 
HETATM    6  C15 UNL     1      27.216   0.200  52.211  1.00  0.00     0.187 A 
ENDROOT
BRANCH   1   7
HETATM    7  C9  UNL     1      26.091   2.455  51.531  1.00  0.00     0.188 C 
HETATM    8  O1  UNL     1      26.306   2.784  50.340  1.00  0.00    -0.287 OA
BRANCH   7   9
HETATM    9  C2  UNL     1      24.806   2.909  52.026  1.00  0.00     0.011 C 
HETATM   10  C1  UNL     1      24.507   2.988  53.297  1.00  0.00     0.025 C 
BRANCH   9  11
HETATM   11  C3  UNL     1      23.709   3.328  51.133  1.00  0.00     0.314 C 
BRANCH  11  12
HETATM   12  N1  UNL     1      22.566   2.480  51.125  1.00  0.00     0.092 N 
HETATM   13  C4  UNL     1      22.450   2.016  49.719  1.00  0.00     0.272 C 
HETATM   14  C5  UNL     1      21.532   0.839  49.698  1.00  0.00     0.030 C 
HETATM   15  C6  UNL     1      20.155   1.312  50.126  1.00  0.00     0.003 C 
HETATM   16  C7  UNL     1      20.234   2.062  51.446  1.00  0.00     0.030 C 
HETATM   17  C8  UNL     1      21.304   3.151  51.365  1.00  0.00     0.272 C 
ENDBRANCH  11  12
ENDBRANCH   9  11
ENDBRANCH   7   9
ENDBRANCH   1   7
BRANCH   6  18
HETATM   18  O2  UNL     1      26.057  -0.353  52.644  1.00  0.00    -0.372 OA
BRANCH  18  19
HETATM   19  C16 UNL     1      25.763  -0.408  53.960  1.00  0.00     0.207 C 
BRANCH  19  20
HETATM   20  C17 UNL     1      24.344  -0.721  54.184  1.00  0.00    -0.035 A 
HETATM   21  C18 UNL     1      23.648  -1.171  55.284  1.00  0.00     0.009 A 
HETATM   22  C19 UNL     1      22.296  -1.373  55.212  1.00  0.00     0.001 A 
HETATM   23  C20 UNL     1      21.557  -1.151  54.088  1.00  0.00     0.000 A 
HETATM   24  C21 UNL     1      22.235  -0.695  52.959  1.00  0.00     0.001 A 
HETATM   25  C22 UNL     1      23.615  -0.486  53.018  1.00  0.00     0.009 A 
ENDBRANCH  19  20
ENDBRANCH  18  19
ENDBRANCH   6  18
TORSDOF 7
ENDMDL
MODEL 3
REMARK VINA RESULT:      -7.9      1.845      5.587
REMARK  7 active torsions:
REMARK  status: ('A' for Active; 'I' for Inactive)
REMARK    1  A    between atoms: C2_2  and  C3_3 
REMARK    2  A    between atoms: C2_2  and  C9_10 
REMARK    3  A    between atoms: C3_3  and  N1_4 
REMARK    4  A    between atoms: C9_10  and  C10_12 
REMARK    5  A    between atoms: C15_17  and  O2_18 
REMARK    6  A    between atoms: O2_18  and  C16_19 
REMARK    7  A    between atoms: C16_19  and  C17_20 
ROOT
HETATM    1  C10 UNL     1      24.444   4.197  49.575  1.00  0.00     0.025 A 
HETATM    2  C11 UNL     1      24.458   5.499  49.340  1.00  0.00     0.014 A 
HETATM    3  C12 UNL     1      25.780   5.990  48.959  1.00  0.00     0.006 A 
HETATM    4  C13 UNL     1      26.558   4.893  48.982  1.00  0.00    -0.051 A 
HETATM    5  C14 UNL     1      28.008   5.074  48.626  1.00  0.00     0.046 C 
HETATM    6  C15 UNL     1      25.830   3.643  49.375  1.00  0.00     0.187 A 
ENDROOT
BRANCH   1   7
HETATM    7  C9  UNL     1      23.301   3.401  49.971  1.00  0.00     0.188 C 
HETATM    8  O1  UNL     1      22.351   3.195  49.178  1.00  0.00    -0.287 OA
BRANCH   7   9
HETATM    9  C2  UNL     1      23.112   2.773  51.264  1.00  0.00     0.011 C 
HETATM   10  C1  UNL     1      23.173   3.421  52.399  1.00  0.00     0.025 C 
BRANCH   9  11
HETATM   11  C3  UNL     1      22.829   1.334  51.419  1.00  0.00     0.314 C 
BRANCH  11  12
HETATM   12  N1  UNL     1      22.398   0.930  52.715  1.00  0.00     0.092 N 
HETATM   13  C4  UNL     1      23.017  -0.405  52.919  1.00  0.00     0.272 C 
HETATM   14  C5  UNL     1      22.941  -0.728  54.374  1.00  0.00     0.030 C 
HETATM   15  C6  UNL     1      21.476  -0.854  54.750  1.00  0.00     0.003 C 
HETATM   16  C7  UNL     1      20.703   0.378  54.308  1.00  0.00     0.030 C 
HETATM   17  C8  UNL     1      20.978   0.664  52.832  1.00  0.00     0.272 C 
ENDBRANCH  11  12
ENDBRANCH   9  11
ENDBRANCH   7   9
ENDBRANCH   1   7
BRANCH   6  18
HETATM   18  O2  UNL     1      26.252   3.140  50.561  1.00  0.00    -0.372 OA
BRANCH  18  19
HETATM   19  C16 UNL     1      26.673   1.862  50.662  1.00  0.00     0.207 C 
BRANCH  19  20
HETATM   20  C17 UNL     1      26.572   1.368  52.043  1.00  0.00    -0.035 A 
HETATM   21  C18 UNL     1      26.361   2.000  53.249  1.00  0.00     0.009 A 
HETATM   22  C19 UNL     1      26.303   1.275  54.409  1.00  0.00     0.001 A 
HETATM   23  C20 UNL     1      26.444  -0.080  54.462  1.00  0.00     0.000 A 
HETATM   24  C21 UNL     1      26.658  -0.746  53.257  1.00  0.00     0.001 A 
HETATM   25  C22 UNL     1      26.720  -0.018  52.065  1.00  0.00     0.009 A 
ENDBRANCH  19  20
ENDBRANCH  18  19
ENDBRANCH   6  18
TORSDOF 7
ENDMDL
MODEL 4
REMARK VINA RESULT:      -7.8      1.843      5.691
REMARK  7 active torsions:
REMARK  status: ('A' for Active; 'I' for Inactive)
REMARK    1  A    between atoms: C2_2  and  C3_3 
REMARK    2  A    between atoms: C2_2  and  C9_10 
REMARK    3  A    between atoms: C3_3  and  N1_4 
REMARK    4  A    between atoms: C9_10  and  C10_12 
REMARK    5  A    between atoms: C15_17  and  O2_18 
REMARK    6  A    between atoms: O2_18  and  C16_19 
REMARK    7  A    between atoms: C16_19  and  C17_20 
ROOT
HETATM    1  C10 UNL     1      22.670   0.037  52.751  1.00  0.00     0.025 A 
HETATM    2  C11 UNL     1      21.518  -0.333  52.213  1.00  0.00     0.014 A 
HETATM    3  C12 UNL     1      21.213   0.389  50.981  1.00  0.00     0.006 A 
HETATM    4  C13 UNL     1      22.260   1.218  50.817  1.00  0.00    -0.051 A 
HETATM    5  C14 UNL     1      22.241   2.114  49.608  1.00  0.00     0.046 C 
HETATM    6  C15 UNL     1      23.292   1.111  51.898  1.00  0.00     0.187 A 
ENDROOT
BRANCH   1   7
HETATM    7  C9  UNL     1      23.263  -0.479  53.967  1.00  0.00     0.188 C 
HETATM    8  O1  UNL     1      22.548  -0.814  54.943  1.00  0.00    -0.287 OA
BRANCH   7   9
HETATM    9  C2  UNL     1      24.680  -0.666  54.206  1.00  0.00     0.011 C 
HETATM   10  C1  UNL     1      25.188  -0.912  55.387  1.00  0.00     0.025 C 
BRANCH   9  11
HETATM   11  C3  UNL     1      25.688  -0.597  53.131  1.00  0.00     0.314 C 
BRANCH  11  12
HETATM   12  N1  UNL     1      27.040  -0.759  53.547  1.00  0.00     0.092 N 
HETATM   13  C4  UNL     1      27.668   0.566  53.307  1.00  0.00     0.272 C 
HETATM   14  C5  UNL     1      28.956   0.605  54.060  1.00  0.00     0.030 C 
HETATM   15  C6  UNL     1      29.880  -0.441  53.464  1.00  0.00     0.003 C 
HETATM   16  C7  UNL     1      29.190  -1.794  53.410  1.00  0.00     0.030 C 
HETATM   17  C8  UNL     1      27.828  -1.659  52.729  1.00  0.00     0.272 C 
ENDBRANCH  11  12
ENDBRANCH   9  11
ENDBRANCH   7   9
ENDBRANCH   1   7
BRANCH   6  18
HETATM   18  O2  UNL     1      23.387   2.235  52.648  1.00  0.00    -0.372 OA
BRANCH  18  19
HETATM   19  C16 UNL     1      24.577   2.840  52.845  1.00  0.00     0.207 C 
BRANCH  19  20
HETATM   20  C17 UNL     1      25.176   3.278  51.575  1.00  0.00    -0.035 A 
HETATM   21  C18 UNL     1      26.191   2.769  50.795  1.00  0.00     0.009 A 
HETATM   22  C19 UNL     1      26.545   3.391  49.629  1.00  0.00     0.001 A 
HETATM   23  C20 UNL     1      25.943   4.522  49.161  1.00  0.00     0.000 A 
HETATM   24  C21 UNL     1      24.913   5.059  49.930  1.00  0.00     0.001 A 
HETATM   25  C22 UNL     1      24.541   4.435  51.124  1.00  0.00     0.009 A 
ENDBRANCH  19  20
ENDBRANCH  18  19
ENDBRANCH   6  18
TORSDOF 7
ENDMDL
MODEL 5
REMARK VINA RESULT:      -7.7      1.639      4.703
REMARK  7 active torsions:
REMARK  status: ('A' for Active; 'I' for Inactive)
REMARK    1  A    between atoms: C2_2  and  C3_3 
REMARK    2  A    between atoms: C2_2  and  C9_10 
REMARK    3  A    between atoms: C3_3  and  N1_4 
REMARK    4  A    between atoms: C9_10  and  C10_12 
REMARK    5  A    between atoms: C15_17  and  O2_18 
REMARK    6  A    between atoms: O2_18  and  C16_19 
REMARK    7  A    between atoms: C16_19  and  C17_20 
ROOT
HETATM    1  C10 UNL     1      26.999   1.833  52.919  1.00  0.00     0.025 A 
HETATM    2  C11 UNL     1      28.139   2.301  53.400  1.00  0.00     0.014 A 
HETATM    3  C12 UNL     1      29.093   1.244  53.724  1.00  0.00     0.006 A 
HETATM    4  C13 UNL     1      28.446   0.108  53.406  1.00  0.00    -0.051 A 
HETATM    5  C14 UNL     1      29.182  -1.185  53.629  1.00  0.00     0.046 C 
HETATM    6  C15 UNL     1      27.063   0.328  52.874  1.00  0.00     0.187 A 
ENDROOT
BRANCH   1   7
HETATM    7  C9  UNL     1      25.850   2.609  52.502  1.00  0.00     0.188 C 
HETATM    8  O1  UNL     1      24.985   2.980  53.332  1.00  0.00    -0.287 OA
BRANCH   7   9
HETATM    9  C2  UNL     1      25.562   3.037  51.147  1.00  0.00     0.011 C 
HETATM   10  C1  UNL     1      26.409   2.920  50.157  1.00  0.00     0.025 C 
BRANCH   9  11
HETATM   11  C3  UNL     1      24.276   3.646  50.757  1.00  0.00     0.314 C 
BRANCH  11  12
HETATM   12  N1  UNL     1      24.357   4.970  50.241  1.00  0.00     0.092 N 
HETATM   13  C4  UNL     1      23.713   5.818  51.278  1.00  0.00     0.272 C 
HETATM   14  C5  UNL     1      24.091   7.236  51.009  1.00  0.00     0.030 C 
HETATM   15  C6  UNL     1      23.493   7.636  49.672  1.00  0.00     0.003 C 
HETATM   16  C7  UNL     1      23.880   6.636  48.594  1.00  0.00     0.030 C 
HETATM   17  C8  UNL     1      23.556   5.216  49.059  1.00  0.00     0.272 C 
ENDBRANCH  11  12
ENDBRANCH   9  11
ENDBRANCH   7   9
ENDBRANCH   1   7
BRANCH   6  18
HETATM   18  O2  UNL     1      26.100  -0.153  53.696  1.00  0.00    -0.372 OA
BRANCH  18  19
HETATM   19  C16 UNL     1      25.176  -1.027  53.246  1.00  0.00     0.207 C 
BRANCH  19  20
HETATM   20  C17 UNL     1      23.811  -0.506  53.416  1.00  0.00    -0.035 A 
HETATM   21  C18 UNL     1      23.044   0.365  52.673  1.00  0.00     0.009 A 
HETATM   22  C19 UNL     1      21.771   0.674  53.068  1.00  0.00     0.001 A 
HETATM   23  C20 UNL     1      21.181   0.165  54.188  1.00  0.00     0.000 A 
HETATM   24  C21 UNL     1      21.934  -0.718  54.958  1.00  0.00     0.001 A 
HETATM   25  C22 UNL     1      23.235  -1.043  54.567  1.00  0.00     0.009 A 
ENDBRANCH  19  20
ENDBRANCH  18  19
ENDBRANCH   6  18
TORSDOF 7
ENDMDL
MODEL 6
REMARK VINA RESULT:      -7.6      1.452      2.443
REMARK  7 active torsions:
REMARK  status: ('A' for Active; 'I' for Inactive)
REMARK    1  A    between atoms: C2_2  and  C3_3 
REMARK    2  A    between atoms: C2_2  and  C9_10 
REMARK    3  A    between atoms: C3_3  and  N1_4 
REMARK    4  A    between atoms: C9_10  and  C10_12 
REMARK    5  A    between atoms: C15_17  and  O2_18 
REMARK    6  A    between atoms: O2_18  and  C16_19 
REMARK    7  A    between atoms: C16_19  and  C17_20 
ROOT
HETATM    1  C10 UNL     1      23.454   1.775  52.197  1.00  0.00     0.025 A 
HETATM    2  C11 UNL     1      22.351   1.500  51.519  1.00  0.00     0.014 A 
HETATM    3  C12 UNL     1      21.724   0.250  51.942  1.00  0.00     0.006 A 
HETATM    4  C13 UNL     1      22.527  -0.206  52.920  1.00  0.00    -0.051 A 
HETATM    5  C14 UNL     1      22.141  -1.505  53.573  1.00  0.00     0.046 C 
HETATM    6  C15 UNL     1      23.706   0.677  53.197  1.00  0.00     0.187 A 
ENDROOT
BRANCH   1   7
HETATM    7  C9  UNL     1      24.310   2.930  52.027  1.00  0.00     0.188 C 
HETATM    8  O1  UNL     1      24.152   3.960  52.725  1.00  0.00    -0.287 OA
BRANCH   7   9
HETATM    9  C2  UNL     1      25.402   3.045  51.079  1.00  0.00     0.011 C 
HETATM   10  C1  UNL     1      26.583   2.515  51.270  1.00  0.00     0.025 C 
BRANCH   9  11
HETATM   11  C3  UNL     1      25.278   3.773  49.803  1.00  0.00     0.314 C 
BRANCH  11  12
HETATM   12  N1  UNL     1      26.260   4.778  49.573  1.00  0.00     0.092 N 
HETATM   13  C4  UNL     1      25.536   5.852  48.846  1.00  0.00     0.272 C 
HETATM   14  C5  UNL     1      26.370   7.088  48.905  1.00  0.00     0.030 C 
HETATM   15  C6  UNL     1      27.655   6.823  48.143  1.00  0.00     0.003 C 
HETATM   16  C7  UNL     1      28.323   5.554  48.648  1.00  0.00     0.030 C 
HETATM   17  C8  UNL     1      27.317   4.403  48.655  1.00  0.00     0.272 C 
ENDBRANCH  11  12
ENDBRANCH   9  11
ENDBRANCH   7   9
ENDBRANCH   1   7
BRANCH   6  18
HETATM   18  O2  UNL     1      24.887   0.092  52.883  1.00  0.00    -0.372 OA
BRANCH  18  19
HETATM   19  C16 UNL     1      25.564  -0.638  53.793  1.00  0.00     0.207 C 
BRANCH  19  20
HETATM   20  C17 UNL     1      26.990  -0.279  53.820  1.00  0.00    -0.035 A 
HETATM   21  C18 UNL     1      27.669   0.823  54.290  1.00  0.00     0.009 A 
HETATM   22  C19 UNL     1      29.032   0.891  54.192  1.00  0.00     0.001 A 
HETATM   23  C20 UNL     1      29.800  -0.093  53.641  1.00  0.00     0.000 A 
HETATM   24  C21 UNL     1      29.141  -1.220  53.156  1.00  0.00     0.001 A 
HETATM   25  C22 UNL     1      27.749  -1.302  53.250  1.00  0.00     0.009 A 
ENDBRANCH  19  20
ENDBRANCH  18  19
ENDBRANCH   6  18
TORSDOF 7
ENDMDL
MODEL 7
REMARK VINA RESULT:      -7.4      1.792      5.930
REMARK  7 active torsions:
REMARK  status: ('A' for Active; 'I' for Inactive)
REMARK    1  A    between atoms: C2_2  and  C3_3 
REMARK    2  A    between atoms: C2_2  and  C9_10 
REMARK    3  A    between atoms: C3_3  and  N1_4 
REMARK    4  A    between atoms: C9_10  and  C10_12 
REMARK    5  A    between atoms: C15_17  and  O2_18 
REMARK    6  A    between atoms: O2_18  and  C16_19 
REMARK    7  A    between atoms: C16_19  and  C17_20 
ROOT
HETATM    1  C10 UNL     1      22.653   3.044  52.109  1.00  0.00     0.025 A 
HETATM    2  C11 UNL     1      22.100   4.240  52.233  1.00  0.00     0.014 A 
HETATM    3  C12 UNL     1      20.960   4.432  51.340  1.00  0.00     0.006 A 
HETATM    4  C13 UNL     1      20.868   3.269  50.670  1.00  0.00    -0.051 A 
HETATM    5  C14 UNL     1      19.766   3.150  49.653  1.00  0.00     0.046 C 
HETATM    6  C15 UNL     1      21.911   2.264  51.056  1.00  0.00     0.187 A 
ENDROOT
BRANCH   1   7
HETATM    7  C9  UNL     1      23.793   2.536  52.843  1.00  0.00     0.188 C 
HETATM    8  O1  UNL     1      24.492   3.296  53.556  1.00  0.00    -0.287 OA
BRANCH   7   9
HETATM    9  C2  UNL     1      24.253   1.161  52.850  1.00  0.00     0.011 C 
HETATM   10  C1  UNL     1      23.601   0.184  53.425  1.00  0.00     0.025 C 
BRANCH   9  11
HETATM   11  C3  UNL     1      25.508   0.736  52.203  1.00  0.00     0.314 C 
BRANCH  11  12
HETATM   12  N1  UNL     1      26.652   0.697  53.049  1.00  0.00     0.092 N 
HETATM   13  C4  UNL     1      27.497   1.831  52.592  1.00  0.00     0.272 C 
HETATM   14  C5  UNL     1      28.511   2.103  53.652  1.00  0.00     0.030 C 
HETATM   15  C6  UNL     1      29.415   0.888  53.759  1.00  0.00     0.003 C 
HETATM   16  C7  UNL     1      28.591  -0.375  53.946  1.00  0.00     0.030 C 
HETATM   17  C8  UNL     1      27.509  -0.457  52.869  1.00  0.00     0.272 C 
ENDBRANCH  11  12
ENDBRANCH   9  11
ENDBRANCH   7   9
ENDBRANCH   1   7
BRANCH   6  18
HETATM   18  O2  UNL     1      22.778   1.993  50.051  1.00  0.00    -0.372 OA
BRANCH  18  19
HETATM   19  C16 UNL     1      22.940   2.852  49.023  1.00  0.00     0.207 C 
BRANCH  19  20
HETATM   20  C17 UNL     1      24.197   3.605  49.141  1.00  0.00    -0.035 A 
HETATM   21  C18 UNL     1      25.474   3.242  49.509  1.00  0.00     0.009 A 
HETATM   22  C19 UNL     1      26.481   4.169  49.522  1.00  0.00     0.001 A 
HETATM   23  C20 UNL     1      26.307   5.479  49.183  1.00  0.00     0.000 A 
HETATM   24  C21 UNL     1      25.026   5.875  48.807  1.00  0.00     0.001 A 
HETATM   25  C22 UNL     1      23.988   4.939  48.790  1.00  0.00     0.009 A 
ENDBRANCH  19  20
ENDBRANCH  18  19
ENDBRANCH   6  18
TORSDOF 7
ENDMDL
MODEL 8
REMARK VINA RESULT:      -7.3      2.056      5.374
REMARK  7 active torsions:
REMARK  status: ('A' for Active; 'I' for Inactive)
REMARK    1  A    between atoms: C2_2  and  C3_3 
REMARK    2  A    between atoms: C2_2  and  C9_10 
REMARK    3  A    between atoms: C3_3  and  N1_4 
REMARK    4  A    between atoms: C9_10  and  C10_12 
REMARK    5  A    between atoms: C15_17  and  O2_18 
REMARK    6  A    between atoms: O2_18  and  C16_19 
REMARK    7  A    between atoms: C16_19  and  C17_20 
ROOT
HETATM    1  C10 UNL     1      22.953   3.396  50.089  1.00  0.00     0.025 A 
HETATM    2  C11 UNL     1      23.220   4.335  49.196  1.00  0.00     0.014 A 
HETATM    3  C12 UNL     1      24.653   4.552  49.016  1.00  0.00     0.006 A 
HETATM    4  C13 UNL     1      25.228   3.678  49.863  1.00  0.00    -0.051 A 
HETATM    5  C14 UNL     1      26.731   3.657  49.909  1.00  0.00     0.046 C 
HETATM    6  C15 UNL     1      24.246   2.856  50.641  1.00  0.00     0.187 A 
ENDROOT
BRANCH   1   7
HETATM    7  C9  UNL     1      21.641   2.940  50.500  1.00  0.00     0.188 C 
HETATM    8  O1  UNL     1      20.863   3.695  51.131  1.00  0.00    -0.287 OA
BRANCH   7   9
HETATM    9  C2  UNL     1      21.085   1.624  50.253  1.00  0.00     0.011 C 
HETATM   10  C1  UNL     1      21.234   0.976  49.126  1.00  0.00     0.025 C 
BRANCH   9  11
HETATM   11  C3  UNL     1      20.295   0.889  51.259  1.00  0.00     0.314 C 
BRANCH  11  12
HETATM   12  N1  UNL     1      20.978   0.584  52.470  1.00  0.00     0.092 N 
HETATM   13  C4  UNL     1      21.592  -0.748  52.232  1.00  0.00     0.272 C 
HETATM   14  C5  UNL     1      22.629  -0.969  53.282  1.00  0.00     0.030 C 
HETATM   15  C6  UNL     1      21.927  -1.036  54.627  1.00  0.00     0.003 C 
HETATM   16  C7  UNL     1      21.038   0.181  54.826  1.00  0.00     0.030 C 
HETATM   17  C8  UNL     1      20.120   0.360  53.617  1.00  0.00     0.272 C 
ENDBRANCH  11  12
ENDBRANCH   9  11
ENDBRANCH   7   9
ENDBRANCH   1   7
BRANCH   6  18
HETATM   18  O2  UNL     1      24.274   3.122  51.969  1.00  0.00    -0.372 OA
BRANCH  18  19
HETATM   19  C16 UNL     1      24.280   2.124  52.877  1.00  0.00     0.207 C 
BRANCH  19  20
HETATM   20  C17 UNL     1      25.573   1.424  52.902  1.00  0.00    -0.035 A 
HETATM   21  C18 UNL     1      25.980   0.193  52.437  1.00  0.00     0.009 A 
HETATM   22  C19 UNL     1      27.278  -0.210  52.590  1.00  0.00     0.001 A 
HETATM   23  C20 UNL     1      28.240   0.547  53.193  1.00  0.00     0.000 A 
HETATM   24  C21 UNL     1      27.857   1.797  53.673  1.00  0.00     0.001 A 
HETATM   25  C22 UNL     1      26.534   2.222  53.524  1.00  0.00     0.009 A 
ENDBRANCH  19  20
ENDBRANCH  18  19
ENDBRANCH   6  18
TORSDOF 7
ENDMDL
MODEL 9
REMARK VINA RESULT:      -7.2      2.118      3.843
REMARK  7 active torsions:
REMARK  status: ('A' for Active; 'I' for Inactive)
REMARK    1  A    between atoms: C2_2  and  C3_3 
REMARK    2  A    between atoms: C2_2  and  C9_10 
REMARK    3  A    between atoms: C3_3  and  N1_4 
REMARK    4  A    between atoms: C9_10  and  C10_12 
REMARK    5  A    between atoms: C15_17  and  O2_18 
REMARK    6  A    between atoms: O2_18  and  C16_19 
REMARK    7  A    between atoms: C16_19  and  C17_20 
ROOT
HETATM    1  C10 UNL     1      23.039   1.620  52.534  1.00  0.00     0.025 A 
HETATM    2  C11 UNL     1      23.113   2.931  52.364  1.00  0.00     0.014 A 
HETATM    3  C12 UNL     1      24.431   3.369  51.913  1.00  0.00     0.006 A 
HETATM    4  C13 UNL     1      25.144   2.231  51.825  1.00  0.00    -0.051 A 
HETATM    5  C14 UNL     1      26.574   2.352  51.375  1.00  0.00     0.046 C 
HETATM    6  C15 UNL     1      24.374   1.004  52.207  1.00  0.00     0.187 A 
ENDROOT
BRANCH   1   7
HETATM    7  C9  UNL     1      21.882   0.867  52.971  1.00  0.00     0.188 C 
HETATM    8  O1  UNL     1      21.797   0.439  54.147  1.00  0.00    -0.287 OA
BRANCH   7   9
HETATM    9  C2  UNL     1      20.734   0.526  52.154  1.00  0.00     0.011 C 
HETATM   10  C1  UNL     1      19.547   0.277  52.643  1.00  0.00     0.025 C 
BRANCH   9  11
HETATM   11  C3  UNL     1      20.800   0.430  50.683  1.00  0.00     0.314 C 
BRANCH  11  12
HETATM   12  N1  UNL     1      21.417   1.532  50.025  1.00  0.00     0.092 N 
HETATM   13  C4  UNL     1      20.313   2.500  49.797  1.00  0.00     0.272 C 
HETATM   14  C5  UNL     1      20.924   3.822  49.470  1.00  0.00     0.030 C 
HETATM   15  C6  UNL     1      21.671   3.681  48.156  1.00  0.00     0.003 C 
HETATM   16  C7  UNL     1      22.635   2.507  48.213  1.00  0.00     0.030 C 
HETATM   17  C8  UNL     1      21.901   1.252  48.688  1.00  0.00     0.272 C 
ENDBRANCH  11  12
ENDBRANCH   9  11
ENDBRANCH   7   9
ENDBRANCH   1   7
BRANCH   6  18
HETATM   18  O2  UNL     1      24.846   0.414  53.332  1.00  0.00    -0.372 OA
BRANCH  18  19
HETATM   19  C16 UNL     1      25.376  -0.826  53.296  1.00  0.00     0.207 C 
BRANCH  19  20
HETATM   20  C17 UNL     1      26.836  -0.796  53.468  1.00  0.00    -0.035 A 
HETATM   21  C18 UNL     1      27.860  -1.519  52.898  1.00  0.00     0.009 A 
HETATM   22  C19 UNL     1      29.160  -1.269  53.245  1.00  0.00     0.001 A 
HETATM   23  C20 UNL     1      29.532  -0.318  54.149  1.00  0.00     0.000 A 
HETATM   24  C21 UNL     1      28.517   0.429  54.742  1.00  0.00     0.001 A 
HETATM   25  C22 UNL     1      27.185   0.184  54.397  1.00  0.00     0.009 A 
ENDBRANCH  19  20
ENDBRANCH  18  19
ENDBRANCH   6  18
TORSDOF 7
ENDMDL
