MODEL 1
REMARK VINA RESULT:      -9.1      0.000      0.000
REMARK  6 active torsions:
REMARK  status: ('A' for Active; 'I' for Inactive)
REMARK    1  A    between atoms: C7_7  and  N1_8 
REMARK    2  A    between atoms: N1_8  and  C8_9 
REMARK    3  A    between atoms: N4_19  and  C16_20 
REMARK    4  A    between atoms: C16_20  and  C17_21 
REMARK    5  A    between atoms: C17_21  and  N5_22 
REMARK    6  A    between atoms: N5_22  and  C18_23 
ROOT
HETATM    1  C1  UNL     1      29.806   5.657  48.086  1.00  0.00     0.018 C 
HETATM    2  C2  UNL     1      28.621   5.588  48.343  1.00  0.00    -0.078 C 
HETATM    3  C3  UNL     1      27.219   5.492  48.626  1.00  0.00     0.019 A 
HETATM    4  C4  UNL     1      26.471   6.634  48.360  1.00  0.00     0.021 A 
HETATM    5  C5  UNL     1      25.134   6.548  48.626  1.00  0.00     0.004 A 
HETATM    6  C6  UNL     1      24.498   5.438  49.126  1.00  0.00     0.029 A 
HETATM    7  C7  UNL     1      25.237   4.289  49.396  1.00  0.00     0.035 A 
HETATM    8  C22 UNL     1      26.601   4.372  49.126  1.00  0.00     0.050 A 
ENDROOT
BRANCH   7   9
HETATM    9  N1  UNL     1      24.713   3.070  49.913  1.00  0.00    -0.340 N 
HETATM   10  H5  UNL     1      25.521   2.450  50.115  1.00  0.00     0.167 HD
BRANCH   9  11
HETATM   11  C8  UNL     1      23.375   2.656  50.146  1.00  0.00     0.142 A 
HETATM   12  N2  UNL     1      22.329   3.050  49.437  1.00  0.00    -0.224 NA
HETATM   13  C9  UNL     1      21.061   2.688  49.648  1.00  0.00     0.236 A 
HETATM   14  N3  UNL     1      20.825   1.848  50.674  1.00  0.00    -0.241 NA
HETATM   15  C10 UNL     1      21.838   1.403  51.442  1.00  0.00     0.075 A 
HETATM   16  C11 UNL     1      21.524   0.552  52.476  1.00  0.00     0.071 A 
HETATM   17  C15 UNL     1      23.134   1.801  51.191  1.00  0.00     0.041 A 
HETATM   18  C12 UNL     1      22.472   0.036  53.329  1.00  0.00     0.098 A 
HETATM   19  C13 UNL     1      23.784   0.424  53.093  1.00  0.00     0.071 A 
HETATM   20  O2  UNL     1      22.114  -0.812  54.349  1.00  0.00    -0.340 OA
HETATM   21  C14 UNL     1      24.066   1.279  52.049  1.00  0.00     0.050 A 
HETATM   22  N4  UNL     1      24.828  -0.041  53.933  1.00  0.00    -0.312 N 
HETATM   23  C20 UNL     1      24.412  -0.902  54.996  1.00  0.00     0.248 C 
HETATM   24  O1  UNL     1      25.261  -1.270  55.855  1.00  0.00    -0.271 OA
HETATM   25  C21 UNL     1      23.038  -1.437  55.214  1.00  0.00     0.279 C 
BRANCH  22  26
HETATM   26  C16 UNL     1      26.230   0.291  53.792  1.00  0.00     0.151 C 
BRANCH  26  27
HETATM   27  C17 UNL     1      26.974  -0.578  52.836  1.00  0.00     0.134 C 
BRANCH  27  28
HETATM   28  N5  UNL     1      27.999  -1.312  53.509  1.00  0.00    -0.420 N 
HETATM   29  H13 UNL     1      28.464  -2.042  52.963  1.00  0.00     0.153 HD
BRANCH  28  30
HETATM   30  C18 UNL     1      28.901  -0.527  54.281  1.00  0.00     0.109 C 
HETATM   31  C19 UNL     1      30.115  -0.130  53.502  1.00  0.00     0.026 C 
ENDBRANCH  28  30
ENDBRANCH  27  28
ENDBRANCH  26  27
ENDBRANCH  22  26
ENDBRANCH   9  11
ENDBRANCH   7   9
TORSDOF 6
ENDMDL
MODEL 2
REMARK VINA RESULT:      -8.8      2.680      5.493
REMARK  6 active torsions:
REMARK  status: ('A' for Active; 'I' for Inactive)
REMARK    1  A    between atoms: C7_7  and  N1_8 
REMARK    2  A    between atoms: N1_8  and  C8_9 
REMARK    3  A    between atoms: N4_19  and  C16_20 
REMARK    4  A    between atoms: C16_20  and  C17_21 
REMARK    5  A    between atoms: C17_21  and  N5_22 
REMARK    6  A    between atoms: N5_22  and  C18_23 
ROOT
HETATM    1  C1  UNL     1      21.521   3.627  46.919  1.00  0.00     0.018 C 
HETATM    2  C2  UNL     1      21.347   3.263  48.065  1.00  0.00    -0.078 C 
HETATM    3  C3  UNL     1      21.124   2.817  49.409  1.00  0.00     0.019 A 
HETATM    4  C4  UNL     1      20.413   3.690  50.224  1.00  0.00     0.021 A 
HETATM    5  C5  UNL     1      20.196   3.270  51.505  1.00  0.00     0.004 A 
HETATM    6  C6  UNL     1      20.622   2.074  52.027  1.00  0.00     0.029 A 
HETATM    7  C7  UNL     1      21.335   1.190  51.220  1.00  0.00     0.035 A 
HETATM    8  C22 UNL     1      21.559   1.615  49.912  1.00  0.00     0.050 A 
ENDROOT
BRANCH   7   9
HETATM    9  N1  UNL     1      21.836  -0.080  51.624  1.00  0.00    -0.340 N 
HETATM   10  H5  UNL     1      22.023  -0.625  50.760  1.00  0.00     0.167 HD
BRANCH   9  11
HETATM   11  C8  UNL     1      22.072  -0.620  52.916  1.00  0.00     0.142 A 
HETATM   12  N2  UNL     1      21.158  -1.218  53.662  1.00  0.00    -0.224 NA
HETATM   13  C9  UNL     1      21.352  -1.717  54.886  1.00  0.00     0.236 A 
HETATM   14  N3  UNL     1      22.588  -1.601  55.407  1.00  0.00    -0.241 NA
HETATM   15  C10 UNL     1      23.573  -1.004  54.708  1.00  0.00     0.075 A 
HETATM   16  C11 UNL     1      24.810  -0.916  55.304  1.00  0.00     0.071 A 
HETATM   17  C15 UNL     1      23.331  -0.501  53.447  1.00  0.00     0.041 A 
HETATM   18  C12 UNL     1      25.891  -0.325  54.690  1.00  0.00     0.098 A 
HETATM   19  C13 UNL     1      25.668   0.187  53.419  1.00  0.00     0.071 A 
HETATM   20  O2  UNL     1      27.108  -0.258  55.322  1.00  0.00    -0.340 OA
HETATM   21  C14 UNL     1      24.417   0.084  52.849  1.00  0.00     0.050 A 
HETATM   22  N4  UNL     1      26.717   0.833  52.716  1.00  0.00    -0.312 N 
HETATM   23  C20 UNL     1      27.962   0.903  53.415  1.00  0.00     0.248 C 
HETATM   24  O1  UNL     1      28.915   1.557  52.909  1.00  0.00    -0.271 OA
HETATM   25  C21 UNL     1      28.277   0.264  54.725  1.00  0.00     0.279 C 
BRANCH  22  26
HETATM   26  C16 UNL     1      26.612   1.407  51.392  1.00  0.00     0.151 C 
BRANCH  26  27
HETATM   27  C17 UNL     1      26.216   2.845  51.374  1.00  0.00     0.134 C 
BRANCH  27  28
HETATM   28  N5  UNL     1      24.930   3.010  50.774  1.00  0.00    -0.420 N 
HETATM   29  H13 UNL     1      24.420   2.150  50.555  1.00  0.00     0.153 HD
BRANCH  28  30
HETATM   30  C18 UNL     1      24.110   4.014  51.362  1.00  0.00     0.109 C 
HETATM   31  C19 UNL     1      23.824   3.741  52.805  1.00  0.00     0.026 C 
ENDBRANCH  28  30
ENDBRANCH  27  28
ENDBRANCH  26  27
ENDBRANCH  22  26
ENDBRANCH   9  11
ENDBRANCH   7   9
TORSDOF 6
ENDMDL
MODEL 3
REMARK VINA RESULT:      -8.8      1.620      4.596
REMARK  6 active torsions:
REMARK  status: ('A' for Active; 'I' for Inactive)
REMARK    1  A    between atoms: C7_7  and  N1_8 
REMARK    2  A    between atoms: N1_8  and  C8_9 
REMARK    3  A    between atoms: N4_19  and  C16_20 
REMARK    4  A    between atoms: C16_20  and  C17_21 
REMARK    5  A    between atoms: C17_21  and  N5_22 
REMARK    6  A    between atoms: N5_22  and  C18_23 
ROOT
HETATM    1  C1  UNL     1      30.272   5.440  47.843  1.00  0.00     0.018 C 
HETATM    2  C2  UNL     1      29.103   5.434  48.171  1.00  0.00    -0.078 C 
HETATM    3  C3  UNL     1      27.717   5.410  48.539  1.00  0.00     0.019 A 
HETATM    4  C4  UNL     1      26.983   6.541  48.200  1.00  0.00     0.021 A 
HETATM    5  C5  UNL     1      25.663   6.523  48.547  1.00  0.00     0.004 A 
HETATM    6  C6  UNL     1      25.029   5.489  49.191  1.00  0.00     0.029 A 
HETATM    7  C7  UNL     1      25.754   4.350  49.535  1.00  0.00     0.035 A 
HETATM    8  C22 UNL     1      27.102   4.364  49.183  1.00  0.00     0.050 A 
ENDROOT
BRANCH   7   9
HETATM    9  N1  UNL     1      25.230   3.205  50.202  1.00  0.00    -0.340 N 
HETATM   10  H5  UNL     1      24.299   3.009  49.787  1.00  0.00     0.167 HD
BRANCH   9  11
HETATM   11  C8  UNL     1      25.770   2.409  51.246  1.00  0.00     0.142 A 
HETATM   12  N2  UNL     1      27.051   2.362  51.575  1.00  0.00    -0.224 NA
HETATM   13  C9  UNL     1      27.582   1.608  52.540  1.00  0.00     0.236 A 
HETATM   14  N3  UNL     1      26.741   0.826  53.241  1.00  0.00    -0.241 NA
HETATM   15  C10 UNL     1      25.422   0.818  52.966  1.00  0.00     0.075 A 
HETATM   16  C11 UNL     1      24.622  -0.009  53.719  1.00  0.00     0.071 A 
HETATM   17  C15 UNL     1      24.912   1.611  51.960  1.00  0.00     0.041 A 
HETATM   18  C12 UNL     1      23.262  -0.106  53.528  1.00  0.00     0.098 A 
HETATM   19  C13 UNL     1      22.729   0.687  52.519  1.00  0.00     0.071 A 
HETATM   20  O2  UNL     1      22.500  -0.945  54.303  1.00  0.00    -0.340 OA
HETATM   21  C14 UNL     1      23.558   1.505  51.782  1.00  0.00     0.050 A 
HETATM   22  N4  UNL     1      21.340   0.639  52.235  1.00  0.00    -0.312 N 
HETATM   23  C20 UNL     1      20.585  -0.262  53.047  1.00  0.00     0.248 C 
HETATM   24  O1  UNL     1      19.364  -0.448  52.787  1.00  0.00    -0.271 OA
HETATM   25  C21 UNL     1      21.094  -1.039  54.214  1.00  0.00     0.279 C 
BRANCH  22  26
HETATM   26  C16 UNL     1      20.666   1.412  51.213  1.00  0.00     0.151 C 
BRANCH  26  27
HETATM   27  C17 UNL     1      20.444   0.678  49.934  1.00  0.00     0.134 C 
BRANCH  27  28
HETATM   28  N5  UNL     1      20.602   1.551  48.814  1.00  0.00    -0.420 N 
HETATM   29  H13 UNL     1      19.739   1.865  48.362  1.00  0.00     0.153 HD
BRANCH  28  30
HETATM   30  C18 UNL     1      21.557   2.592  48.985  1.00  0.00     0.109 C 
HETATM   31  C19 UNL     1      22.604   2.583  47.916  1.00  0.00     0.026 C 
ENDBRANCH  28  30
ENDBRANCH  27  28
ENDBRANCH  26  27
ENDBRANCH  22  26
ENDBRANCH   9  11
ENDBRANCH   7   9
TORSDOF 6
ENDMDL
MODEL 4
REMARK VINA RESULT:      -8.7      1.739      4.884
REMARK  6 active torsions:
REMARK  status: ('A' for Active; 'I' for Inactive)
REMARK    1  A    between atoms: C7_7  and  N1_8 
REMARK    2  A    between atoms: N1_8  and  C8_9 
REMARK    3  A    between atoms: N4_19  and  C16_20 
REMARK    4  A    between atoms: C16_20  and  C17_21 
REMARK    5  A    between atoms: C17_21  and  N5_22 
REMARK    6  A    between atoms: N5_22  and  C18_23 
ROOT
HETATM    1  C1  UNL     1      24.611   8.818  49.668  1.00  0.00     0.018 C 
HETATM    2  C2  UNL     1      25.134   7.727  49.559  1.00  0.00    -0.078 C 
HETATM    3  C3  UNL     1      25.760   6.441  49.454  1.00  0.00     0.019 A 
HETATM    4  C4  UNL     1      26.906   6.391  48.670  1.00  0.00     0.021 A 
HETATM    5  C5  UNL     1      27.508   5.170  48.567  1.00  0.00     0.004 A 
HETATM    6  C6  UNL     1      27.067   4.018  49.172  1.00  0.00     0.029 A 
HETATM    7  C7  UNL     1      25.919   4.056  49.961  1.00  0.00     0.035 A 
HETATM    8  C22 UNL     1      25.302   5.301  50.068  1.00  0.00     0.050 A 
ENDROOT
BRANCH   7   9
HETATM    9  N1  UNL     1      25.348   2.946  50.646  1.00  0.00    -0.340 N 
HETATM   10  H5  UNL     1      24.370   2.851  50.313  1.00  0.00     0.167 HD
BRANCH   9  11
HETATM   11  C8  UNL     1      25.898   2.069  51.619  1.00  0.00     0.142 A 
HETATM   12  N2  UNL     1      27.188   1.956  51.889  1.00  0.00    -0.224 NA
HETATM   13  C9  UNL     1      27.728   1.127  52.786  1.00  0.00     0.236 A 
HETATM   14  N3  UNL     1      26.886   0.336  53.477  1.00  0.00    -0.241 NA
HETATM   15  C10 UNL     1      25.558   0.394  53.258  1.00  0.00     0.075 A 
HETATM   16  C11 UNL     1      24.756  -0.446  53.996  1.00  0.00     0.071 A 
HETATM   17  C15 UNL     1      25.039   1.263  52.322  1.00  0.00     0.041 A 
HETATM   18  C12 UNL     1      23.388  -0.481  53.857  1.00  0.00     0.098 A 
HETATM   19  C13 UNL     1      22.846   0.389  52.920  1.00  0.00     0.071 A 
HETATM   20  O2  UNL     1      22.625  -1.336  54.615  1.00  0.00    -0.340 OA
HETATM   21  C14 UNL     1      23.676   1.218  52.196  1.00  0.00     0.050 A 
HETATM   22  N4  UNL     1      21.445   0.410  52.693  1.00  0.00    -0.312 N 
HETATM   23  C20 UNL     1      20.689  -0.510  53.484  1.00  0.00     0.248 C 
HETATM   24  O1  UNL     1      19.452  -0.634  53.266  1.00  0.00    -0.271 OA
HETATM   25  C21 UNL     1      21.214  -1.372  54.581  1.00  0.00     0.279 C 
BRANCH  22  26
HETATM   26  C16 UNL     1      20.762   1.266  51.747  1.00  0.00     0.151 C 
BRANCH  26  27
HETATM   27  C17 UNL     1      20.328   2.578  52.307  1.00  0.00     0.134 C 
BRANCH  27  28
HETATM   28  N5  UNL     1      20.293   3.579  51.288  1.00  0.00    -0.420 N 
HETATM   29  H13 UNL     1      19.490   4.213  51.305  1.00  0.00     0.153 HD
BRANCH  28  30
HETATM   30  C18 UNL     1      21.528   4.243  51.046  1.00  0.00     0.109 C 
HETATM   31  C19 UNL     1      22.239   4.598  52.314  1.00  0.00     0.026 C 
ENDBRANCH  28  30
ENDBRANCH  27  28
ENDBRANCH  26  27
ENDBRANCH  22  26
ENDBRANCH   9  11
ENDBRANCH   7   9
TORSDOF 6
ENDMDL
MODEL 5
REMARK VINA RESULT:      -8.5      2.795      6.976
REMARK  6 active torsions:
REMARK  status: ('A' for Active; 'I' for Inactive)
REMARK    1  A    between atoms: C7_7  and  N1_8 
REMARK    2  A    between atoms: N1_8  and  C8_9 
REMARK    3  A    between atoms: N4_19  and  C16_20 
REMARK    4  A    between atoms: C16_20  and  C17_21 
REMARK    5  A    between atoms: C17_21  and  N5_22 
REMARK    6  A    between atoms: N5_22  and  C18_23 
ROOT
HETATM    1  C1  UNL     1      15.922  -0.949  52.203  1.00  0.00     0.018 C 
HETATM    2  C2  UNL     1      16.941  -0.473  51.744  1.00  0.00    -0.078 C 
HETATM    3  C3  UNL     1      18.146   0.104  51.222  1.00  0.00     0.019 A 
HETATM    4  C4  UNL     1      17.981   0.983  50.158  1.00  0.00     0.021 A 
HETATM    5  C5  UNL     1      19.125   1.537  49.658  1.00  0.00     0.004 A 
HETATM    6  C6  UNL     1      20.392   1.289  50.124  1.00  0.00     0.029 A 
HETATM    7  C7  UNL     1      20.569   0.410  51.191  1.00  0.00     0.035 A 
HETATM    8  C22 UNL     1      19.405  -0.158  51.704  1.00  0.00     0.050 A 
ENDROOT
BRANCH   7   9
HETATM    9  N1  UNL     1      21.820   0.060  51.776  1.00  0.00    -0.340 N 
HETATM   10  H5  UNL     1      22.560   0.324  51.098  1.00  0.00     0.167 HD
BRANCH   9  11
HETATM   11  C8  UNL     1      22.126  -0.543  53.024  1.00  0.00     0.142 A 
HETATM   12  N2  UNL     1      21.263  -1.211  53.772  1.00  0.00    -0.224 NA
HETATM   13  C9  UNL     1      21.525  -1.771  54.956  1.00  0.00     0.236 A 
HETATM   14  N3  UNL     1      22.778  -1.646  55.431  1.00  0.00    -0.241 NA
HETATM   15  C10 UNL     1      23.714  -0.980  54.727  1.00  0.00     0.075 A 
HETATM   16  C11 UNL     1      24.972  -0.886  55.275  1.00  0.00     0.071 A 
HETATM   17  C15 UNL     1      23.404  -0.415  53.509  1.00  0.00     0.041 A 
HETATM   18  C12 UNL     1      26.008  -0.228  54.652  1.00  0.00     0.098 A 
HETATM   19  C13 UNL     1      25.715   0.347  53.423  1.00  0.00     0.071 A 
HETATM   20  O2  UNL     1      27.249  -0.159  55.236  1.00  0.00    -0.340 OA
HETATM   21  C14 UNL     1      24.445   0.236  52.901  1.00  0.00     0.050 A 
HETATM   22  N4  UNL     1      26.715   1.064  52.715  1.00  0.00    -0.312 N 
HETATM   23  C20 UNL     1      27.986   1.134  53.365  1.00  0.00     0.248 C 
HETATM   24  O1  UNL     1      28.896   1.845  52.858  1.00  0.00    -0.271 OA
HETATM   25  C21 UNL     1      28.375   0.433  54.622  1.00  0.00     0.279 C 
BRANCH  22  26
HETATM   26  C16 UNL     1      26.535   1.707  51.431  1.00  0.00     0.151 C 
BRANCH  26  27
HETATM   27  C17 UNL     1      25.882   3.046  51.500  1.00  0.00     0.134 C 
BRANCH  27  28
HETATM   28  N5  UNL     1      24.775   3.118  50.600  1.00  0.00    -0.420 N 
HETATM   29  H13 UNL     1      24.782   2.455  49.821  1.00  0.00     0.153 HD
BRANCH  28  30
HETATM   30  C18 UNL     1      23.498   3.245  51.217  1.00  0.00     0.109 C 
HETATM   31  C19 UNL     1      23.568   3.975  52.521  1.00  0.00     0.026 C 
ENDBRANCH  28  30
ENDBRANCH  27  28
ENDBRANCH  26  27
ENDBRANCH  22  26
ENDBRANCH   9  11
ENDBRANCH   7   9
TORSDOF 6
ENDMDL
MODEL 6
REMARK VINA RESULT:      -8.3      3.358      8.373
REMARK  6 active torsions:
REMARK  status: ('A' for Active; 'I' for Inactive)
REMARK    1  A    between atoms: C7_7  and  N1_8 
REMARK    2  A    between atoms: N1_8  and  C8_9 
REMARK    3  A    between atoms: N4_19  and  C16_20 
REMARK    4  A    between atoms: C16_20  and  C17_21 
REMARK    5  A    between atoms: C17_21  and  N5_22 
REMARK    6  A    between atoms: N5_22  and  C18_23 
ROOT
HETATM    1  C1  UNL     1      17.105   0.257  50.020  1.00  0.00     0.018 C 
HETATM    2  C2  UNL     1      17.917   0.085  50.905  1.00  0.00    -0.078 C 
HETATM    3  C3  UNL     1      18.892  -0.131  51.935  1.00  0.00     0.019 A 
HETATM    4  C4  UNL     1      18.572  -1.105  52.873  1.00  0.00     0.021 A 
HETATM    5  C5  UNL     1      19.497  -1.317  53.855  1.00  0.00     0.004 A 
HETATM    6  C6  UNL     1      20.691  -0.648  53.974  1.00  0.00     0.029 A 
HETATM    7  C7  UNL     1      21.022   0.331  53.039  1.00  0.00     0.035 A 
HETATM    8  C22 UNL     1      20.081   0.550  52.035  1.00  0.00     0.050 A 
ENDROOT
BRANCH   7   9
HETATM    9  N1  UNL     1      22.220   1.101  53.036  1.00  0.00    -0.340 N 
HETATM   10  H5  UNL     1      21.947   2.092  53.181  1.00  0.00     0.167 HD
BRANCH   9  11
HETATM   11  C8  UNL     1      23.576   0.714  52.870  1.00  0.00     0.142 A 
HETATM   12  N2  UNL     1      24.128  -0.356  53.420  1.00  0.00    -0.224 NA
HETATM   13  C9  UNL     1      25.403  -0.729  53.292  1.00  0.00     0.236 A 
HETATM   14  N3  UNL     1      26.199   0.050  52.535  1.00  0.00    -0.241 NA
HETATM   15  C10 UNL     1      25.709   1.155  51.941  1.00  0.00     0.075 A 
HETATM   16  C11 UNL     1      26.580   1.908  51.186  1.00  0.00     0.071 A 
HETATM   17  C15 UNL     1      24.386   1.508  52.099  1.00  0.00     0.041 A 
HETATM   18  C12 UNL     1      26.197   3.059  50.537  1.00  0.00     0.098 A 
HETATM   19  C13 UNL     1      24.867   3.431  50.683  1.00  0.00     0.071 A 
HETATM   20  O2  UNL     1      27.099   3.780  49.793  1.00  0.00    -0.340 OA
HETATM   21  C14 UNL     1      24.020   2.656  51.446  1.00  0.00     0.050 A 
HETATM   22  N4  UNL     1      24.385   4.614  50.066  1.00  0.00    -0.312 N 
HETATM   23  C20 UNL     1      25.359   5.349  49.321  1.00  0.00     0.248 C 
HETATM   24  O1  UNL     1      25.042   6.469  48.834  1.00  0.00    -0.271 OA
HETATM   25  C21 UNL     1      26.761   4.926  49.040  1.00  0.00     0.279 C 
BRANCH  22  26
HETATM   26  C16 UNL     1      23.027   5.108  50.144  1.00  0.00     0.151 C 
BRANCH  26  27
HETATM   27  C17 UNL     1      22.727   5.891  51.377  1.00  0.00     0.134 C 
BRANCH  27  28
HETATM   28  N5  UNL     1      22.739   7.293  51.103  1.00  0.00    -0.420 N 
HETATM   29  H13 UNL     1      23.659   7.715  50.950  1.00  0.00     0.153 HD
BRANCH  28  30
HETATM   30  C18 UNL     1      21.756   7.740  50.177  1.00  0.00     0.109 C 
HETATM   31  C19 UNL     1      22.311   8.711  49.184  1.00  0.00     0.026 C 
ENDBRANCH  28  30
ENDBRANCH  27  28
ENDBRANCH  26  27
ENDBRANCH  22  26
ENDBRANCH   9  11
ENDBRANCH   7   9
TORSDOF 6
ENDMDL
MODEL 7
REMARK VINA RESULT:      -8.3      2.174      5.925
REMARK  6 active torsions:
REMARK  status: ('A' for Active; 'I' for Inactive)
REMARK    1  A    between atoms: C7_7  and  N1_8 
REMARK    2  A    between atoms: N1_8  and  C8_9 
REMARK    3  A    between atoms: N4_19  and  C16_20 
REMARK    4  A    between atoms: C16_20  and  C17_21 
REMARK    5  A    between atoms: C17_21  and  N5_22 
REMARK    6  A    between atoms: N5_22  and  C18_23 
ROOT
HETATM    1  C1  UNL     1      17.573   3.938  48.308  1.00  0.00     0.018 C 
HETATM    2  C2  UNL     1      18.533   3.318  48.720  1.00  0.00    -0.078 C 
HETATM    3  C3  UNL     1      19.678   2.608  49.212  1.00  0.00     0.019 A 
HETATM    4  C4  UNL     1      20.516   2.071  48.243  1.00  0.00     0.021 A 
HETATM    5  C5  UNL     1      21.609   1.395  48.705  1.00  0.00     0.004 A 
HETATM    6  C6  UNL     1      21.926   1.216  50.030  1.00  0.00     0.029 A 
HETATM    7  C7  UNL     1      21.093   1.751  51.010  1.00  0.00     0.035 A 
HETATM    8  C22 UNL     1      19.976   2.441  50.542  1.00  0.00     0.050 A 
ENDROOT
BRANCH   7   9
HETATM    9  N1  UNL     1      21.295   1.645  52.416  1.00  0.00    -0.340 N 
HETATM   10  H5  UNL     1      21.160   2.593  52.817  1.00  0.00     0.167 HD
BRANCH   9  11
HETATM   11  C8  UNL     1      21.627   0.529  53.228  1.00  0.00     0.142 A 
HETATM   12  N2  UNL     1      20.749  -0.318  53.741  1.00  0.00    -0.224 NA
HETATM   13  C9  UNL     1      21.036  -1.364  54.520  1.00  0.00     0.236 A 
HETATM   14  N3  UNL     1      22.334  -1.576  54.809  1.00  0.00    -0.241 NA
HETATM   15  C10 UNL     1      23.287  -0.758  54.323  1.00  0.00     0.075 A 
HETATM   16  C11 UNL     1      24.592  -1.031  54.662  1.00  0.00     0.071 A 
HETATM   17  C15 UNL     1      22.949   0.312  53.522  1.00  0.00     0.041 A 
HETATM   18  C12 UNL     1      25.649  -0.264  54.230  1.00  0.00     0.098 A 
HETATM   19  C13 UNL     1      25.329   0.819  53.421  1.00  0.00     0.071 A 
HETATM   20  O2  UNL     1      26.937  -0.573  54.593  1.00  0.00    -0.340 OA
HETATM   21  C14 UNL     1      24.012   1.066  53.099  1.00  0.00     0.050 A 
HETATM   22  N4  UNL     1      26.352   1.679  52.943  1.00  0.00    -0.312 N 
HETATM   23  C20 UNL     1      27.675   1.338  53.361  1.00  0.00     0.248 C 
HETATM   24  O1  UNL     1      28.629   2.113  53.074  1.00  0.00    -0.271 OA
HETATM   25  C21 UNL     1      28.075   0.122  54.127  1.00  0.00     0.279 C 
BRANCH  22  26
HETATM   26  C16 UNL     1      26.148   2.836  52.098  1.00  0.00     0.151 C 
BRANCH  26  27
HETATM   27  C17 UNL     1      26.474   2.612  50.660  1.00  0.00     0.134 C 
BRANCH  27  28
HETATM   28  N5  UNL     1      26.933   3.819  50.050  1.00  0.00    -0.420 N 
HETATM   29  H13 UNL     1      27.840   3.770  49.579  1.00  0.00     0.153 HD
BRANCH  28  30
HETATM   30  C18 UNL     1      25.953   4.535  49.306  1.00  0.00     0.109 C 
HETATM   31  C19 UNL     1      26.465   5.849  48.809  1.00  0.00     0.026 C 
ENDBRANCH  28  30
ENDBRANCH  27  28
ENDBRANCH  26  27
ENDBRANCH  22  26
ENDBRANCH   9  11
ENDBRANCH   7   9
TORSDOF 6
ENDMDL
MODEL 8
REMARK VINA RESULT:      -8.2      5.870      9.997
REMARK  6 active torsions:
REMARK  status: ('A' for Active; 'I' for Inactive)
REMARK    1  A    between atoms: C7_7  and  N1_8 
REMARK    2  A    between atoms: N1_8  and  C8_9 
REMARK    3  A    between atoms: N4_19  and  C16_20 
REMARK    4  A    between atoms: C16_20  and  C17_21 
REMARK    5  A    between atoms: C17_21  and  N5_22 
REMARK    6  A    between atoms: N5_22  and  C18_23 
ROOT
HETATM    1  C1  UNL     1      26.564   1.682  51.412  1.00  0.00     0.018 C 
HETATM    2  C2  UNL     1      26.405   2.672  50.726  1.00  0.00    -0.078 C 
HETATM    3  C3  UNL     1      26.227   3.855  49.935  1.00  0.00     0.019 A 
HETATM    4  C4  UNL     1      24.916   4.296  49.798  1.00  0.00     0.021 A 
HETATM    5  C5  UNL     1      24.740   5.424  49.048  1.00  0.00     0.004 A 
HETATM    6  C6  UNL     1      25.747   6.130  48.435  1.00  0.00     0.029 A 
HETATM    7  C7  UNL     1      27.064   5.697  48.566  1.00  0.00     0.035 A 
HETATM    8  C22 UNL     1      27.248   4.547  49.331  1.00  0.00     0.050 A 
ENDROOT
BRANCH   7   9
HETATM    9  N1  UNL     1      28.204   6.327  47.989  1.00  0.00    -0.340 N 
HETATM   10  H5  UNL     1      28.432   5.810  47.119  1.00  0.00     0.167 HD
BRANCH   9  11
HETATM   11  C8  UNL     1      28.972   7.440  48.424  1.00  0.00     0.142 A 
HETATM   12  N2  UNL     1      28.474   8.629  48.724  1.00  0.00    -0.224 NA
HETATM   13  C9  UNL     1      29.178   9.693  49.117  1.00  0.00     0.236 A 
HETATM   14  N3  UNL     1      30.512   9.544  49.218  1.00  0.00    -0.241 NA
HETATM   15  C10 UNL     1      31.093   8.363  48.930  1.00  0.00     0.075 A 
HETATM   16  C11 UNL     1      32.462   8.284  49.049  1.00  0.00     0.071 A 
HETATM   17  C15 UNL     1      30.332   7.288  48.526  1.00  0.00     0.041 A 
HETATM   18  C12 UNL     1      33.166   7.133  48.778  1.00  0.00     0.098 A 
HETATM   19  C13 UNL     1      32.416   6.038  48.371  1.00  0.00     0.071 A 
HETATM   20  O2  UNL     1      34.533   7.098  48.911  1.00  0.00    -0.340 OA
HETATM   21  C14 UNL     1      31.047   6.150  48.260  1.00  0.00     0.050 A 
HETATM   22  N4  UNL     1      33.058   4.814  48.050  1.00  0.00    -0.312 N 
HETATM   23  C20 UNL     1      34.481   4.824  48.178  1.00  0.00     0.248 C 
HETATM   24  O1  UNL     1      35.138   3.812  47.807  1.00  0.00    -0.271 OA
HETATM   25  C21 UNL     1      35.312   5.935  48.724  1.00  0.00     0.279 C 
BRANCH  22  26
HETATM   26  C16 UNL     1      32.390   3.606  47.614  1.00  0.00     0.151 C 
BRANCH  26  27
HETATM   27  C17 UNL     1      32.104   3.555  46.152  1.00  0.00     0.134 C 
BRANCH  27  28
HETATM   28  N5  UNL     1      33.249   3.952  45.396  1.00  0.00    -0.420 N 
HETATM   29  H13 UNL     1      33.793   3.197  44.970  1.00  0.00     0.153 HD
BRANCH  28  30
HETATM   30  C18 UNL     1      33.047   5.058  44.523  1.00  0.00     0.109 C 
HETATM   31  C19 UNL     1      33.492   4.767  43.125  1.00  0.00     0.026 C 
ENDBRANCH  28  30
ENDBRANCH  27  28
ENDBRANCH  26  27
ENDBRANCH  22  26
ENDBRANCH   9  11
ENDBRANCH   7   9
TORSDOF 6
ENDMDL
MODEL 9
REMARK VINA RESULT:      -8.0      3.254      6.925
REMARK  6 active torsions:
REMARK  status: ('A' for Active; 'I' for Inactive)
REMARK    1  A    between atoms: C7_7  and  N1_8 
REMARK    2  A    between atoms: N1_8  and  C8_9 
REMARK    3  A    between atoms: N4_19  and  C16_20 
REMARK    4  A    between atoms: C16_20  and  C17_21 
REMARK    5  A    between atoms: C17_21  and  N5_22 
REMARK    6  A    between atoms: N5_22  and  C18_23 
ROOT
HETATM    1  C1  UNL     1      24.258  -1.217  55.332  1.00  0.00     0.018 C 
HETATM    2  C2  UNL     1      23.348  -0.906  54.590  1.00  0.00    -0.078 C 
HETATM    3  C3  UNL     1      22.276  -0.515  53.721  1.00  0.00     0.019 A 
HETATM    4  C4  UNL     1      20.996  -0.822  54.168  1.00  0.00     0.021 A 
HETATM    5  C5  UNL     1      19.971  -0.450  53.346  1.00  0.00     0.004 A 
HETATM    6  C6  UNL     1      20.118   0.190  52.140  1.00  0.00     0.029 A 
HETATM    7  C7  UNL     1      21.396   0.503  51.682  1.00  0.00     0.035 A 
HETATM    8  C22 UNL     1      22.445   0.125  52.518  1.00  0.00     0.050 A 
ENDROOT
BRANCH   7   9
HETATM    9  N1  UNL     1      21.698   1.163  50.457  1.00  0.00    -0.340 N 
HETATM   10  H5  UNL     1      22.336   0.541  49.924  1.00  0.00     0.167 HD
BRANCH   9  11
HETATM   11  C8  UNL     1      21.283   2.422  49.951  1.00  0.00     0.142 A 
HETATM   12  N2  UNL     1      20.023   2.787  49.775  1.00  0.00    -0.224 NA
HETATM   13  C9  UNL     1      19.610   3.958  49.284  1.00  0.00     0.236 A 
HETATM   14  N3  UNL     1      20.560   4.848  48.939  1.00  0.00    -0.241 NA
HETATM   15  C10 UNL     1      21.865   4.550  49.088  1.00  0.00     0.075 A 
HETATM   16  C11 UNL     1      22.781   5.505  48.710  1.00  0.00     0.071 A 
HETATM   17  C15 UNL     1      22.250   3.329  49.598  1.00  0.00     0.041 A 
HETATM   18  C12 UNL     1      24.140   5.314  48.812  1.00  0.00     0.098 A 
HETATM   19  C13 UNL     1      24.548   4.089  49.324  1.00  0.00     0.071 A 
HETATM   20  O2  UNL     1      25.019   6.294  48.422  1.00  0.00    -0.340 OA
HETATM   21  C14 UNL     1      23.606   3.154  49.693  1.00  0.00     0.050 A 
HETATM   22  N4  UNL     1      25.930   3.793  49.447  1.00  0.00    -0.312 N 
HETATM   23  C20 UNL     1      26.813   4.829  49.009  1.00  0.00     0.248 C 
HETATM   24  O1  UNL     1      28.055   4.605  48.981  1.00  0.00    -0.271 OA
HETATM   25  C21 UNL     1      26.420   6.198  48.567  1.00  0.00     0.279 C 
BRANCH  22  26
HETATM   26  C16 UNL     1      26.481   2.558  49.962  1.00  0.00     0.151 C 
BRANCH  26  27
HETATM   27  C17 UNL     1      26.801   2.588  51.419  1.00  0.00     0.134 C 
BRANCH  27  28
HETATM   28  N5  UNL     1      25.902   1.754  52.153  1.00  0.00    -0.420 N 
HETATM   29  H13 UNL     1      26.154   0.764  52.214  1.00  0.00     0.153 HD
BRANCH  28  30
HETATM   30  C18 UNL     1      25.445   2.294  53.388  1.00  0.00     0.109 C 
HETATM   31  C19 UNL     1      24.268   3.201  53.209  1.00  0.00     0.026 C 
ENDBRANCH  28  30
ENDBRANCH  27  28
ENDBRANCH  26  27
ENDBRANCH  22  26
ENDBRANCH   9  11
ENDBRANCH   7   9
TORSDOF 6
ENDMDL
