MODEL 1
REMARK VINA RESULT:      -9.3      0.000      0.000
REMARK  5 active torsions:
REMARK  status: ('A' for Active; 'I' for Inactive)
REMARK    1  A    between atoms: C2_2  and  N1_3 
REMARK    2  A    between atoms: C12_15  and  N4_16 
REMARK       I    between atoms: N4_16  and  C13_17 
REMARK    3  A    between atoms: C13_17  and  C14_19 
REMARK    4  A    between atoms: C15_21  and  C16_22 
REMARK    5  A    between atoms: C16_22  and  N5_23 
ROOT
HETATM    1  C1  UNL     1      27.406  -0.526  53.630  1.00  0.00     0.059 C 
HETATM    2  C2  UNL     1      26.782   0.842  53.437  1.00  0.00     0.199 A 
HETATM    3  C3  UNL     1      27.438   1.644  52.437  1.00  0.00     0.019 A 
HETATM    4  C4  UNL     1      26.642   1.884  51.421  1.00  0.00    -0.001 A 
HETATM    5  C5  UNL     1      25.426   1.209  51.789  1.00  0.00     0.012 A 
HETATM    6  C6  UNL     1      25.389   0.580  52.926  1.00  0.00     0.013 A 
HETATM    7  C7  UNL     1      24.512  -0.160  53.809  1.00  0.00     0.080 A 
HETATM    8  N2  UNL     1      25.031  -0.856  54.827  1.00  0.00    -0.241 NA
HETATM    9  C8  UNL     1      24.308  -1.558  55.695  1.00  0.00     0.234 A 
HETATM   10  N3  UNL     1      22.973  -1.618  55.605  1.00  0.00    -0.241 NA
HETATM   11  C9  UNL     1      22.313  -0.958  54.621  1.00  0.00     0.070 A 
HETATM   12  C10 UNL     1      20.957  -1.002  54.549  1.00  0.00     0.035 A 
HETATM   13  C11 UNL     1      20.302  -0.301  53.561  1.00  0.00     0.032 A 
HETATM   14  C12 UNL     1      21.091   0.433  52.668  1.00  0.00     0.035 A 
HETATM   15  C22 UNL     1      22.456   0.424  52.809  1.00  0.00     0.045 A 
HETATM   16  C23 UNL     1      23.144  -0.263  53.777  1.00  0.00     0.024 A 
ENDROOT
BRANCH  14  17
HETATM   17  N4  UNL     1      20.382   1.146  51.665  1.00  0.00    -0.325 N 
HETATM   18  C13 UNL     1      19.810   2.471  51.804  1.00  0.00     0.254 C 
HETATM   19  O1  UNL     1      20.148   2.709  53.016  1.00  0.00    -0.270 OA
HETATM   20  H12 UNL     1      20.375   0.492  50.820  1.00  0.00     0.169 HD
BRANCH  18  21
HETATM   21  C14 UNL     1      19.124   2.968  50.585  1.00  0.00     0.244 A 
HETATM   22  O2  UNL     1      18.612   4.265  50.569  1.00  0.00    -0.364 OA
HETATM   23  C15 UNL     1      19.834   4.055  49.847  1.00  0.00     0.178 A 
BRANCH  23  24
HETATM   24  C16 UNL     1      20.948   4.858  50.471  1.00  0.00     0.151 C 
BRANCH  24  25
HETATM   25  N5  UNL     1      22.156   4.600  49.742  1.00  0.00    -0.410 N 
HETATM   26  C17 UNL     1      22.675   5.606  48.939  1.00  0.00     0.117 C 
HETATM   27  C18 UNL     1      24.158   5.706  48.809  1.00  0.00     0.019 C 
HETATM   28  C19 UNL     1      24.903   4.526  49.377  1.00  0.00     0.003 C 
HETATM   29  C20 UNL     1      24.051   3.296  49.149  1.00  0.00     0.019 C 
HETATM   30  C21 UNL     1      22.855   3.430  50.032  1.00  0.00     0.117 C 
ENDBRANCH  24  25
ENDBRANCH  23  24
ENDBRANCH  18  21
ENDBRANCH  14  17
BRANCH   2  31
HETATM   31  N1  UNL     1      26.624   1.531  54.710  1.00  0.00     0.096 N 
HETATM   32  H4  UNL     1      26.869   2.527  54.645  1.00  0.00     0.314 HD
HETATM   33  H5  UNL     1      25.638   1.398  54.994  1.00  0.00     0.314 HD
ENDBRANCH   2  31
TORSDOF 5
ENDMDL
MODEL 2
REMARK VINA RESULT:      -8.9      1.813      2.466
REMARK  5 active torsions:
REMARK  status: ('A' for Active; 'I' for Inactive)
REMARK    1  A    between atoms: C2_2  and  N1_3 
REMARK    2  A    between atoms: C12_15  and  N4_16 
REMARK       I    between atoms: N4_16  and  C13_17 
REMARK    3  A    between atoms: C13_17  and  C14_19 
REMARK    4  A    between atoms: C15_21  and  C16_22 
REMARK    5  A    between atoms: C16_22  and  N5_23 
ROOT
HETATM    1  C1  UNL     1      26.614  -1.068  53.386  1.00  0.00     0.059 C 
HETATM    2  C2  UNL     1      26.601   0.436  53.574  1.00  0.00     0.199 A 
HETATM    3  C3  UNL     1      27.714   1.109  52.953  1.00  0.00     0.019 A 
HETATM    4  C4  UNL     1      27.311   1.904  51.989  1.00  0.00    -0.001 A 
HETATM    5  C5  UNL     1      25.883   1.734  51.997  1.00  0.00     0.012 A 
HETATM    6  C6  UNL     1      25.362   0.919  52.865  1.00  0.00     0.013 A 
HETATM    7  C7  UNL     1      24.101   0.422  53.372  1.00  0.00     0.080 A 
HETATM    8  N2  UNL     1      24.084  -0.656  54.165  1.00  0.00    -0.241 NA
HETATM    9  C8  UNL     1      22.977  -1.180  54.686  1.00  0.00     0.234 A 
HETATM   10  N3  UNL     1      21.772  -0.650  54.444  1.00  0.00    -0.241 NA
HETATM   11  C9  UNL     1      21.641   0.448  53.658  1.00  0.00     0.070 A 
HETATM   12  C10 UNL     1      20.418   0.996  53.436  1.00  0.00     0.035 A 
HETATM   13  C11 UNL     1      20.307   2.128  52.659  1.00  0.00     0.032 A 
HETATM   14  C12 UNL     1      21.490   2.659  52.132  1.00  0.00     0.035 A 
HETATM   15  C22 UNL     1      22.686   2.043  52.403  1.00  0.00     0.045 A 
HETATM   16  C23 UNL     1      22.836   0.915  53.168  1.00  0.00     0.024 A 
ENDROOT
BRANCH  14  17
HETATM   17  N4  UNL     1      21.339   3.828  51.340  1.00  0.00    -0.325 N 
HETATM   18  C13 UNL     1      21.838   5.150  51.666  1.00  0.00     0.254 C 
HETATM   19  O1  UNL     1      22.390   4.884  52.791  1.00  0.00    -0.270 OA
HETATM   20  H12 UNL     1      20.789   3.506  50.482  1.00  0.00     0.169 HD
BRANCH  18  21
HETATM   21  C14 UNL     1      21.531   6.185  50.647  1.00  0.00     0.244 A 
HETATM   22  O2  UNL     1      21.795   7.524  50.931  1.00  0.00    -0.364 OA
HETATM   23  C15 UNL     1      22.717   6.868  50.048  1.00  0.00     0.178 A 
BRANCH  23  24
HETATM   24  C16 UNL     1      24.085   6.808  50.681  1.00  0.00     0.151 C 
BRANCH  24  25
HETATM   25  N5  UNL     1      24.957   6.077  49.806  1.00  0.00    -0.410 N 
HETATM   26  C17 UNL     1      25.548   6.748  48.746  1.00  0.00     0.117 C 
HETATM   27  C18 UNL     1      26.921   6.335  48.331  1.00  0.00     0.019 C 
HETATM   28  C19 UNL     1      27.393   5.054  48.968  1.00  0.00     0.003 C 
HETATM   29  C20 UNL     1      26.185   4.157  49.139  1.00  0.00     0.019 C 
HETATM   30  C21 UNL     1      25.324   4.787  50.183  1.00  0.00     0.117 C 
ENDBRANCH  24  25
ENDBRANCH  23  24
ENDBRANCH  18  21
ENDBRANCH  14  17
BRANCH   2  31
HETATM   31  N1  UNL     1      26.430   0.788  54.976  1.00  0.00     0.096 N 
HETATM   32  H4  UNL     1      25.716   1.516  55.108  1.00  0.00     0.314 HD
HETATM   33  H5  UNL     1      26.178  -0.088  55.468  1.00  0.00     0.314 HD
ENDBRANCH   2  31
TORSDOF 5
ENDMDL
MODEL 3
REMARK VINA RESULT:      -8.4      2.610      4.684
REMARK  5 active torsions:
REMARK  status: ('A' for Active; 'I' for Inactive)
REMARK    1  A    between atoms: C2_2  and  N1_3 
REMARK    2  A    between atoms: C12_15  and  N4_16 
REMARK       I    between atoms: N4_16  and  C13_17 
REMARK    3  A    between atoms: C13_17  and  C14_19 
REMARK    4  A    between atoms: C15_21  and  C16_22 
REMARK    5  A    between atoms: C16_22  and  N5_23 
ROOT
HETATM    1  C1  UNL     1      27.304  -0.275  53.467  1.00  0.00     0.059 C 
HETATM    2  C2  UNL     1      26.632   1.071  53.281  1.00  0.00     0.199 A 
HETATM    3  C3  UNL     1      27.247   1.892  52.269  1.00  0.00     0.019 A 
HETATM    4  C4  UNL     1      26.429   2.103  51.264  1.00  0.00    -0.001 A 
HETATM    5  C5  UNL     1      25.242   1.388  51.650  1.00  0.00     0.012 A 
HETATM    6  C6  UNL     1      25.241   0.760  52.788  1.00  0.00     0.013 A 
HETATM    7  C7  UNL     1      24.402  -0.007  53.685  1.00  0.00     0.080 A 
HETATM    8  N2  UNL     1      24.959  -0.682  54.697  1.00  0.00    -0.241 NA
HETATM    9  C8  UNL     1      24.271  -1.407  55.576  1.00  0.00     0.234 A 
HETATM   10  N3  UNL     1      22.938  -1.511  55.505  1.00  0.00    -0.241 NA
HETATM   11  C9  UNL     1      22.242  -0.876  54.529  1.00  0.00     0.070 A 
HETATM   12  C10 UNL     1      20.888  -0.966  54.476  1.00  0.00     0.035 A 
HETATM   13  C11 UNL     1      20.196  -0.290  53.495  1.00  0.00     0.032 A 
HETATM   14  C12 UNL     1      20.948   0.468  52.590  1.00  0.00     0.035 A 
HETATM   15  C22 UNL     1      22.314   0.506  52.713  1.00  0.00     0.045 A 
HETATM   16  C23 UNL     1      23.038  -0.155  53.672  1.00  0.00     0.024 A 
ENDROOT
BRANCH  14  17
HETATM   17  N4  UNL     1      20.202   1.155  51.596  1.00  0.00    -0.325 N 
HETATM   18  C13 UNL     1      19.664   2.496  51.708  1.00  0.00     0.254 C 
HETATM   19  O1  UNL     1      20.069   2.777  52.890  1.00  0.00    -0.270 OA
HETATM   20  H12 UNL     1      20.138   0.467  50.781  1.00  0.00     0.169 HD
BRANCH  18  21
HETATM   21  C14 UNL     1      18.925   2.958  50.507  1.00  0.00     0.244 A 
HETATM   22  O2  UNL     1      18.097   2.066  49.826  1.00  0.00    -0.364 OA
HETATM   23  C15 UNL     1      17.440   3.036  50.656  1.00  0.00     0.178 A 
BRANCH  23  24
HETATM   24  C16 UNL     1      16.707   2.344  51.778  1.00  0.00     0.151 C 
BRANCH  24  25
HETATM   25  N5  UNL     1      15.327   2.734  51.725  1.00  0.00    -0.410 N 
HETATM   26  C17 UNL     1      14.429   2.113  52.580  1.00  0.00     0.117 C 
HETATM   27  C18 UNL     1      13.287   2.919  53.105  1.00  0.00     0.019 C 
HETATM   28  C19 UNL     1      13.117   4.253  52.426  1.00  0.00     0.003 C 
HETATM   29  C20 UNL     1      13.521   4.083  50.977  1.00  0.00     0.019 C 
HETATM   30  C21 UNL     1      14.996   3.853  50.963  1.00  0.00     0.117 C 
ENDBRANCH  24  25
ENDBRANCH  23  24
ENDBRANCH  18  21
ENDBRANCH  14  17
BRANCH   2  31
HETATM   31  N1  UNL     1      26.469   1.756  54.554  1.00  0.00     0.096 N 
HETATM   32  H4  UNL     1      27.025   2.620  54.604  1.00  0.00     0.314 HD
HETATM   33  H5  UNL     1      25.456   1.948  54.655  1.00  0.00     0.314 HD
ENDBRANCH   2  31
TORSDOF 5
ENDMDL
MODEL 4
REMARK VINA RESULT:      -8.3      7.975     12.144
REMARK  5 active torsions:
REMARK  status: ('A' for Active; 'I' for Inactive)
REMARK    1  A    between atoms: C2_2  and  N1_3 
REMARK    2  A    between atoms: C12_15  and  N4_16 
REMARK       I    between atoms: N4_16  and  C13_17 
REMARK    3  A    between atoms: C13_17  and  C14_19 
REMARK    4  A    between atoms: C15_21  and  C16_22 
REMARK    5  A    between atoms: C16_22  and  N5_23 
ROOT
HETATM    1  C1  UNL     1      25.110   6.713  48.192  1.00  0.00     0.059 C 
HETATM    2  C2  UNL     1      26.245   6.315  49.114  1.00  0.00     0.199 A 
HETATM    3  C3  UNL     1      26.590   4.918  49.040  1.00  0.00     0.019 A 
HETATM    4  C4  UNL     1      27.807   4.752  48.578  1.00  0.00    -0.001 A 
HETATM    5  C5  UNL     1      28.258   6.098  48.348  1.00  0.00     0.012 A 
HETATM    6  C6  UNL     1      27.448   7.076  48.622  1.00  0.00     0.013 A 
HETATM    7  C7  UNL     1      27.355   8.520  48.672  1.00  0.00     0.080 A 
HETATM    8  N2  UNL     1      26.157   9.103  48.801  1.00  0.00    -0.241 NA
HETATM    9  C8  UNL     1      25.972  10.419  48.865  1.00  0.00     0.234 A 
HETATM   10  N3  UNL     1      27.001  11.274  48.801  1.00  0.00    -0.241 NA
HETATM   11  C9  UNL     1      28.273  10.821  48.671  1.00  0.00     0.070 A 
HETATM   12  C10 UNL     1      29.315  11.691  48.631  1.00  0.00     0.035 A 
HETATM   13  C11 UNL     1      30.602  11.212  48.529  1.00  0.00     0.032 A 
HETATM   14  C12 UNL     1      30.764   9.823  48.471  1.00  0.00     0.035 A 
HETATM   15  C22 UNL     1      29.658   9.012  48.516  1.00  0.00     0.045 A 
HETATM   16  C23 UNL     1      28.362   9.451  48.615  1.00  0.00     0.024 A 
ENDROOT
BRANCH  14  17
HETATM   17  N4  UNL     1      32.104   9.364  48.371  1.00  0.00    -0.325 N 
HETATM   18  C13 UNL     1      32.724   8.793  47.192  1.00  0.00     0.254 C 
HETATM   19  O1  UNL     1      31.728   8.857  46.390  1.00  0.00    -0.270 OA
HETATM   20  H12 UNL     1      32.523   9.535  49.340  1.00  0.00     0.169 HD
BRANCH  18  21
HETATM   21  C14 UNL     1      34.144   8.401  47.380  1.00  0.00     0.244 A 
HETATM   22  O2  UNL     1      34.609   8.108  48.661  1.00  0.00    -0.364 OA
HETATM   23  C15 UNL     1      34.369   6.985  47.801  1.00  0.00     0.178 A 
BRANCH  23  24
HETATM   24  C16 UNL     1      33.263   6.128  48.365  1.00  0.00     0.151 C 
BRANCH  24  25
HETATM   25  N5  UNL     1      33.119   4.968  47.533  1.00  0.00    -0.410 N 
HETATM   26  C17 UNL     1      34.256   4.416  46.962  1.00  0.00     0.117 C 
HETATM   27  C18 UNL     1      34.302   2.935  46.781  1.00  0.00     0.019 C 
HETATM   28  C19 UNL     1      32.982   2.249  47.016  1.00  0.00     0.003 C 
HETATM   29  C20 UNL     1      31.890   3.189  46.552  1.00  0.00     0.019 C 
HETATM   30  C21 UNL     1      31.877   4.339  47.503  1.00  0.00     0.117 C 
ENDBRANCH  24  25
ENDBRANCH  23  24
ENDBRANCH  18  21
ENDBRANCH  14  17
BRANCH   2  31
HETATM   31  N1  UNL     1      26.001   6.773  50.474  1.00  0.00     0.096 N 
HETATM   32  H4  UNL     1      25.888   5.992  51.132  1.00  0.00     0.314 HD
HETATM   33  H5  UNL     1      26.806   7.373  50.728  1.00  0.00     0.314 HD
ENDBRANCH   2  31
TORSDOF 5
ENDMDL
MODEL 5
REMARK VINA RESULT:      -8.2      3.291      4.618
REMARK  5 active torsions:
REMARK  status: ('A' for Active; 'I' for Inactive)
REMARK    1  A    between atoms: C2_2  and  N1_3 
REMARK    2  A    between atoms: C12_15  and  N4_16 
REMARK       I    between atoms: N4_16  and  C13_17 
REMARK    3  A    between atoms: C13_17  and  C14_19 
REMARK    4  A    between atoms: C15_21  and  C16_22 
REMARK    5  A    between atoms: C16_22  and  N5_23 
ROOT
HETATM    1  C1  UNL     1      26.490  -1.597  52.936  1.00  0.00     0.059 C 
HETATM    2  C2  UNL     1      26.861  -0.328  53.678  1.00  0.00     0.199 A 
HETATM    3  C3  UNL     1      28.266  -0.016  53.627  1.00  0.00     0.019 A 
HETATM    4  C4  UNL     1      28.481   1.105  52.978  1.00  0.00    -0.001 A 
HETATM    5  C5  UNL     1      27.159   1.526  52.600  1.00  0.00     0.012 A 
HETATM    6  C6  UNL     1      26.151   0.784  52.950  1.00  0.00     0.013 A 
HETATM    7  C7  UNL     1      24.705   0.716  52.932  1.00  0.00     0.080 A 
HETATM    8  N2  UNL     1      24.092  -0.436  53.227  1.00  0.00    -0.241 NA
HETATM    9  C8  UNL     1      22.771  -0.594  53.245  1.00  0.00     0.234 A 
HETATM   10  N3  UNL     1      21.942   0.419  52.963  1.00  0.00    -0.241 NA
HETATM   11  C9  UNL     1      22.427   1.646  52.648  1.00  0.00     0.070 A 
HETATM   12  C10 UNL     1      21.581   2.676  52.386  1.00  0.00     0.035 A 
HETATM   13  C11 UNL     1      22.092   3.923  52.099  1.00  0.00     0.032 A 
HETATM   14  C12 UNL     1      23.485   4.058  52.093  1.00  0.00     0.035 A 
HETATM   15  C22 UNL     1      24.269   2.966  52.368  1.00  0.00     0.045 A 
HETATM   16  C23 UNL     1      23.799   1.710  52.656  1.00  0.00     0.024 A 
ENDROOT
BRANCH  14  17
HETATM   17  N4  UNL     1      23.975   5.357  51.797  1.00  0.00    -0.325 N 
HETATM   18  C13 UNL     1      24.043   5.965  50.483  1.00  0.00     0.254 C 
HETATM   19  O1  UNL     1      23.554   5.004  49.792  1.00  0.00    -0.270 OA
HETATM   20  H12 UNL     1      24.271   5.757  52.743  1.00  0.00     0.169 HD
BRANCH  18  21
HETATM   21  C14 UNL     1      24.603   7.339  50.476  1.00  0.00     0.244 A 
HETATM   22  O2  UNL     1      25.982   7.517  50.587  1.00  0.00    -0.364 OA
HETATM   23  C15 UNL     1      25.422   7.693  49.277  1.00  0.00     0.178 A 
BRANCH  23  24
HETATM   24  C16 UNL     1      25.967   6.646  48.337  1.00  0.00     0.151 C 
BRANCH  24  25
HETATM   25  N5  UNL     1      27.328   6.980  48.028  1.00  0.00    -0.410 N 
HETATM   26  C17 UNL     1      27.629   8.290  47.687  1.00  0.00     0.117 C 
HETATM   27  C18 UNL     1      28.956   8.836  48.098  1.00  0.00     0.019 C 
HETATM   28  C19 UNL     1      29.911   7.793  48.618  1.00  0.00     0.003 C 
HETATM   29  C20 UNL     1      29.650   6.513  47.854  1.00  0.00     0.019 C 
HETATM   30  C21 UNL     1      28.307   6.021  48.281  1.00  0.00     0.117 C 
ENDBRANCH  24  25
ENDBRANCH  23  24
ENDBRANCH  18  21
ENDBRANCH  14  17
BRANCH   2  31
HETATM   31  N1  UNL     1      26.324  -0.336  55.031  1.00  0.00     0.096 N 
HETATM   32  H4  UNL     1      25.309  -0.169  55.046  1.00  0.00     0.314 HD
HETATM   33  H5  UNL     1      26.566  -1.257  55.436  1.00  0.00     0.314 HD
ENDBRANCH   2  31
TORSDOF 5
ENDMDL
MODEL 6
REMARK VINA RESULT:      -8.2      3.626      5.775
REMARK  5 active torsions:
REMARK  status: ('A' for Active; 'I' for Inactive)
REMARK    1  A    between atoms: C2_2  and  N1_3 
REMARK    2  A    between atoms: C12_15  and  N4_16 
REMARK       I    between atoms: N4_16  and  C13_17 
REMARK    3  A    between atoms: C13_17  and  C14_19 
REMARK    4  A    between atoms: C15_21  and  C16_22 
REMARK    5  A    between atoms: C16_22  and  N5_23 
ROOT
HETATM    1  C1  UNL     1      26.248   1.461  51.385  1.00  0.00     0.059 C 
HETATM    2  C2  UNL     1      25.270   2.615  51.489  1.00  0.00     0.199 A 
HETATM    3  C3  UNL     1      25.434   3.609  50.458  1.00  0.00     0.019 A 
HETATM    4  C4  UNL     1      24.376   3.668  49.682  1.00  0.00    -0.001 A 
HETATM    5  C5  UNL     1      23.502   2.672  50.241  1.00  0.00     0.012 A 
HETATM    6  C6  UNL     1      23.907   2.007  51.281  1.00  0.00     0.013 A 
HETATM    7  C7  UNL     1      23.493   1.019  52.254  1.00  0.00     0.080 A 
HETATM    8  N2  UNL     1      24.407   0.446  53.047  1.00  0.00    -0.241 NA
HETATM    9  C8  UNL     1      24.123  -0.464  53.975  1.00  0.00     0.234 A 
HETATM   10  N3  UNL     1      22.867  -0.880  54.184  1.00  0.00    -0.241 NA
HETATM   11  C9  UNL     1      21.839  -0.382  53.453  1.00  0.00     0.070 A 
HETATM   12  C10 UNL     1      20.564  -0.789  53.687  1.00  0.00     0.035 A 
HETATM   13  C11 UNL     1      19.530  -0.250  52.955  1.00  0.00     0.032 A 
HETATM   14  C12 UNL     1      19.861   0.709  51.991  1.00  0.00     0.035 A 
HETATM   15  C22 UNL     1      21.174   1.066  51.817  1.00  0.00     0.045 A 
HETATM   16  C23 UNL     1      22.232   0.550  52.523  1.00  0.00     0.024 A 
ENDROOT
BRANCH  14  17
HETATM   17  N4  UNL     1      18.770   1.247  51.258  1.00  0.00    -0.325 N 
HETATM   18  C13 UNL     1      18.208   2.574  51.416  1.00  0.00     0.254 C 
HETATM   19  O1  UNL     1      18.976   3.008  52.344  1.00  0.00    -0.270 OA
HETATM   20  H12 UNL     1      18.477   0.464  50.593  1.00  0.00     0.169 HD
BRANCH  18  21
HETATM   21  C14 UNL     1      17.067   2.864  50.511  1.00  0.00     0.244 A 
HETATM   22  O2  UNL     1      15.997   1.973  50.451  1.00  0.00    -0.364 OA
HETATM   23  C15 UNL     1      15.775   3.184  51.189  1.00  0.00     0.178 A 
BRANCH  23  24
HETATM   24  C16 UNL     1      15.528   2.867  52.643  1.00  0.00     0.151 C 
BRANCH  24  25
HETATM   25  N5  UNL     1      14.158   3.167  52.945  1.00  0.00    -0.410 N 
HETATM   26  C17 UNL     1      13.211   2.165  52.793  1.00  0.00     0.117 C 
HETATM   27  C18 UNL     1      12.055   2.142  53.738  1.00  0.00     0.019 C 
HETATM   28  C19 UNL     1      11.937   3.378  54.590  1.00  0.00     0.003 C 
HETATM   29  C20 UNL     1      12.409   4.552  53.759  1.00  0.00     0.019 C 
HETATM   30  C21 UNL     1      13.880   4.382  53.567  1.00  0.00     0.117 C 
ENDBRANCH  24  25
ENDBRANCH  23  24
ENDBRANCH  18  21
ENDBRANCH  14  17
BRANCH   2  31
HETATM   31  N1  UNL     1      25.264   3.178  52.831  1.00  0.00     0.096 N 
HETATM   32  H4  UNL     1      26.212   3.253  53.224  1.00  0.00     0.314 HD
HETATM   33  H5  UNL     1      24.807   4.104  52.757  1.00  0.00     0.314 HD
ENDBRANCH   2  31
TORSDOF 5
ENDMDL
MODEL 7
REMARK VINA RESULT:      -8.0      2.424      4.851
REMARK  5 active torsions:
REMARK  status: ('A' for Active; 'I' for Inactive)
REMARK    1  A    between atoms: C2_2  and  N1_3 
REMARK    2  A    between atoms: C12_15  and  N4_16 
REMARK       I    between atoms: N4_16  and  C13_17 
REMARK    3  A    between atoms: C13_17  and  C14_19 
REMARK    4  A    between atoms: C15_21  and  C16_22 
REMARK    5  A    between atoms: C16_22  and  N5_23 
ROOT
HETATM    1  C1  UNL     1      23.052  -1.288  55.316  1.00  0.00     0.059 C 
HETATM    2  C2  UNL     1      22.213  -1.043  54.077  1.00  0.00     0.199 A 
HETATM    3  C3  UNL     1      20.807  -0.886  54.349  1.00  0.00     0.019 A 
HETATM    4  C4  UNL     1      20.395   0.322  54.042  1.00  0.00    -0.001 A 
HETATM    5  C5  UNL     1      21.587   0.962  53.553  1.00  0.00     0.012 A 
HETATM    6  C6  UNL     1      22.690   0.275  53.524  1.00  0.00     0.013 A 
HETATM    7  C7  UNL     1      24.076   0.332  53.110  1.00  0.00     0.080 A 
HETATM    8  N2  UNL     1      24.933  -0.605  53.534  1.00  0.00    -0.241 NA
HETATM    9  C8  UNL     1      26.220  -0.642  53.201  1.00  0.00     0.234 A 
HETATM   10  N3  UNL     1      26.761   0.283  52.397  1.00  0.00    -0.241 NA
HETATM   11  C9  UNL     1      26.008   1.291  51.892  1.00  0.00     0.070 A 
HETATM   12  C10 UNL     1      26.556   2.212  51.058  1.00  0.00     0.035 A 
HETATM   13  C11 UNL     1      25.768   3.211  50.531  1.00  0.00     0.032 A 
HETATM   14  C12 UNL     1      24.417   3.219  50.895  1.00  0.00     0.035 A 
HETATM   15  C22 UNL     1      23.942   2.252  51.744  1.00  0.00     0.045 A 
HETATM   16  C23 UNL     1      24.694   1.244  52.291  1.00  0.00     0.024 A 
ENDROOT
BRANCH  14  17
HETATM   17  N4  UNL     1      23.634   4.260  50.329  1.00  0.00    -0.325 N 
HETATM   18  C13 UNL     1      23.076   5.391  51.043  1.00  0.00     0.254 C 
HETATM   19  O1  UNL     1      23.507   5.120  52.218  1.00  0.00    -0.270 OA
HETATM   20  H12 UNL     1      23.560   4.011  49.292  1.00  0.00     0.169 HD
BRANCH  18  21
HETATM   21  C14 UNL     1      22.298   6.325  50.190  1.00  0.00     0.244 A 
HETATM   22  O2  UNL     1      21.830   7.520  50.734  1.00  0.00    -0.364 OA
HETATM   23  C15 UNL     1      22.974   7.619  49.873  1.00  0.00     0.178 A 
BRANCH  23  24
HETATM   24  C16 UNL     1      24.166   8.117  50.652  1.00  0.00     0.151 C 
BRANCH  24  25
HETATM   25  N5  UNL     1      25.307   8.114  49.782  1.00  0.00    -0.410 N 
HETATM   26  C17 UNL     1      26.062   6.955  49.682  1.00  0.00     0.117 C 
HETATM   27  C18 UNL     1      26.690   6.637  48.366  1.00  0.00     0.019 C 
HETATM   28  C19 UNL     1      26.626   7.765  47.369  1.00  0.00     0.003 C 
HETATM   29  C20 UNL     1      26.739   9.062  48.141  1.00  0.00     0.019 C 
HETATM   30  C21 UNL     1      25.481   9.205  48.933  1.00  0.00     0.117 C 
ENDBRANCH  24  25
ENDBRANCH  23  24
ENDBRANCH  18  21
ENDBRANCH  14  17
BRANCH   2  31
HETATM   31  N1  UNL     1      22.491  -2.038  53.051  1.00  0.00     0.096 N 
HETATM   32  H4  UNL     1      21.676  -2.636  52.861  1.00  0.00     0.314 HD
HETATM   33  H5  UNL     1      22.786  -1.514  52.209  1.00  0.00     0.314 HD
ENDBRANCH   2  31
TORSDOF 5
ENDMDL
MODEL 8
REMARK VINA RESULT:      -7.9      6.439     10.147
REMARK  5 active torsions:
REMARK  status: ('A' for Active; 'I' for Inactive)
REMARK    1  A    between atoms: C2_2  and  N1_3 
REMARK    2  A    between atoms: C12_15  and  N4_16 
REMARK       I    between atoms: N4_16  and  C13_17 
REMARK    3  A    between atoms: C13_17  and  C14_19 
REMARK    4  A    between atoms: C15_21  and  C16_22 
REMARK    5  A    between atoms: C16_22  and  N5_23 
ROOT
HETATM    1  C1  UNL     1      23.405   2.843  49.260  1.00  0.00     0.059 C 
HETATM    2  C2  UNL     1      24.264   3.359  50.398  1.00  0.00     0.199 A 
HETATM    3  C3  UNL     1      24.879   2.317  51.180  1.00  0.00     0.019 A 
HETATM    4  C4  UNL     1      26.187   2.352  51.073  1.00  0.00    -0.001 A 
HETATM    5  C5  UNL     1      26.417   3.463  50.189  1.00  0.00     0.012 A 
HETATM    6  C6  UNL     1      25.388   4.118  49.740  1.00  0.00     0.013 A 
HETATM    7  C7  UNL     1      25.006   5.268  48.949  1.00  0.00     0.080 A 
HETATM    8  N2  UNL     1      23.735   5.406  48.551  1.00  0.00    -0.241 NA
HETATM    9  C8  UNL     1      23.287   6.431  47.830  1.00  0.00     0.234 A 
HETATM   10  N3  UNL     1      24.102   7.421  47.442  1.00  0.00    -0.241 NA
HETATM   11  C9  UNL     1      25.416   7.411  47.776  1.00  0.00     0.070 A 
HETATM   12  C10 UNL     1      26.232   8.430  47.401  1.00  0.00     0.035 A 
HETATM   13  C11 UNL     1      27.557   8.418  47.775  1.00  0.00     0.032 A 
HETATM   14  C12 UNL     1      27.996   7.330  48.539  1.00  0.00     0.035 A 
HETATM   15  C22 UNL     1      27.107   6.340  48.876  1.00  0.00     0.045 A 
HETATM   16  C23 UNL     1      25.782   6.315  48.520  1.00  0.00     0.024 A 
ENDROOT
BRANCH  14  17
HETATM   17  N4  UNL     1      29.366   7.352  48.911  1.00  0.00    -0.325 N 
HETATM   18  C13 UNL     1      30.490   7.050  48.046  1.00  0.00     0.254 C 
HETATM   19  O1  UNL     1      29.849   6.793  46.967  1.00  0.00    -0.270 OA
HETATM   20  H12 UNL     1      29.363   7.632  49.942  1.00  0.00     0.169 HD
BRANCH  18  21
HETATM   21  C14 UNL     1      31.813   7.156  48.709  1.00  0.00     0.244 A 
HETATM   22  O2  UNL     1      32.089   6.358  49.819  1.00  0.00    -0.364 OA
HETATM   23  C15 UNL     1      32.693   5.955  48.581  1.00  0.00     0.178 A 
BRANCH  23  24
HETATM   24  C16 UNL     1      32.161   4.608  48.159  1.00  0.00     0.151 C 
BRANCH  24  25
HETATM   25  N5  UNL     1      32.995   4.101  47.107  1.00  0.00    -0.410 N 
HETATM   26  C17 UNL     1      32.659   4.394  45.794  1.00  0.00     0.117 C 
HETATM   27  C18 UNL     1      33.767   4.583  44.811  1.00  0.00     0.019 C 
HETATM   28  C19 UNL     1      35.121   4.176  45.330  1.00  0.00     0.003 C 
HETATM   29  C20 UNL     1      34.919   2.997  46.258  1.00  0.00     0.019 C 
HETATM   30  C21 UNL     1      34.208   3.514  47.464  1.00  0.00     0.117 C 
ENDBRANCH  24  25
ENDBRANCH  23  24
ENDBRANCH  18  21
ENDBRANCH  14  17
BRANCH   2  31
HETATM   31  N1  UNL     1      23.538   4.328  51.206  1.00  0.00     0.096 N 
HETATM   32  H4  UNL     1      22.520   4.182  51.165  1.00  0.00     0.314 HD
HETATM   33  H5  UNL     1      23.899   4.233  52.171  1.00  0.00     0.314 HD
ENDBRANCH   2  31
TORSDOF 5
ENDMDL
MODEL 9
REMARK VINA RESULT:      -7.8      2.000      4.322
REMARK  5 active torsions:
REMARK  status: ('A' for Active; 'I' for Inactive)
REMARK    1  A    between atoms: C2_2  and  N1_3 
REMARK    2  A    between atoms: C12_15  and  N4_16 
REMARK       I    between atoms: N4_16  and  C13_17 
REMARK    3  A    between atoms: C13_17  and  C14_19 
REMARK    4  A    between atoms: C15_21  and  C16_22 
REMARK    5  A    between atoms: C16_22  and  N5_23 
ROOT
HETATM    1  C1  UNL     1      26.410   3.789  49.652  1.00  0.00     0.059 C 
HETATM    2  C2  UNL     1      24.990   4.159  50.032  1.00  0.00     0.199 A 
HETATM    3  C3  UNL     1      24.215   4.688  48.939  1.00  0.00     0.019 A 
HETATM    4  C4  UNL     1      23.210   3.897  48.641  1.00  0.00    -0.001 A 
HETATM    5  C5  UNL     1      23.349   2.819  49.583  1.00  0.00     0.012 A 
HETATM    6  C6  UNL     1      24.331   2.863  50.432  1.00  0.00     0.013 A 
HETATM    7  C7  UNL     1      24.906   2.179  51.571  1.00  0.00     0.080 A 
HETATM    8  N2  UNL     1      26.137   2.501  51.985  1.00  0.00    -0.241 NA
HETATM    9  C8  UNL     1      26.745   1.935  53.025  1.00  0.00     0.234 A 
HETATM   10  N3  UNL     1      26.149   0.978  53.748  1.00  0.00    -0.241 NA
HETATM   11  C9  UNL     1      24.897   0.554  53.441  1.00  0.00     0.070 A 
HETATM   12  C10 UNL     1      24.287  -0.399  54.192  1.00  0.00     0.035 A 
HETATM   13  C11 UNL     1      23.005  -0.795  53.883  1.00  0.00     0.032 A 
HETATM   14  C12 UNL     1      22.391  -0.177  52.788  1.00  0.00     0.035 A 
HETATM   15  C22 UNL     1      23.077   0.778  52.080  1.00  0.00     0.045 A 
HETATM   16  C23 UNL     1      24.354   1.197  52.355  1.00  0.00     0.024 A 
ENDROOT
BRANCH  14  17
HETATM   17  N4  UNL     1      21.068  -0.606  52.502  1.00  0.00    -0.325 N 
HETATM   18  C13 UNL     1      19.862  -0.156  53.168  1.00  0.00     0.254 C 
HETATM   19  O1  UNL     1      20.386   0.665  53.999  1.00  0.00    -0.270 OA
HETATM   20  H12 UNL     1      21.178  -1.315  51.709  1.00  0.00     0.169 HD
BRANCH  18  21
HETATM   21  C14 UNL     1      18.615  -0.779  52.657  1.00  0.00     0.244 A 
HETATM   22  O2  UNL     1      17.381  -0.253  53.037  1.00  0.00    -0.364 OA
HETATM   23  C15 UNL     1      17.822   0.057  51.707  1.00  0.00     0.178 A 
BRANCH  23  24
HETATM   24  C16 UNL     1      18.040   1.543  51.567  1.00  0.00     0.151 C 
BRANCH  24  25
HETATM   25  N5  UNL     1      18.443   1.817  50.218  1.00  0.00    -0.410 N 
HETATM   26  C17 UNL     1      17.487   2.264  49.317  1.00  0.00     0.117 C 
HETATM   27  C18 UNL     1      17.914   3.229  48.261  1.00  0.00     0.019 C 
HETATM   28  C19 UNL     1      19.407   3.399  48.156  1.00  0.00     0.003 C 
HETATM   29  C20 UNL     1      20.043   2.065  48.480  1.00  0.00     0.019 C 
HETATM   30  C21 UNL     1      19.807   1.815  49.932  1.00  0.00     0.117 C 
ENDBRANCH  24  25
ENDBRANCH  23  24
ENDBRANCH  18  21
ENDBRANCH  14  17
BRANCH   2  31
HETATM   31  N1  UNL     1      24.967   5.008  51.214  1.00  0.00     0.096 N 
HETATM   32  H4  UNL     1      25.460   4.579  52.009  1.00  0.00     0.314 HD
HETATM   33  H5  UNL     1      25.400   5.906  50.936  1.00  0.00     0.314 HD
ENDBRANCH   2  31
TORSDOF 5
ENDMDL
