MODEL 1
REMARK VINA RESULT:      -7.5      0.000      0.000
REMARK  6 active torsions:
REMARK  status: ('A' for Active; 'I' for Inactive)
REMARK    1  A    between atoms: C2_2  and  C19_21 
REMARK    2  A    between atoms: C3_3  and  C4_4 
REMARK    3  A    between atoms: C6_7  and  C7_8 
REMARK    4  A    between atoms: C7_8  and  N2_9 
REMARK    5  A    between atoms: N2_9  and  C8_10 
REMARK    6  A    between atoms: C10_12  and  C11_13 
ROOT
HETATM    1  C7  UNL     1      23.372   3.475  51.122  1.00  0.00     0.305 C 
ENDROOT
BRANCH   1   2
HETATM    2  C6  UNL     1      24.655   3.146  51.757  1.00  0.00    -0.036 C 
HETATM    3  C5  UNL     1      25.938   3.287  51.005  1.00  0.00     0.184 C 
HETATM    4  N1  UNL     1      26.867   2.230  51.346  1.00  0.00    -0.290 NA
HETATM    5  C4  UNL     1      27.052   1.751  52.514  1.00  0.00     0.032 C 
HETATM    6  C18 UNL     1      26.188   2.424  53.482  1.00  0.00     0.086 C 
HETATM    7  C17 UNL     1      24.837   2.713  52.987  1.00  0.00    -0.014 C 
BRANCH   5   8
HETATM    8  C3  UNL     1      27.968   0.698  52.898  1.00  0.00     0.030 C 
HETATM    9  C2  UNL     1      27.677  -0.586  52.939  1.00  0.00    -0.068 C 
HETATM   10  C1  UNL     1      26.445  -1.332  52.640  1.00  0.00     0.044 C 
BRANCH   9  11
HETATM   11  C19 UNL     1      28.705  -1.591  53.353  1.00  0.00     0.148 C 
HETATM   12 CL1  UNL     1      30.229  -0.661  53.547  1.00  0.00    -0.126 Cl
ENDBRANCH   9  11
ENDBRANCH   5   8
ENDBRANCH   1   2
BRANCH   1  13
HETATM   13  N2  UNL     1      23.054   2.670  49.987  1.00  0.00     0.092 N 
HETATM   14  H9  UNL     1      23.867   2.480  49.374  1.00  0.00     0.316 HD
BRANCH  13  15
HETATM   15  C8  UNL     1      22.614   1.379  50.531  1.00  0.00     0.230 A 
HETATM   16  C9  UNL     1      21.319   0.809  50.081  1.00  0.00     0.048 A 
HETATM   17  C10 UNL     1      21.507   1.264  51.480  1.00  0.00     0.054 A 
BRANCH  17  18
HETATM   18  C11 UNL     1      21.615   0.266  52.577  1.00  0.00    -0.052 A 
HETATM   19  C12 UNL     1      22.858  -0.034  53.095  1.00  0.00     0.007 A 
HETATM   20  C13 UNL     1      23.002  -0.955  54.113  1.00  0.00     0.001 A 
HETATM   21  C14 UNL     1      21.887  -1.589  54.625  1.00  0.00     0.000 A 
HETATM   22  C15 UNL     1      20.607  -1.318  54.134  1.00  0.00     0.001 A 
HETATM   23  C16 UNL     1      20.526  -0.388  53.116  1.00  0.00     0.007 A 
ENDBRANCH  17  18
ENDBRANCH  13  15
ENDBRANCH   1  13
TORSDOF 6
ENDMDL
MODEL 2
REMARK VINA RESULT:      -7.2      2.030      4.943
REMARK  6 active torsions:
REMARK  status: ('A' for Active; 'I' for Inactive)
REMARK    1  A    between atoms: C2_2  and  C19_21 
REMARK    2  A    between atoms: C3_3  and  C4_4 
REMARK    3  A    between atoms: C6_7  and  C7_8 
REMARK    4  A    between atoms: C7_8  and  N2_9 
REMARK    5  A    between atoms: N2_9  and  C8_10 
REMARK    6  A    between atoms: C10_12  and  C11_13 
ROOT
HETATM    1  C7  UNL     1      22.304   3.462  52.058  1.00  0.00     0.305 C 
ENDROOT
BRANCH   1   2
HETATM    2  C6  UNL     1      23.246   2.493  52.634  1.00  0.00    -0.036 C 
HETATM    3  C5  UNL     1      24.529   2.949  53.249  1.00  0.00     0.184 C 
HETATM    4  N1  UNL     1      25.603   2.017  52.976  1.00  0.00    -0.290 NA
HETATM    5  C4  UNL     1      25.502   0.745  52.976  1.00  0.00     0.032 C 
HETATM    6  C18 UNL     1      24.134   0.344  53.297  1.00  0.00     0.086 C 
HETATM    7  C17 UNL     1      23.099   1.186  52.685  1.00  0.00    -0.014 C 
BRANCH   5   8
HETATM    8  C3  UNL     1      26.548  -0.221  52.710  1.00  0.00     0.030 C 
HETATM    9  C2  UNL     1      27.591  -0.445  53.482  1.00  0.00    -0.068 C 
HETATM   10  C1  UNL     1      28.022   0.146  54.758  1.00  0.00     0.044 C 
BRANCH   9  11
HETATM   11  C19 UNL     1      28.614  -1.470  53.108  1.00  0.00     0.148 C 
HETATM   12 CL1  UNL     1      30.185  -0.797  53.655  1.00  0.00    -0.126 Cl
ENDBRANCH   9  11
ENDBRANCH   5   8
ENDBRANCH   1   2
BRANCH   1  13
HETATM   13  N2  UNL     1      21.744   3.063  50.807  1.00  0.00     0.092 N 
HETATM   14  H9  UNL     1      20.800   3.454  50.633  1.00  0.00     0.316 HD
BRANCH  13  15
HETATM   15  C8  UNL     1      22.636   3.615  49.781  1.00  0.00     0.230 A 
HETATM   16  C9  UNL     1      22.951   2.798  48.581  1.00  0.00     0.048 A 
HETATM   17  C10 UNL     1      23.999   3.124  49.579  1.00  0.00     0.054 A 
BRANCH  17  18
HETATM   18  C11 UNL     1      25.063   4.107  49.244  1.00  0.00    -0.052 A 
HETATM   19  C12 UNL     1      26.384   3.707  49.275  1.00  0.00     0.007 A 
HETATM   20  C13 UNL     1      27.403   4.587  48.971  1.00  0.00     0.001 A 
HETATM   21  C14 UNL     1      27.100   5.891  48.629  1.00  0.00     0.000 A 
HETATM   22  C15 UNL     1      25.779   6.343  48.584  1.00  0.00     0.001 A 
HETATM   23  C16 UNL     1      24.803   5.417  48.898  1.00  0.00     0.007 A 
ENDBRANCH  17  18
ENDBRANCH  13  15
ENDBRANCH   1  13
TORSDOF 6
ENDMDL
MODEL 3
REMARK VINA RESULT:      -7.2      3.109      6.050
REMARK  6 active torsions:
REMARK  status: ('A' for Active; 'I' for Inactive)
REMARK    1  A    between atoms: C2_2  and  C19_21 
REMARK    2  A    between atoms: C3_3  and  C4_4 
REMARK    3  A    between atoms: C6_7  and  C7_8 
REMARK    4  A    between atoms: C7_8  and  N2_9 
REMARK    5  A    between atoms: N2_9  and  C8_10 
REMARK    6  A    between atoms: C10_12  and  C11_13 
ROOT
HETATM    1  C7  UNL     1      24.389   2.299  52.936  1.00  0.00     0.305 C 
ENDROOT
BRANCH   1   2
HETATM    2  C6  UNL     1      24.968   2.631  51.628  1.00  0.00    -0.036 C 
HETATM    3  C5  UNL     1      26.387   2.289  51.311  1.00  0.00     0.184 C 
HETATM    4  N1  UNL     1      27.010   3.317  50.505  1.00  0.00    -0.290 NA
HETATM    5  C4  UNL     1      26.451   3.954  49.551  1.00  0.00     0.032 C 
HETATM    6  C18 UNL     1      25.074   3.498  49.373  1.00  0.00     0.086 C 
HETATM    7  C17 UNL     1      24.360   3.233  50.628  1.00  0.00    -0.014 C 
BRANCH   5   8
HETATM    8  C3  UNL     1      27.036   4.988  48.722  1.00  0.00     0.030 C 
HETATM    9  C2  UNL     1      26.828   6.281  48.858  1.00  0.00    -0.068 C 
HETATM   10  C1  UNL     1      26.012   7.058  49.804  1.00  0.00     0.044 C 
BRANCH   9  11
HETATM   11  C19 UNL     1      27.485   7.262  47.941  1.00  0.00     0.148 C 
HETATM   12 CL1  UNL     1      29.105   6.574  47.589  1.00  0.00    -0.126 Cl
ENDBRANCH   9  11
ENDBRANCH   5   8
ENDBRANCH   1   2
BRANCH   1  13
HETATM   13  N2  UNL     1      23.731   1.033  52.984  1.00  0.00     0.092 N 
HETATM   14  H9  UNL     1      23.270   0.774  52.093  1.00  0.00     0.316 HD
BRANCH  13  15
HETATM   15  C8  UNL     1      24.792   0.047  53.224  1.00  0.00     0.230 A 
HETATM   16  C9  UNL     1      24.747  -0.776  54.459  1.00  0.00     0.048 A 
HETATM   17  C10 UNL     1      25.816   0.231  54.251  1.00  0.00     0.054 A 
BRANCH  17  18
HETATM   18  C11 UNL     1      27.205  -0.212  53.955  1.00  0.00    -0.052 A 
HETATM   19  C12 UNL     1      28.265   0.556  54.393  1.00  0.00     0.007 A 
HETATM   20  C13 UNL     1      29.569   0.182  54.138  1.00  0.00     0.001 A 
HETATM   21  C14 UNL     1      29.821  -0.980  53.434  1.00  0.00     0.000 A 
HETATM   22  C15 UNL     1      28.782  -1.790  52.970  1.00  0.00     0.001 A 
HETATM   23  C16 UNL     1      27.499  -1.364  53.255  1.00  0.00     0.007 A 
ENDBRANCH  17  18
ENDBRANCH  13  15
ENDBRANCH   1  13
TORSDOF 6
ENDMDL
MODEL 4
REMARK VINA RESULT:      -7.0      3.250      6.877
REMARK  6 active torsions:
REMARK  status: ('A' for Active; 'I' for Inactive)
REMARK    1  A    between atoms: C2_2  and  C19_21 
REMARK    2  A    between atoms: C3_3  and  C4_4 
REMARK    3  A    between atoms: C6_7  and  C7_8 
REMARK    4  A    between atoms: C7_8  and  N2_9 
REMARK    5  A    between atoms: N2_9  and  C8_10 
REMARK    6  A    between atoms: C10_12  and  C11_13 
ROOT
HETATM    1  C7  UNL     1      23.839   2.824  53.028  1.00  0.00     0.305 C 
ENDROOT
BRANCH   1   2
HETATM    2  C6  UNL     1      22.716   1.996  52.570  1.00  0.00    -0.036 C 
HETATM    3  C5  UNL     1      21.391   2.610  52.258  1.00  0.00     0.184 C 
HETATM    4  N1  UNL     1      20.301   1.745  52.658  1.00  0.00    -0.290 NA
HETATM    5  C4  UNL     1      20.276   0.475  52.534  1.00  0.00     0.032 C 
HETATM    6  C18 UNL     1      21.515   0.000  51.919  1.00  0.00     0.086 C 
HETATM    7  C17 UNL     1      22.723   0.692  52.384  1.00  0.00    -0.014 C 
BRANCH   5   8
HETATM    8  C3  UNL     1      19.211  -0.426  52.919  1.00  0.00     0.030 C 
HETATM    9  C2  UNL     1      18.085  -0.601  52.257  1.00  0.00    -0.068 C 
HETATM   10  C1  UNL     1      17.563  -0.004  51.019  1.00  0.00     0.044 C 
BRANCH   9  11
HETATM   11  C19 UNL     1      17.049  -1.561  52.749  1.00  0.00     0.148 C 
HETATM   12 CL1  UNL     1      17.917  -2.668  53.864  1.00  0.00    -0.126 Cl
ENDBRANCH   9  11
ENDBRANCH   5   8
ENDBRANCH   1   2
BRANCH   1  13
HETATM   13  N2  UNL     1      24.564   3.464  51.978  1.00  0.00     0.092 N 
HETATM   14  H9  UNL     1      24.682   4.484  52.120  1.00  0.00     0.316 HD
BRANCH  13  15
HETATM   15  C8  UNL     1      25.905   2.867  52.005  1.00  0.00     0.230 A 
HETATM   16  C9  UNL     1      26.594   2.581  50.721  1.00  0.00     0.048 A 
HETATM   17  C10 UNL     1      26.154   1.481  51.613  1.00  0.00     0.054 A 
BRANCH  17  18
HETATM   18  C11 UNL     1      27.161   0.698  52.378  1.00  0.00    -0.052 A 
HETATM   19  C12 UNL     1      28.188   1.363  53.017  1.00  0.00     0.007 A 
HETATM   20  C13 UNL     1      29.144   0.674  53.736  1.00  0.00     0.001 A 
HETATM   21  C14 UNL     1      29.075  -0.702  53.822  1.00  0.00     0.000 A 
HETATM   22  C15 UNL     1      28.054  -1.420  53.193  1.00  0.00     0.001 A 
HETATM   23  C16 UNL     1      27.127  -0.677  52.487  1.00  0.00     0.007 A 
ENDBRANCH  17  18
ENDBRANCH  13  15
ENDBRANCH   1  13
TORSDOF 6
ENDMDL
MODEL 5
REMARK VINA RESULT:      -7.0      3.840      6.422
REMARK  6 active torsions:
REMARK  status: ('A' for Active; 'I' for Inactive)
REMARK    1  A    between atoms: C2_2  and  C19_21 
REMARK    2  A    between atoms: C3_3  and  C4_4 
REMARK    3  A    between atoms: C6_7  and  C7_8 
REMARK    4  A    between atoms: C7_8  and  N2_9 
REMARK    5  A    between atoms: N2_9  and  C8_10 
REMARK    6  A    between atoms: C10_12  and  C11_13 
ROOT
HETATM    1  C7  UNL     1      25.055   2.498  51.808  1.00  0.00     0.305 C 
ENDROOT
BRANCH   1   2
HETATM    2  C6  UNL     1      25.365   3.345  50.649  1.00  0.00    -0.036 C 
HETATM    3  C5  UNL     1      26.462   2.976  49.705  1.00  0.00     0.184 C 
HETATM    4  N1  UNL     1      27.169   4.148  49.235  1.00  0.00    -0.290 NA
HETATM    5  C4  UNL     1      26.636   5.266  48.929  1.00  0.00     0.032 C 
HETATM    6  C18 UNL     1      25.187   5.205  49.114  1.00  0.00     0.086 C 
HETATM    7  C17 UNL     1      24.763   4.465  50.308  1.00  0.00    -0.014 C 
BRANCH   5   8
HETATM    8  C3  UNL     1      27.305   6.460  48.457  1.00  0.00     0.030 C 
HETATM    9  C2  UNL     1      28.570   6.533  48.099  1.00  0.00    -0.068 C 
HETATM   10  C1  UNL     1      29.645   5.530  48.057  1.00  0.00     0.044 C 
BRANCH   9  11
HETATM   11  C19 UNL     1      29.159   7.824  47.626  1.00  0.00     0.148 C 
HETATM   12 CL1  UNL     1      30.401   8.257  48.847  1.00  0.00    -0.126 Cl
ENDBRANCH   9  11
ENDBRANCH   5   8
ENDBRANCH   1   2
BRANCH   1  13
HETATM   13  N2  UNL     1      25.551   2.997  53.050  1.00  0.00     0.092 N 
HETATM   14  H9  UNL     1      24.814   3.122  53.769  1.00  0.00     0.316 HD
BRANCH  13  15
HETATM   15  C8  UNL     1      26.470   1.968  53.549  1.00  0.00     0.230 A 
HETATM   16  C9  UNL     1      27.873   2.343  53.863  1.00  0.00     0.048 A 
HETATM   17  C10 UNL     1      27.561   1.430  52.737  1.00  0.00     0.054 A 
BRANCH  17  18
HETATM   18  C11 UNL     1      27.878  -0.019  52.847  1.00  0.00    -0.052 A 
HETATM   19  C12 UNL     1      29.109  -0.404  53.338  1.00  0.00     0.007 A 
HETATM   20  C13 UNL     1      29.443  -1.738  53.456  1.00  0.00     0.001 A 
HETATM   21  C14 UNL     1      28.534  -2.707  53.078  1.00  0.00     0.000 A 
HETATM   22  C15 UNL     1      27.276  -2.367  52.575  1.00  0.00     0.001 A 
HETATM   23  C16 UNL     1      26.998  -1.017  52.481  1.00  0.00     0.007 A 
ENDBRANCH  17  18
ENDBRANCH  13  15
ENDBRANCH   1  13
TORSDOF 6
ENDMDL
MODEL 6
REMARK VINA RESULT:      -6.9      3.624      6.921
REMARK  6 active torsions:
REMARK  status: ('A' for Active; 'I' for Inactive)
REMARK    1  A    between atoms: C2_2  and  C19_21 
REMARK    2  A    between atoms: C3_3  and  C4_4 
REMARK    3  A    between atoms: C6_7  and  C7_8 
REMARK    4  A    between atoms: C7_8  and  N2_9 
REMARK    5  A    between atoms: N2_9  and  C8_10 
REMARK    6  A    between atoms: C10_12  and  C11_13 
ROOT
HETATM    1  C7  UNL     1      22.795   5.367  50.768  1.00  0.00     0.305 C 
ENDROOT
BRANCH   1   2
HETATM    2  C6  UNL     1      23.419   4.188  51.382  1.00  0.00    -0.036 C 
HETATM    3  C5  UNL     1      23.816   3.013  50.550  1.00  0.00     0.184 C 
HETATM    4  N1  UNL     1      23.588   1.768  51.254  1.00  0.00    -0.290 NA
HETATM    5  C4  UNL     1      23.804   1.566  52.495  1.00  0.00     0.032 C 
HETATM    6  C18 UNL     1      24.325   2.777  53.125  1.00  0.00     0.086 C 
HETATM    7  C17 UNL     1      23.695   4.018  52.658  1.00  0.00    -0.014 C 
BRANCH   5   8
HETATM    8  C3  UNL     1      23.590   0.340  53.236  1.00  0.00     0.030 C 
HETATM    9  C2  UNL     1      22.442  -0.045  53.755  1.00  0.00    -0.068 C 
HETATM   10  C1  UNL     1      21.105   0.568  53.765  1.00  0.00     0.044 C 
BRANCH   9  11
HETATM   11  C19 UNL     1      22.336  -1.334  54.505  1.00  0.00     0.148 C 
HETATM   12 CL1  UNL     1      20.629  -1.858  54.314  1.00  0.00    -0.126 Cl
ENDBRANCH   9  11
ENDBRANCH   5   8
ENDBRANCH   1   2
BRANCH   1  13
HETATM   13  N2  UNL     1      23.140   6.605  51.388  1.00  0.00     0.092 N 
HETATM   14  H9  UNL     1      23.227   6.542  52.418  1.00  0.00     0.316 HD
BRANCH  13  15
HETATM   15  C8  UNL     1      24.467   6.951  50.864  1.00  0.00     0.230 A 
HETATM   16  C9  UNL     1      24.648   8.241  50.150  1.00  0.00     0.048 A 
HETATM   17  C10 UNL     1      24.770   6.949  49.433  1.00  0.00     0.054 A 
BRANCH  17  18
HETATM   18  C11 UNL     1      26.107   6.468  48.993  1.00  0.00    -0.052 A 
HETATM   19  C12 UNL     1      27.011   7.372  48.474  1.00  0.00     0.007 A 
HETATM   20  C13 UNL     1      28.262   6.967  48.054  1.00  0.00     0.001 A 
HETATM   21  C14 UNL     1      28.619   5.636  48.152  1.00  0.00     0.000 A 
HETATM   22  C15 UNL     1      27.738   4.683  48.670  1.00  0.00     0.001 A 
HETATM   23  C16 UNL     1      26.502   5.148  49.074  1.00  0.00     0.007 A 
ENDBRANCH  17  18
ENDBRANCH  13  15
ENDBRANCH   1  13
TORSDOF 6
ENDMDL
MODEL 7
REMARK VINA RESULT:      -6.9      2.917      6.225
REMARK  6 active torsions:
REMARK  status: ('A' for Active; 'I' for Inactive)
REMARK    1  A    between atoms: C2_2  and  C19_21 
REMARK    2  A    between atoms: C3_3  and  C4_4 
REMARK    3  A    between atoms: C6_7  and  C7_8 
REMARK    4  A    between atoms: C7_8  and  N2_9 
REMARK    5  A    between atoms: N2_9  and  C8_10 
REMARK    6  A    between atoms: C10_12  and  C11_13 
ROOT
HETATM    1  C7  UNL     1      22.088   5.251  50.251  1.00  0.00     0.305 C 
ENDROOT
BRANCH   1   2
HETATM    2  C6  UNL     1      22.393   3.915  50.778  1.00  0.00    -0.036 C 
HETATM    3  C5  UNL     1      22.080   3.563  52.195  1.00  0.00     0.184 C 
HETATM    4  N1  UNL     1      23.099   2.704  52.761  1.00  0.00    -0.290 NA
HETATM    5  C4  UNL     1      23.688   1.749  52.154  1.00  0.00     0.032 C 
HETATM    6  C18 UNL     1      23.187   1.631  50.786  1.00  0.00     0.086 C 
HETATM    7  C17 UNL     1      22.943   2.916  50.120  1.00  0.00    -0.014 C 
BRANCH   5   8
HETATM    8  C3  UNL     1      24.709   0.868  52.681  1.00  0.00     0.030 C 
HETATM    9  C2  UNL     1      25.999   0.963  52.432  1.00  0.00    -0.068 C 
HETATM   10  C1  UNL     1      26.781   1.901  51.613  1.00  0.00     0.044 C 
BRANCH   9  11
HETATM   11  C19 UNL     1      26.968  -0.006  53.031  1.00  0.00     0.148 C 
HETATM   12 CL1  UNL     1      26.627  -1.577  52.232  1.00  0.00    -0.126 Cl
ENDBRANCH   9  11
ENDBRANCH   5   8
ENDBRANCH   1   2
BRANCH   1  13
HETATM   13  N2  UNL     1      22.461   6.323  51.117  1.00  0.00     0.092 N 
HETATM   14  H9  UNL     1      22.341   6.104  52.123  1.00  0.00     0.316 HD
BRANCH  13  15
HETATM   15  C8  UNL     1      23.896   6.532  50.890  1.00  0.00     0.230 A 
HETATM   16  C9  UNL     1      24.395   7.909  50.642  1.00  0.00     0.048 A 
HETATM   17  C10 UNL     1      24.440   6.878  49.577  1.00  0.00     0.054 A 
BRANCH  17  18
HETATM   18  C11 UNL     1      25.743   6.285  49.172  1.00  0.00    -0.052 A 
HETATM   19  C12 UNL     1      25.973   4.944  49.399  1.00  0.00     0.007 A 
HETATM   20  C13 UNL     1      27.168   4.355  49.039  1.00  0.00     0.001 A 
HETATM   21  C14 UNL     1      28.153   5.117  48.441  1.00  0.00     0.000 A 
HETATM   22  C15 UNL     1      27.967   6.479  48.190  1.00  0.00     0.001 A 
HETATM   23  C16 UNL     1      26.751   7.012  48.572  1.00  0.00     0.007 A 
ENDBRANCH  17  18
ENDBRANCH  13  15
ENDBRANCH   1  13
TORSDOF 6
ENDMDL
MODEL 8
REMARK VINA RESULT:      -6.8      3.026      6.235
REMARK  6 active torsions:
REMARK  status: ('A' for Active; 'I' for Inactive)
REMARK    1  A    between atoms: C2_2  and  C19_21 
REMARK    2  A    between atoms: C3_3  and  C4_4 
REMARK    3  A    between atoms: C6_7  and  C7_8 
REMARK    4  A    between atoms: C7_8  and  N2_9 
REMARK    5  A    between atoms: N2_9  and  C8_10 
REMARK    6  A    between atoms: C10_12  and  C11_13 
ROOT
HETATM    1  C7  UNL     1      23.084   4.749  50.726  1.00  0.00     0.305 C 
ENDROOT
BRANCH   1   2
HETATM    2  C6  UNL     1      23.800   3.654  51.392  1.00  0.00    -0.036 C 
HETATM    3  C5  UNL     1      23.568   3.357  52.837  1.00  0.00     0.184 C 
HETATM    4  N1  UNL     1      24.793   2.956  53.496  1.00  0.00    -0.290 NA
HETATM    5  C4  UNL     1      25.694   2.203  52.996  1.00  0.00     0.032 C 
HETATM    6  C18 UNL     1      25.319   1.789  51.646  1.00  0.00     0.086 C 
HETATM    7  C17 UNL     1      24.682   2.843  50.847  1.00  0.00    -0.014 C 
BRANCH   5   8
HETATM    8  C3  UNL     1      26.931   1.778  53.619  1.00  0.00     0.030 C 
HETATM    9  C2  UNL     1      27.128   0.613  54.201  1.00  0.00    -0.068 C 
HETATM   10  C1  UNL     1      26.253  -0.551  54.406  1.00  0.00     0.044 C 
BRANCH   9  11
HETATM   11  C19 UNL     1      28.450   0.279  54.815  1.00  0.00     0.148 C 
HETATM   12 CL1  UNL     1      29.326  -0.673  53.570  1.00  0.00    -0.126 Cl
ENDBRANCH   9  11
ENDBRANCH   5   8
ENDBRANCH   1   2
BRANCH   1  13
HETATM   13  N2  UNL     1      23.215   6.016  51.370  1.00  0.00     0.092 N 
HETATM   14  H9  UNL     1      23.274   5.950  52.403  1.00  0.00     0.316 HD
BRANCH  13  15
HETATM   15  C8  UNL     1      24.491   6.567  50.900  1.00  0.00     0.230 A 
HETATM   16  C9  UNL     1      24.516   7.930  50.310  1.00  0.00     0.048 A 
HETATM   17  C10 UNL     1      24.798   6.734  49.479  1.00  0.00     0.054 A 
BRANCH  17  18
HETATM   18  C11 UNL     1      26.184   6.461  49.017  1.00  0.00    -0.052 A 
HETATM   19  C12 UNL     1      26.635   5.158  48.970  1.00  0.00     0.007 A 
HETATM   20  C13 UNL     1      27.916   4.861  48.548  1.00  0.00     0.001 A 
HETATM   21  C14 UNL     1      28.763   5.883  48.164  1.00  0.00     0.000 A 
HETATM   22  C15 UNL     1      28.352   7.218  48.194  1.00  0.00     0.001 A 
HETATM   23  C16 UNL     1      27.061   7.453  48.626  1.00  0.00     0.007 A 
ENDBRANCH  17  18
ENDBRANCH  13  15
ENDBRANCH   1  13
TORSDOF 6
ENDMDL
MODEL 9
REMARK VINA RESULT:      -6.7      2.634      5.472
REMARK  6 active torsions:
REMARK  status: ('A' for Active; 'I' for Inactive)
REMARK    1  A    between atoms: C2_2  and  C19_21 
REMARK    2  A    between atoms: C3_3  and  C4_4 
REMARK    3  A    between atoms: C6_7  and  C7_8 
REMARK    4  A    between atoms: C7_8  and  N2_9 
REMARK    5  A    between atoms: N2_9  and  C8_10 
REMARK    6  A    between atoms: C10_12  and  C11_13 
ROOT
HETATM    1  C7  UNL     1      22.499   1.291  51.380  1.00  0.00     0.305 C 
ENDROOT
BRANCH   1   2
HETATM    2  C6  UNL     1      22.900   2.674  51.087  1.00  0.00    -0.036 C 
HETATM    3  C5  UNL     1      22.314   3.409  49.927  1.00  0.00     0.184 C 
HETATM    4  N1  UNL     1      23.298   4.260  49.291  1.00  0.00    -0.290 NA
HETATM    5  C4  UNL     1      24.182   4.954  49.895  1.00  0.00     0.032 C 
HETATM    6  C18 UNL     1      24.067   4.776  51.341  1.00  0.00     0.086 C 
HETATM    7  C17 UNL     1      23.768   3.401  51.758  1.00  0.00    -0.014 C 
BRANCH   5   8
HETATM    8  C3  UNL     1      25.182   5.815  49.300  1.00  0.00     0.030 C 
HETATM    9  C2  UNL     1      26.408   5.453  48.984  1.00  0.00    -0.068 C 
HETATM   10  C1  UNL     1      27.125   4.175  49.109  1.00  0.00     0.044 C 
BRANCH   9  11
HETATM   11  C19 UNL     1      27.361   6.429  48.372  1.00  0.00     0.148 C 
HETATM   12 CL1  UNL     1      28.918   5.548  48.226  1.00  0.00    -0.126 Cl
ENDBRANCH   9  11
ENDBRANCH   5   8
ENDBRANCH   1   2
BRANCH   1  13
HETATM   13  N2  UNL     1      22.441   0.979  52.772  1.00  0.00     0.092 N 
HETATM   14  H9  UNL     1      21.559   0.515  53.055  1.00  0.00     0.316 HD
BRANCH  13  15
HETATM   15  C8  UNL     1      23.527   0.020  53.006  1.00  0.00     0.230 A 
HETATM   16  C9  UNL     1      23.451  -0.886  54.181  1.00  0.00     0.048 A 
HETATM   17  C10 UNL     1      24.487   0.172  54.099  1.00  0.00     0.054 A 
BRANCH  17  18
HETATM   18  C11 UNL     1      25.906  -0.196  53.853  1.00  0.00    -0.052 A 
HETATM   19  C12 UNL     1      26.200  -1.142  52.892  1.00  0.00     0.007 A 
HETATM   20  C13 UNL     1      27.504  -1.513  52.633  1.00  0.00     0.001 A 
HETATM   21  C14 UNL     1      28.535  -0.930  53.344  1.00  0.00     0.000 A 
HETATM   22  C15 UNL     1      28.288   0.032  54.326  1.00  0.00     0.001 A 
HETATM   23  C16 UNL     1      26.964   0.363  54.541  1.00  0.00     0.007 A 
ENDBRANCH  17  18
ENDBRANCH  13  15
ENDBRANCH   1  13
TORSDOF 6
ENDMDL
