MODEL 1
REMARK VINA RESULT:      -9.3      0.000      0.000
REMARK  1 active torsions:
REMARK  status: ('A' for Active; 'I' for Inactive)
REMARK    1  A    between atoms: C8_11  and  S1_12 
ROOT
HETATM    1  C1  UNL     1      27.542  -2.372  52.710  1.00  0.00     0.046 C 
HETATM    2  C2  UNL     1      27.718  -0.882  52.855  1.00  0.00    -0.057 C 
HETATM    3  C3  UNL     1      28.818  -0.509  53.458  1.00  0.00     0.006 C 
HETATM    4  C4  UNL     1      29.004   0.922  53.598  1.00  0.00     0.018 C 
HETATM    5  C5  UNL     1      28.042   1.677  53.087  1.00  0.00     0.094 C 
HETATM    6  N1  UNL     1      26.814   1.313  52.397  1.00  0.00    -0.328 N 
HETATM    7  C6  UNL     1      26.013   2.314  51.830  1.00  0.00     0.157 C 
HETATM    8  N2  UNL     1      26.792   2.724  50.925  1.00  0.00    -0.132 NA
HETATM    9  N3  UNL     1      26.391   3.803  50.073  1.00  0.00    -0.163 NA
HETATM   10  C7  UNL     1      25.195   4.252  50.408  1.00  0.00     0.132 C 
HETATM   11  C8  UNL     1      24.143   3.914  51.476  1.00  0.00     0.103 C 
HETATM   12  C14 UNL     1      24.631   2.701  52.087  1.00  0.00    -0.006 C 
HETATM   13  C15 UNL     1      23.492   2.271  52.620  1.00  0.00     0.054 C 
HETATM   14  C16 UNL     1      22.843   1.109  53.302  1.00  0.00    -0.017 C 
HETATM   15  C17 UNL     1      22.961  -0.175  53.758  1.00  0.00    -0.004 C 
HETATM   16  C18 UNL     1      24.219  -0.892  53.566  1.00  0.00    -0.002 C 
HETATM   17  C19 UNL     1      25.366  -0.603  53.006  1.00  0.00     0.003 C 
HETATM   18  C20 UNL     1      26.539  -0.063  52.333  1.00  0.00     0.142 C 
ENDROOT
BRANCH  11  19
HETATM   19  S1  UNL     1      22.672   4.206  50.891  1.00  0.00    -0.239 SA
HETATM   20  C9  UNL     1      22.200   5.476  51.583  1.00  0.00     0.066 C 
HETATM   21  C10 UNL     1      22.762   5.228  49.335  1.00  0.00     0.039 A 
HETATM   22  C11 UNL     1      22.719   4.971  47.914  1.00  0.00     0.121 A 
HETATM   23  N4  UNL     1      22.643   3.741  47.450  1.00  0.00    -0.272 NA
HETATM   24  C12 UNL     1      22.598   2.739  48.493  1.00  0.00     0.121 A 
HETATM   25  C13 UNL     1      22.617   2.993  49.793  1.00  0.00     0.039 A 
HETATM   26  H9  UNL     1      21.413   3.670  51.214  1.00  0.00     0.082 HD
ENDBRANCH  11  19
TORSDOF 1
ENDMDL
MODEL 2
REMARK VINA RESULT:      -7.9      2.607      4.274
REMARK  1 active torsions:
REMARK  status: ('A' for Active; 'I' for Inactive)
REMARK    1  A    between atoms: C8_11  and  S1_12 
ROOT
HETATM    1  C1  UNL     1      28.283   2.417  53.716  1.00  0.00     0.046 C 
HETATM    2  C2  UNL     1      27.326   1.342  53.268  1.00  0.00    -0.057 C 
HETATM    3  C3  UNL     1      27.742   0.115  53.456  1.00  0.00     0.006 C 
HETATM    4  C4  UNL     1      26.828  -0.929  53.036  1.00  0.00     0.018 C 
HETATM    5  C5  UNL     1      25.679  -0.513  52.525  1.00  0.00     0.094 C 
HETATM    6  N1  UNL     1      25.165   0.832  52.312  1.00  0.00    -0.328 N 
HETATM    7  C6  UNL     1      23.848   1.010  51.868  1.00  0.00     0.157 C 
HETATM    8  N2  UNL     1      23.222   0.573  52.874  1.00  0.00    -0.132 NA
HETATM    9  N3  UNL     1      21.790   0.537  52.865  1.00  0.00    -0.163 NA
HETATM   10  C7  UNL     1      21.313   0.970  51.712  1.00  0.00     0.132 C 
HETATM   11  C8  UNL     1      21.905   1.490  50.392  1.00  0.00     0.103 C 
HETATM   12  C14 UNL     1      23.313   1.641  50.667  1.00  0.00    -0.006 C 
HETATM   13  C15 UNL     1      23.620   2.486  49.688  1.00  0.00     0.054 C 
HETATM   14  C16 UNL     1      24.701   3.371  49.155  1.00  0.00    -0.017 C 
HETATM   15  C17 UNL     1      25.960   3.883  49.316  1.00  0.00    -0.004 C 
HETATM   16  C18 UNL     1      26.740   3.512  50.493  1.00  0.00    -0.002 C 
HETATM   17  C19 UNL     1      26.521   2.756  51.540  1.00  0.00     0.003 C 
HETATM   18  C20 UNL     1      26.058   1.876  52.603  1.00  0.00     0.142 C 
ENDROOT
BRANCH  11  19
HETATM   19  S1  UNL     1      20.901   2.569  49.744  1.00  0.00    -0.239 SA
HETATM   20  C9  UNL     1      20.631   2.079  48.329  1.00  0.00     0.066 C 
HETATM   21  C10 UNL     1      19.125   2.133  50.106  1.00  0.00     0.039 A 
HETATM   22  C11 UNL     1      18.126   2.541  51.066  1.00  0.00     0.121 A 
HETATM   23  N4  UNL     1      18.414   3.403  52.019  1.00  0.00    -0.272 NA
HETATM   24  C12 UNL     1      19.783   3.871  51.971  1.00  0.00     0.121 A 
HETATM   25  C13 UNL     1      20.680   3.504  51.069  1.00  0.00     0.039 A 
HETATM   26  H9  UNL     1      21.128   3.831  49.167  1.00  0.00     0.082 HD
ENDBRANCH  11  19
TORSDOF 1
ENDMDL
MODEL 3
REMARK VINA RESULT:      -7.9      2.749      5.166
REMARK  1 active torsions:
REMARK  status: ('A' for Active; 'I' for Inactive)
REMARK    1  A    between atoms: C8_11  and  S1_12 
ROOT
HETATM    1  C1  UNL     1      21.835   0.449  53.442  1.00  0.00     0.046 C 
HETATM    2  C2  UNL     1      21.881   0.871  51.996  1.00  0.00    -0.057 C 
HETATM    3  C3  UNL     1      21.102   0.192  51.193  1.00  0.00     0.006 C 
HETATM    4  C4  UNL     1      21.131   0.593  49.801  1.00  0.00     0.018 C 
HETATM    5  C5  UNL     1      21.934   1.607  49.514  1.00  0.00     0.094 C 
HETATM    6  N1  UNL     1      22.803   2.402  50.368  1.00  0.00    -0.328 N 
HETATM    7  C6  UNL     1      23.464   3.520  49.838  1.00  0.00     0.157 C 
HETATM    8  N2  UNL     1      22.470   4.260  49.596  1.00  0.00    -0.132 NA
HETATM    9  N3  UNL     1      22.667   5.549  49.002  1.00  0.00    -0.163 NA
HETATM   10  C7  UNL     1      23.946   5.765  48.756  1.00  0.00     0.132 C 
HETATM   11  C8  UNL     1      25.258   4.986  48.939  1.00  0.00     0.103 C 
HETATM   12  C14 UNL     1      24.883   3.832  49.718  1.00  0.00    -0.006 C 
HETATM   13  C15 UNL     1      26.082   3.508  50.190  1.00  0.00     0.054 C 
HETATM   14  C16 UNL     1      26.797   2.624  51.163  1.00  0.00    -0.017 C 
HETATM   15  C17 UNL     1      26.705   1.678  52.146  1.00  0.00    -0.004 C 
HETATM   16  C18 UNL     1      25.389   1.211  52.572  1.00  0.00    -0.002 C 
HETATM   17  C19 UNL     1      24.157   1.501  52.236  1.00  0.00     0.003 C 
HETATM   18  C20 UNL     1      22.889   1.982  51.704  1.00  0.00     0.142 C 
ENDROOT
BRANCH  11  19
HETATM   19  S1  UNL     1      26.461   6.020  49.217  1.00  0.00    -0.239 SA
HETATM   20  C9  UNL     1      27.639   5.507  48.403  1.00  0.00     0.066 C 
HETATM   21  C10 UNL     1      26.407   7.446  48.017  1.00  0.00     0.039 A 
HETATM   22  C11 UNL     1      25.917   8.805  48.033  1.00  0.00     0.121 A 
HETATM   23  N4  UNL     1      25.283   9.284  49.083  1.00  0.00    -0.272 NA
HETATM   24  C12 UNL     1      25.160   8.327  50.162  1.00  0.00     0.121 A 
HETATM   25  C13 UNL     1      25.635   7.091  50.139  1.00  0.00     0.039 A 
HETATM   26  H9  UNL     1      27.366   6.138  50.286  1.00  0.00     0.082 HD
ENDBRANCH  11  19
TORSDOF 1
ENDMDL
MODEL 4
REMARK VINA RESULT:      -7.8      7.511      9.573
REMARK  1 active torsions:
REMARK  status: ('A' for Active; 'I' for Inactive)
REMARK    1  A    between atoms: C8_11  and  S1_12 
ROOT
HETATM    1  C1  UNL     1      35.768   5.661  49.308  1.00  0.00     0.046 C 
HETATM    2  C2  UNL     1      34.596   5.111  48.537  1.00  0.00    -0.057 C 
HETATM    3  C3  UNL     1      34.772   3.914  48.037  1.00  0.00     0.006 C 
HETATM    4  C4  UNL     1      33.649   3.370  47.299  1.00  0.00     0.018 C 
HETATM    5  C5  UNL     1      32.578   4.146  47.232  1.00  0.00     0.094 C 
HETATM    6  N1  UNL     1      32.328   5.470  47.782  1.00  0.00    -0.328 N 
HETATM    7  C6  UNL     1      31.048   6.034  47.680  1.00  0.00     0.157 C 
HETATM    8  N2  UNL     1      30.406   5.241  48.423  1.00  0.00    -0.132 NA
HETATM    9  N3  UNL     1      28.996   5.418  48.607  1.00  0.00    -0.163 NA
HETATM   10  C7  UNL     1      28.551   6.439  47.898  1.00  0.00     0.132 C 
HETATM   11  C8  UNL     1      29.160   7.467  46.932  1.00  0.00     0.103 C 
HETATM   12  C14 UNL     1      30.583   7.256  47.035  1.00  0.00    -0.006 C 
HETATM   13  C15 UNL     1      30.996   8.427  46.562  1.00  0.00     0.054 C 
HETATM   14  C16 UNL     1      32.199   9.297  46.378  1.00  0.00    -0.017 C 
HETATM   15  C17 UNL     1      33.540   9.471  46.582  1.00  0.00    -0.004 C 
HETATM   16  C18 UNL     1      34.296   8.447  47.298  1.00  0.00    -0.002 C 
HETATM   17  C19 UNL     1      33.991   7.304  47.861  1.00  0.00     0.003 C 
HETATM   18  C20 UNL     1      33.423   6.082  48.412  1.00  0.00     0.142 C 
ENDROOT
BRANCH  11  19
HETATM   19  S1  UNL     1      28.353   8.856  47.049  1.00  0.00    -0.239 SA
HETATM   20  C9  UNL     1      27.460   8.917  45.819  1.00  0.00     0.066 C 
HETATM   21  C10 UNL     1      26.784   8.638  48.031  1.00  0.00     0.039 A 
HETATM   22  C11 UNL     1      26.366   8.870  49.394  1.00  0.00     0.121 A 
HETATM   23  N4  UNL     1      27.217   9.305  50.299  1.00  0.00    -0.272 NA
HETATM   24  C12 UNL     1      28.549   9.520  49.774  1.00  0.00     0.121 A 
HETATM   25  C13 UNL     1      28.910   9.322  48.516  1.00  0.00     0.039 A 
HETATM   26  H9  UNL     1      28.717  10.179  46.739  1.00  0.00     0.082 HD
ENDBRANCH  11  19
TORSDOF 1
ENDMDL
MODEL 5
REMARK VINA RESULT:      -7.8      3.490      6.391
REMARK  1 active torsions:
REMARK  status: ('A' for Active; 'I' for Inactive)
REMARK    1  A    between atoms: C8_11  and  S1_12 
ROOT
HETATM    1  C1  UNL     1      26.657   8.737  48.584  1.00  0.00     0.046 C 
HETATM    2  C2  UNL     1      26.840   7.242  48.646  1.00  0.00    -0.057 C 
HETATM    3  C3  UNL     1      28.056   6.821  48.406  1.00  0.00     0.006 C 
HETATM    4  C4  UNL     1      28.248   5.386  48.470  1.00  0.00     0.018 C 
HETATM    5  C5  UNL     1      27.171   4.677  48.776  1.00  0.00     0.094 C 
HETATM    6  N1  UNL     1      25.809   5.097  49.067  1.00  0.00    -0.328 N 
HETATM    7  C6  UNL     1      24.867   4.151  49.495  1.00  0.00     0.157 C 
HETATM    8  N2  UNL     1      25.365   3.846  50.615  1.00  0.00    -0.132 NA
HETATM    9  N3  UNL     1      24.730   2.856  51.433  1.00  0.00    -0.163 NA
HETATM   10  C7  UNL     1      23.662   2.361  50.835  1.00  0.00     0.132 C 
HETATM   11  C8  UNL     1      22.944   2.574  49.492  1.00  0.00     0.103 C 
HETATM   12  C14 UNL     1      23.599   3.723  48.915  1.00  0.00    -0.006 C 
HETATM   13  C15 UNL     1      22.655   4.082  48.052  1.00  0.00     0.054 C 
HETATM   14  C16 UNL     1      22.234   5.160  47.104  1.00  0.00    -0.017 C 
HETATM   15  C17 UNL     1      22.493   6.391  46.567  1.00  0.00    -0.004 C 
HETATM   16  C18 UNL     1      23.664   7.138  47.017  1.00  0.00    -0.002 C 
HETATM   17  C19 UNL     1      24.612   6.922  47.894  1.00  0.00     0.003 C 
HETATM   18  C20 UNL     1      25.550   6.468  48.912  1.00  0.00     0.142 C 
ENDROOT
BRANCH  11  19
HETATM   19  S1  UNL     1      21.365   2.328  49.684  1.00  0.00    -0.239 SA
HETATM   20  C9  UNL     1      21.070   1.004  48.995  1.00  0.00     0.066 C 
HETATM   21  C10 UNL     1      21.016   1.437  51.284  1.00  0.00     0.039 A 
HETATM   22  C11 UNL     1      20.601   1.810  52.617  1.00  0.00     0.121 A 
HETATM   23  N4  UNL     1      20.428   3.073  52.944  1.00  0.00    -0.272 NA
HETATM   24  C12 UNL     1      20.683   3.987  51.850  1.00  0.00     0.121 A 
HETATM   25  C13 UNL     1      21.042   3.626  50.627  1.00  0.00     0.039 A 
HETATM   26  H9  UNL     1      20.248   2.832  48.995  1.00  0.00     0.082 HD
ENDBRANCH  11  19
TORSDOF 1
ENDMDL
MODEL 6
REMARK VINA RESULT:      -7.7      2.536      4.447
REMARK  1 active torsions:
REMARK  status: ('A' for Active; 'I' for Inactive)
REMARK    1  A    between atoms: C8_11  and  S1_12 
ROOT
HETATM    1  C1  UNL     1      26.196   1.050  54.368  1.00  0.00     0.046 C 
HETATM    2  C2  UNL     1      24.905   0.826  53.624  1.00  0.00    -0.057 C 
HETATM    3  C3  UNL     1      24.339  -0.336  53.830  1.00  0.00     0.006 C 
HETATM    4  C4  UNL     1      23.092  -0.562  53.127  1.00  0.00     0.018 C 
HETATM    5  C5  UNL     1      22.672   0.441  52.370  1.00  0.00     0.094 C 
HETATM    6  N1  UNL     1      23.253   1.752  52.121  1.00  0.00    -0.328 N 
HETATM    7  C6  UNL     1      22.540   2.697  51.370  1.00  0.00     0.157 C 
HETATM    8  N2  UNL     1      21.573   2.907  52.155  1.00  0.00    -0.132 NA
HETATM    9  N3  UNL     1      20.535   3.821  51.781  1.00  0.00    -0.163 NA
HETATM   10  C7  UNL     1      20.751   4.316  50.576  1.00  0.00     0.132 C 
HETATM   11  C8  UNL     1      21.822   4.151  49.486  1.00  0.00     0.103 C 
HETATM   12  C14 UNL     1      22.857   3.370  50.116  1.00  0.00    -0.006 C 
HETATM   13  C15 UNL     1      23.864   3.675  49.304  1.00  0.00     0.054 C 
HETATM   14  C16 UNL     1      25.344   3.556  49.120  1.00  0.00    -0.017 C 
HETATM   15  C17 UNL     1      26.540   3.128  49.627  1.00  0.00    -0.004 C 
HETATM   16  C18 UNL     1      26.574   2.483  50.936  1.00  0.00    -0.002 C 
HETATM   17  C19 UNL     1      25.675   2.194  51.843  1.00  0.00     0.003 C 
HETATM   18  C20 UNL     1      24.514   1.975  52.695  1.00  0.00     0.142 C 
ENDROOT
BRANCH  11  19
HETATM   19  S1  UNL     1      21.978   5.533  48.675  1.00  0.00    -0.239 SA
HETATM   20  C9  UNL     1      21.618   5.206  47.233  1.00  0.00     0.066 C 
HETATM   21  C10 UNL     1      20.396   6.519  48.722  1.00  0.00     0.039 A 
HETATM   22  C11 UNL     1      19.879   7.624  49.494  1.00  0.00     0.121 A 
HETATM   23  N4  UNL     1      20.574   8.142  50.485  1.00  0.00    -0.272 NA
HETATM   24  C12 UNL     1      21.859   7.504  50.677  1.00  0.00     0.121 A 
HETATM   25  C13 UNL     1      22.328   6.506  49.945  1.00  0.00     0.039 A 
HETATM   26  H9  UNL     1      23.106   6.188  48.150  1.00  0.00     0.082 HD
ENDBRANCH  11  19
TORSDOF 1
ENDMDL
MODEL 7
REMARK VINA RESULT:      -7.7      2.478      2.983
REMARK  1 active torsions:
REMARK  status: ('A' for Active; 'I' for Inactive)
REMARK    1  A    between atoms: C8_11  and  S1_12 
ROOT
HETATM    1  C1  UNL     1      26.144  -1.255  53.076  1.00  0.00     0.046 C 
HETATM    2  C2  UNL     1      25.746   0.194  53.191  1.00  0.00    -0.057 C 
HETATM    3  C3  UNL     1      26.583   0.949  53.856  1.00  0.00     0.006 C 
HETATM    4  C4  UNL     1      26.216   2.346  53.969  1.00  0.00     0.018 C 
HETATM    5  C5  UNL     1      25.084   2.691  53.374  1.00  0.00     0.094 C 
HETATM    6  N1  UNL     1      24.131   1.897  52.612  1.00  0.00    -0.328 N 
HETATM    7  C6  UNL     1      23.060   2.529  51.966  1.00  0.00     0.157 C 
HETATM    8  N2  UNL     1      23.696   3.199  51.104  1.00  0.00    -0.132 NA
HETATM    9  N3  UNL     1      22.987   4.052  50.197  1.00  0.00    -0.163 NA
HETATM   10  C7  UNL     1      21.690   4.026  50.438  1.00  0.00     0.132 C 
HETATM   11  C8  UNL     1      20.762   3.322  51.442  1.00  0.00     0.103 C 
HETATM   12  C14 UNL     1      21.618   2.377  52.118  1.00  0.00    -0.006 C 
HETATM   13  C15 UNL     1      20.683   1.556  52.584  1.00  0.00     0.054 C 
HETATM   14  C16 UNL     1      20.462   0.236  53.253  1.00  0.00    -0.017 C 
HETATM   15  C17 UNL     1      21.012  -0.912  53.751  1.00  0.00    -0.004 C 
HETATM   16  C18 UNL     1      22.456  -1.112  53.665  1.00  0.00    -0.002 C 
HETATM   17  C19 UNL     1      23.453  -0.418  53.175  1.00  0.00     0.003 C 
HETATM   18  C20 UNL     1      24.389   0.518  52.568  1.00  0.00     0.142 C 
ENDROOT
BRANCH  11  19
HETATM   19  S1  UNL     1      19.334   3.048  50.751  1.00  0.00    -0.239 SA
HETATM   20  C9  UNL     1      18.310   3.746  51.634  1.00  0.00     0.066 C 
HETATM   21  C10 UNL     1      18.947   4.351  49.476  1.00  0.00     0.039 A 
HETATM   22  C11 UNL     1      19.046   4.466  48.039  1.00  0.00     0.121 A 
HETATM   23  N4  UNL     1      19.566   3.497  47.316  1.00  0.00    -0.272 NA
HETATM   24  C12 UNL     1      19.989   2.359  48.105  1.00  0.00     0.121 A 
HETATM   25  C13 UNL     1      19.870   2.261  49.420  1.00  0.00     0.039 A 
HETATM   26  H9  UNL     1      18.474   1.936  50.789  1.00  0.00     0.082 HD
ENDBRANCH  11  19
TORSDOF 1
ENDMDL
MODEL 8
REMARK VINA RESULT:      -7.5      2.920      5.641
REMARK  1 active torsions:
REMARK  status: ('A' for Active; 'I' for Inactive)
REMARK    1  A    between atoms: C8_11  and  S1_12 
ROOT
HETATM    1  C1  UNL     1      26.778   5.751  48.571  1.00  0.00     0.046 C 
HETATM    2  C2  UNL     1      25.739   5.985  49.637  1.00  0.00    -0.057 C 
HETATM    3  C3  UNL     1      25.731   7.189  50.151  1.00  0.00     0.006 C 
HETATM    4  C4  UNL     1      24.731   7.430  51.171  1.00  0.00     0.018 C 
HETATM    5  C5  UNL     1      23.939   6.405  51.451  1.00  0.00     0.094 C 
HETATM    6  N1  UNL     1      23.897   5.059  50.899  1.00  0.00    -0.328 N 
HETATM    7  C6  UNL     1      22.866   4.186  51.275  1.00  0.00     0.157 C 
HETATM    8  N2  UNL     1      21.881   4.786  50.761  1.00  0.00    -0.132 NA
HETATM    9  N3  UNL     1      20.560   4.252  50.916  1.00  0.00    -0.163 NA
HETATM   10  C7  UNL     1      20.576   3.154  51.649  1.00  0.00     0.132 C 
HETATM   11  C8  UNL     1      21.645   2.320  52.374  1.00  0.00     0.103 C 
HETATM   12  C14 UNL     1      22.897   2.888  51.939  1.00  0.00    -0.006 C 
HETATM   13  C15 UNL     1      23.694   1.864  52.225  1.00  0.00     0.054 C 
HETATM   14  C16 UNL     1      25.083   1.333  52.057  1.00  0.00    -0.017 C 
HETATM   15  C17 UNL     1      26.329   1.508  51.521  1.00  0.00    -0.004 C 
HETATM   16  C18 UNL     1      26.600   2.688  50.706  1.00  0.00    -0.002 C 
HETATM   17  C19 UNL     1      25.889   3.712  50.306  1.00  0.00     0.003 C 
HETATM   18  C20 UNL     1      24.915   4.746  49.985  1.00  0.00     0.142 C 
ENDROOT
BRANCH  11  19
HETATM   19  S1  UNL     1      21.207   0.770  52.372  1.00  0.00    -0.239 SA
HETATM   20  C9  UNL     1      21.351   0.302  53.813  1.00  0.00     0.066 C 
HETATM   21  C10 UNL     1      19.368   0.594  52.624  1.00  0.00     0.039 A 
HETATM   22  C11 UNL     1      18.215   0.391  51.779  1.00  0.00     0.121 A 
HETATM   23  N4  UNL     1      18.335   0.343  50.469  1.00  0.00    -0.272 NA
HETATM   24  C12 UNL     1      19.701   0.499  50.014  1.00  0.00     0.121 A 
HETATM   25  C13 UNL     1      20.750   0.662  50.805  1.00  0.00     0.039 A 
HETATM   26  H9  UNL     1      21.903  -0.399  52.018  1.00  0.00     0.082 HD
ENDBRANCH  11  19
TORSDOF 1
ENDMDL
MODEL 9
REMARK VINA RESULT:      -7.4      3.918      6.182
REMARK  1 active torsions:
REMARK  status: ('A' for Active; 'I' for Inactive)
REMARK    1  A    between atoms: C8_11  and  S1_12 
ROOT
HETATM    1  C1  UNL     1      28.576   7.379  47.233  1.00  0.00     0.046 C 
HETATM    2  C2  UNL     1      27.762   7.818  48.423  1.00  0.00    -0.057 C 
HETATM    3  C3  UNL     1      28.253   8.834  49.087  1.00  0.00     0.006 C 
HETATM    4  C4  UNL     1      27.477   9.272  50.229  1.00  0.00     0.018 C 
HETATM    5  C5  UNL     1      26.359   8.598  50.454  1.00  0.00     0.094 C 
HETATM    6  N1  UNL     1      25.764   7.478  49.740  1.00  0.00    -0.328 N 
HETATM    7  C6  UNL     1      24.491   7.018  50.105  1.00  0.00     0.157 C 
HETATM    8  N2  UNL     1      23.800   8.024  49.779  1.00  0.00    -0.132 NA
HETATM    9  N3  UNL     1      22.384   8.019  50.001  1.00  0.00    -0.163 NA
HETATM   10  C7  UNL     1      21.999   6.896  50.579  1.00  0.00     0.132 C 
HETATM   11  C8  UNL     1      22.684   5.611  51.073  1.00  0.00     0.103 C 
HETATM   12  C14 UNL     1      24.038   5.719  50.587  1.00  0.00    -0.006 C 
HETATM   13  C15 UNL     1      24.378   4.436  50.652  1.00  0.00     0.054 C 
HETATM   14  C16 UNL     1      25.435   3.448  50.271  1.00  0.00    -0.017 C 
HETATM   15  C17 UNL     1      26.624   3.216  49.635  1.00  0.00    -0.004 C 
HETATM   16  C18 UNL     1      27.302   4.317  48.957  1.00  0.00    -0.002 C 
HETATM   17  C19 UNL     1      27.035   5.586  48.770  1.00  0.00     0.003 C 
HETATM   18  C20 UNL     1      26.533   6.951  48.691  1.00  0.00     0.142 C 
ENDROOT
BRANCH  11  19
HETATM   19  S1  UNL     1      21.671   4.370  50.916  1.00  0.00    -0.239 SA
HETATM   20  C9  UNL     1      21.274   3.982  52.333  1.00  0.00     0.066 C 
HETATM   21  C10 UNL     1      19.915   4.961  50.712  1.00  0.00     0.039 A 
HETATM   22  C11 UNL     1      19.009   5.179  49.608  1.00  0.00     0.121 A 
HETATM   23  N4  UNL     1      19.401   4.998  48.365  1.00  0.00    -0.272 NA
HETATM   24  C12 UNL     1      20.778   4.563  48.257  1.00  0.00     0.121 A 
HETATM   25  C13 UNL     1      21.588   4.346  49.281  1.00  0.00     0.039 A 
HETATM   26  H9  UNL     1      21.897   2.999  50.701  1.00  0.00     0.082 HD
ENDBRANCH  11  19
TORSDOF 1
ENDMDL
