MODEL 1
REMARK VINA RESULT:      -7.9      0.000      0.000
REMARK  5 active torsions:
REMARK  status: ('A' for Active; 'I' for Inactive)
REMARK    1  A    between atoms: O1_2  and  C2_3 
REMARK    2  A    between atoms: C2_3  and  C3_4 
REMARK    3  A    between atoms: C7_10  and  O2_11 
REMARK    4  A    between atoms: O2_11  and  C8_12 
REMARK    5  A    between atoms: C16_21  and  O3_22 
ROOT
HETATM    1  C3  UNL     1      20.293  -0.342  52.914  1.00  0.00     0.001 A 
HETATM    2  C4  UNL     1      20.793  -0.881  54.086  1.00  0.00     0.045 A 
HETATM    3  C5  UNL     1      22.156  -0.886  54.326  1.00  0.00     0.073 A 
HETATM    4  N1  UNL     1      22.628  -1.418  55.484  1.00  0.00    -0.241 NA
HETATM    5  C6  UNL     1      23.982  -1.392  55.669  1.00  0.00     0.236 A 
HETATM    6  N2  UNL     1      24.803  -0.864  54.744  1.00  0.00    -0.217 NA
HETATM    7  C7  UNL     1      24.345  -0.336  53.596  1.00  0.00     0.183 A 
HETATM    8  C14 UNL     1      22.967  -0.337  53.357  1.00  0.00     0.049 A 
HETATM    9  C15 UNL     1      22.464   0.200  52.190  1.00  0.00     0.055 A 
HETATM   10  C16 UNL     1      21.107   0.209  51.944  1.00  0.00     0.077 A 
ENDROOT
BRANCH   7  11
HETATM   11  O2  UNL     1      25.141   0.222  52.604  1.00  0.00    -0.291 OA
BRANCH  11  12
HETATM   12  C8  UNL     1      26.477   0.428  52.969  1.00  0.00     0.079 A 
HETATM   13  C9  UNL     1      26.697   1.772  53.188  1.00  0.00     0.037 A 
HETATM   14  C10 UNL     1      27.950   2.255  53.566  1.00  0.00     0.004 A 
HETATM   15  C11 UNL     1      28.978   1.347  53.716  1.00  0.00     0.024 A 
HETATM   16  C12 UNL     1      28.743   0.013  53.495  1.00  0.00     0.036 A 
HETATM   17 CL1  UNL     1      29.986  -1.226  53.661  1.00  0.00    -0.084 Cl
HETATM   18  C13 UNL     1      27.509  -0.486  53.120  1.00  0.00     0.061 A 
ENDBRANCH  11  12
ENDBRANCH   7  11
BRANCH  10  19
HETATM   19  O3  UNL     1      20.497   0.722  50.807  1.00  0.00    -0.355 OA
HETATM   20  C17 UNL     1      21.301   1.462  49.901  1.00  0.00     0.210 C 
ENDBRANCH  10  19
BRANCH   1  21
HETATM   21  C2  UNL     1      18.803  -0.376  52.750  1.00  0.00     0.208 C 
BRANCH  21  22
HETATM   22  O1  UNL     1      18.293  -1.448  53.496  1.00  0.00    -0.391 OA
HETATM   23  C1  UNL     1      17.099  -1.851  52.931  1.00  0.00     0.201 C 
ENDBRANCH  21  22
ENDBRANCH   1  21
TORSDOF 5
ENDMDL
MODEL 2
REMARK VINA RESULT:      -7.6      4.263      5.243
REMARK  5 active torsions:
REMARK  status: ('A' for Active; 'I' for Inactive)
REMARK    1  A    between atoms: O1_2  and  C2_3 
REMARK    2  A    between atoms: C2_3  and  C3_4 
REMARK    3  A    between atoms: C7_10  and  O2_11 
REMARK    4  A    between atoms: O2_11  and  C8_12 
REMARK    5  A    between atoms: C16_21  and  O3_22 
ROOT
HETATM    1  C3  UNL     1      22.922   0.926  52.631  1.00  0.00     0.001 A 
HETATM    2  C4  UNL     1      24.087   1.002  53.375  1.00  0.00     0.045 A 
HETATM    3  C5  UNL     1      25.233   1.545  52.823  1.00  0.00     0.073 A 
HETATM    4  N1  UNL     1      26.367   1.613  53.570  1.00  0.00    -0.241 NA
HETATM    5  C6  UNL     1      27.467   2.163  52.974  1.00  0.00     0.236 A 
HETATM    6  N2  UNL     1      27.423   2.613  51.708  1.00  0.00    -0.217 NA
HETATM    7  C7  UNL     1      26.308   2.550  50.962  1.00  0.00     0.183 A 
HETATM    8  C14 UNL     1      25.153   1.996  51.523  1.00  0.00     0.049 A 
HETATM    9  C15 UNL     1      23.990   1.919  50.785  1.00  0.00     0.055 A 
HETATM   10  C16 UNL     1      22.842   1.379  51.329  1.00  0.00     0.077 A 
ENDROOT
BRANCH   7  11
HETATM   11  O2  UNL     1      26.201   2.995  49.651  1.00  0.00    -0.291 OA
BRANCH  11  12
HETATM   12  C8  UNL     1      26.308   4.382  49.491  1.00  0.00     0.079 A 
HETATM   13  C9  UNL     1      27.416   4.677  48.723  1.00  0.00     0.037 A 
HETATM   14  C10 UNL     1      27.756   5.993  48.408  1.00  0.00     0.004 A 
HETATM   15  C11 UNL     1      26.951   7.005  48.889  1.00  0.00     0.024 A 
HETATM   16  C12 UNL     1      25.853   6.696  49.650  1.00  0.00     0.036 A 
HETATM   17 CL1  UNL     1      24.761   7.913  50.310  1.00  0.00    -0.084 Cl
HETATM   18  C13 UNL     1      25.497   5.398  49.974  1.00  0.00     0.061 A 
ENDBRANCH  11  12
ENDBRANCH   7  11
BRANCH  10  19
HETATM   19  O3  UNL     1      21.623   1.253  50.677  1.00  0.00    -0.355 OA
HETATM   20  C17 UNL     1      21.639   1.109  49.265  1.00  0.00     0.210 C 
ENDBRANCH  10  19
BRANCH   1  21
HETATM   21  C2  UNL     1      21.732   0.328  53.319  1.00  0.00     0.208 C 
BRANCH  21  22
HETATM   22  O1  UNL     1      21.845  -1.069  53.282  1.00  0.00    -0.391 OA
HETATM   23  C1  UNL     1      21.521  -1.572  54.526  1.00  0.00     0.201 C 
ENDBRANCH  21  22
ENDBRANCH   1  21
TORSDOF 5
ENDMDL
MODEL 3
REMARK VINA RESULT:      -7.5      3.566      7.483
REMARK  5 active torsions:
REMARK  status: ('A' for Active; 'I' for Inactive)
REMARK    1  A    between atoms: O1_2  and  C2_3 
REMARK    2  A    between atoms: C2_3  and  C3_4 
REMARK    3  A    between atoms: C7_10  and  O2_11 
REMARK    4  A    between atoms: O2_11  and  C8_12 
REMARK    5  A    between atoms: C16_21  and  O3_22 
ROOT
HETATM    1  C3  UNL     1      26.854   0.580  54.035  1.00  0.00     0.001 A 
HETATM    2  C4  UNL     1      26.366   1.875  54.009  1.00  0.00     0.045 A 
HETATM    3  C5  UNL     1      25.176   2.160  53.363  1.00  0.00     0.073 A 
HETATM    4  N1  UNL     1      24.712   3.437  53.350  1.00  0.00    -0.241 NA
HETATM    5  C6  UNL     1      23.531   3.658  52.700  1.00  0.00     0.236 A 
HETATM    6  N2  UNL     1      22.864   2.655  52.102  1.00  0.00    -0.217 NA
HETATM    7  C7  UNL     1      23.315   1.390  52.109  1.00  0.00     0.183 A 
HETATM    8  C14 UNL     1      24.521   1.108  52.761  1.00  0.00     0.049 A 
HETATM    9  C15 UNL     1      25.010  -0.181  52.789  1.00  0.00     0.055 A 
HETATM   10  C16 UNL     1      26.195  -0.473  53.433  1.00  0.00     0.077 A 
ENDROOT
BRANCH   7  11
HETATM   11  O2  UNL     1      22.674   0.313  51.510  1.00  0.00    -0.291 OA
BRANCH  11  12
HETATM   12  C8  UNL     1      21.386   0.055  51.991  1.00  0.00     0.079 A 
HETATM   13  C9  UNL     1      21.465  -0.639  53.181  1.00  0.00     0.037 A 
HETATM   14  C10 UNL     1      20.320  -1.025  53.879  1.00  0.00     0.004 A 
HETATM   15  C11 UNL     1      19.091  -0.695  53.345  1.00  0.00     0.024 A 
HETATM   16  C12 UNL     1      19.029  -0.004  52.161  1.00  0.00     0.036 A 
HETATM   17 CL1  UNL     1      17.511   0.467  51.397  1.00  0.00    -0.084 Cl
HETATM   18  C13 UNL     1      20.151   0.389  51.454  1.00  0.00     0.061 A 
ENDBRANCH  11  12
ENDBRANCH   7  11
BRANCH  10  19
HETATM   19  O3  UNL     1      26.776  -1.731  53.521  1.00  0.00    -0.355 OA
HETATM   20  C17 UNL     1      27.129  -2.384  52.311  1.00  0.00     0.210 C 
ENDBRANCH  10  19
BRANCH   1  21
HETATM   21  C2  UNL     1      28.146   0.371  54.767  1.00  0.00     0.208 C 
BRANCH  21  22
HETATM   22  O1  UNL     1      29.207   0.603  53.881  1.00  0.00    -0.391 OA
HETATM   23  C1  UNL     1      29.998  -0.528  53.833  1.00  0.00     0.201 C 
ENDBRANCH  21  22
ENDBRANCH   1  21
TORSDOF 5
ENDMDL
MODEL 4
REMARK VINA RESULT:      -7.5      3.331      6.685
REMARK  5 active torsions:
REMARK  status: ('A' for Active; 'I' for Inactive)
REMARK    1  A    between atoms: O1_2  and  C2_3 
REMARK    2  A    between atoms: C2_3  and  C3_4 
REMARK    3  A    between atoms: C7_10  and  O2_11 
REMARK    4  A    between atoms: O2_11  and  C8_12 
REMARK    5  A    between atoms: C16_21  and  O3_22 
ROOT
HETATM    1  C3  UNL     1      26.530   0.358  54.265  1.00  0.00     0.001 A 
HETATM    2  C4  UNL     1      25.473  -0.514  54.071  1.00  0.00     0.045 A 
HETATM    3  C5  UNL     1      24.276  -0.055  53.549  1.00  0.00     0.073 A 
HETATM    4  N1  UNL     1      23.250  -0.927  53.363  1.00  0.00    -0.241 NA
HETATM    5  C6  UNL     1      22.094  -0.419  52.842  1.00  0.00     0.236 A 
HETATM    6  N2  UNL     1      21.983   0.884  52.529  1.00  0.00    -0.217 NA
HETATM    7  C7  UNL     1      22.991   1.754  52.710  1.00  0.00     0.183 A 
HETATM    8  C14 UNL     1      24.197   1.286  53.241  1.00  0.00     0.049 A 
HETATM    9  C15 UNL     1      25.253   2.151  53.436  1.00  0.00     0.055 A 
HETATM   10  C16 UNL     1      26.450   1.701  53.955  1.00  0.00     0.077 A 
ENDROOT
BRANCH   7  11
HETATM   11  O2  UNL     1      22.937   3.109  52.408  1.00  0.00    -0.291 OA
BRANCH  11  12
HETATM   12  C8  UNL     1      23.016   3.411  51.044  1.00  0.00     0.079 A 
HETATM   13  C9  UNL     1      23.389   4.730  50.881  1.00  0.00     0.037 A 
HETATM   14  C10 UNL     1      23.543   5.294  49.615  1.00  0.00     0.004 A 
HETATM   15  C11 UNL     1      23.312   4.494  48.515  1.00  0.00     0.024 A 
HETATM   16  C12 UNL     1      22.943   3.185  48.692  1.00  0.00     0.036 A 
HETATM   17 CL1  UNL     1      22.626   2.081  47.355  1.00  0.00    -0.084 Cl
HETATM   18  C13 UNL     1      22.785   2.606  49.939  1.00  0.00     0.061 A 
ENDBRANCH  11  12
ENDBRANCH   7  11
BRANCH  10  19
HETATM   19  O3  UNL     1      27.571   2.484  54.191  1.00  0.00    -0.355 OA
HETATM   20  C17 UNL     1      28.568   2.535  53.181  1.00  0.00     0.210 C 
ENDBRANCH  10  19
BRANCH   1  21
HETATM   21  C2  UNL     1      27.786  -0.235  54.828  1.00  0.00     0.208 C 
BRANCH  21  22
HETATM   22  O1  UNL     1      28.342  -1.100  53.875  1.00  0.00    -0.391 OA
HETATM   23  C1  UNL     1      29.706  -0.888  53.828  1.00  0.00     0.201 C 
ENDBRANCH  21  22
ENDBRANCH   1  21
TORSDOF 5
ENDMDL
MODEL 5
REMARK VINA RESULT:      -7.4      3.350      7.015
REMARK  5 active torsions:
REMARK  status: ('A' for Active; 'I' for Inactive)
REMARK    1  A    between atoms: O1_2  and  C2_3 
REMARK    2  A    between atoms: C2_3  and  C3_4 
REMARK    3  A    between atoms: C7_10  and  O2_11 
REMARK    4  A    between atoms: O2_11  and  C8_12 
REMARK    5  A    between atoms: C16_21  and  O3_22 
ROOT
HETATM    1  C3  UNL     1      26.513   0.148  54.113  1.00  0.00     0.001 A 
HETATM    2  C4  UNL     1      25.625  -0.521  54.937  1.00  0.00     0.045 A 
HETATM    3  C5  UNL     1      24.307  -0.691  54.552  1.00  0.00     0.073 A 
HETATM    4  N1  UNL     1      23.451  -1.354  55.374  1.00  0.00    -0.241 NA
HETATM    5  C6  UNL     1      22.163  -1.494  54.940  1.00  0.00     0.236 A 
HETATM    6  N2  UNL     1      21.767  -0.999  53.754  1.00  0.00    -0.217 NA
HETATM    7  C7  UNL     1      22.606  -0.342  52.935  1.00  0.00     0.183 A 
HETATM    8  C14 UNL     1      23.937  -0.170  53.332  1.00  0.00     0.049 A 
HETATM    9  C15 UNL     1      24.824   0.496  52.513  1.00  0.00     0.055 A 
HETATM   10  C16 UNL     1      26.140   0.669  52.890  1.00  0.00     0.077 A 
ENDROOT
BRANCH   7  11
HETATM   11  O2  UNL     1      22.258   0.193  51.702  1.00  0.00    -0.291 OA
BRANCH  11  12
HETATM   12  C8  UNL     1      21.100   0.980  51.709  1.00  0.00     0.079 A 
HETATM   13  C9  UNL     1      21.410   2.259  52.126  1.00  0.00     0.037 A 
HETATM   14  C10 UNL     1      20.434   3.251  52.224  1.00  0.00     0.004 A 
HETATM   15  C11 UNL     1      19.137   2.922  51.891  1.00  0.00     0.024 A 
HETATM   16  C12 UNL     1      18.844   1.647  51.477  1.00  0.00     0.036 A 
HETATM   17 CL1  UNL     1      17.221   1.126  51.028  1.00  0.00    -0.084 Cl
HETATM   18  C13 UNL     1      19.796   0.648  51.372  1.00  0.00     0.061 A 
ENDBRANCH  11  12
ENDBRANCH   7  11
BRANCH  10  19
HETATM   19  O3  UNL     1      27.113   1.322  52.145  1.00  0.00    -0.355 OA
HETATM   20  C17 UNL     1      26.726   2.477  51.417  1.00  0.00     0.210 C 
ENDBRANCH  10  19
BRANCH   1  21
HETATM   21  C2  UNL     1      27.920   0.274  54.615  1.00  0.00     0.208 C 
BRANCH  21  22
HETATM   22  O1  UNL     1      28.611  -0.910  54.321  1.00  0.00    -0.391 OA
HETATM   23  C1  UNL     1      29.773  -0.588  53.648  1.00  0.00     0.201 C 
ENDBRANCH  21  22
ENDBRANCH   1  21
TORSDOF 5
ENDMDL
MODEL 6
REMARK VINA RESULT:      -7.4      2.368      3.500
REMARK  5 active torsions:
REMARK  status: ('A' for Active; 'I' for Inactive)
REMARK    1  A    between atoms: O1_2  and  C2_3 
REMARK    2  A    between atoms: C2_3  and  C3_4 
REMARK    3  A    between atoms: C7_10  and  O2_11 
REMARK    4  A    between atoms: O2_11  and  C8_12 
REMARK    5  A    between atoms: C16_21  and  O3_22 
ROOT
HETATM    1  C3  UNL     1      21.476   0.684  52.097  1.00  0.00     0.001 A 
HETATM    2  C4  UNL     1      22.035   1.388  51.045  1.00  0.00     0.045 A 
HETATM    3  C5  UNL     1      23.321   1.890  51.145  1.00  0.00     0.073 A 
HETATM    4  N1  UNL     1      23.854   2.577  50.100  1.00  0.00    -0.241 NA
HETATM    5  C6  UNL     1      25.128   3.045  50.255  1.00  0.00     0.236 A 
HETATM    6  N2  UNL     1      25.817   2.833  51.390  1.00  0.00    -0.217 NA
HETATM    7  C7  UNL     1      25.298   2.156  52.428  1.00  0.00     0.183 A 
HETATM    8  C14 UNL     1      23.997   1.655  52.323  1.00  0.00     0.049 A 
HETATM    9  C15 UNL     1      23.437   0.952  53.369  1.00  0.00     0.055 A 
HETATM   10  C16 UNL     1      22.155   0.448  53.276  1.00  0.00     0.077 A 
ENDROOT
BRANCH   7  11
HETATM   11  O2  UNL     1      25.958   1.907  53.625  1.00  0.00    -0.291 OA
BRANCH  11  12
HETATM   12  C8  UNL     1      27.012   0.991  53.535  1.00  0.00     0.079 A 
HETATM   13  C9  UNL     1      28.205   1.626  53.814  1.00  0.00     0.037 A 
HETATM   14  C10 UNL     1      29.420   0.939  53.795  1.00  0.00     0.004 A 
HETATM   15  C11 UNL     1      29.401  -0.406  53.487  1.00  0.00     0.024 A 
HETATM   16  C12 UNL     1      28.207  -1.023  53.212  1.00  0.00     0.036 A 
HETATM   17 CL1  UNL     1      28.076  -2.734  52.808  1.00  0.00    -0.084 Cl
HETATM   18  C13 UNL     1      26.992  -0.361  53.225  1.00  0.00     0.061 A 
ENDBRANCH  11  12
ENDBRANCH   7  11
BRANCH  10  19
HETATM   19  O3  UNL     1      21.498  -0.270  54.265  1.00  0.00    -0.355 OA
HETATM   20  C17 UNL     1      22.242  -1.244  54.982  1.00  0.00     0.210 C 
ENDBRANCH  10  19
BRANCH   1  21
HETATM   21  C2  UNL     1      20.082   0.175  51.889  1.00  0.00     0.208 C 
BRANCH  21  22
HETATM   22  O1  UNL     1      19.587   0.695  50.685  1.00  0.00    -0.391 OA
HETATM   23  C1  UNL     1      18.256   0.348  50.567  1.00  0.00     0.201 C 
ENDBRANCH  21  22
ENDBRANCH   1  21
TORSDOF 5
ENDMDL
MODEL 7
REMARK VINA RESULT:      -7.4      3.617      7.176
REMARK  5 active torsions:
REMARK  status: ('A' for Active; 'I' for Inactive)
REMARK    1  A    between atoms: O1_2  and  C2_3 
REMARK    2  A    between atoms: C2_3  and  C3_4 
REMARK    3  A    between atoms: C7_10  and  O2_11 
REMARK    4  A    between atoms: O2_11  and  C8_12 
REMARK    5  A    between atoms: C16_21  and  O3_22 
ROOT
HETATM    1  C3  UNL     1      26.230  -0.114  52.995  1.00  0.00     0.001 A 
HETATM    2  C4  UNL     1      25.332  -0.811  53.785  1.00  0.00     0.045 A 
HETATM    3  C5  UNL     1      24.010  -0.411  53.859  1.00  0.00     0.073 A 
HETATM    4  N1  UNL     1      23.143  -1.109  54.638  1.00  0.00    -0.241 NA
HETATM    5  C6  UNL     1      21.849  -0.671  54.669  1.00  0.00     0.236 A 
HETATM    6  N2  UNL     1      21.459   0.403  53.960  1.00  0.00    -0.217 NA
HETATM    7  C7  UNL     1      22.309   1.100  53.187  1.00  0.00     0.183 A 
HETATM    8  C14 UNL     1      23.645   0.694  53.120  1.00  0.00     0.049 A 
HETATM    9  C15 UNL     1      24.542   1.386  52.334  1.00  0.00     0.055 A 
HETATM   10  C16 UNL     1      25.863   0.992  52.254  1.00  0.00     0.077 A 
ENDROOT
BRANCH   7  11
HETATM   11  O2  UNL     1      21.967   2.216  52.435  1.00  0.00    -0.291 OA
BRANCH  11  12
HETATM   12  C8  UNL     1      20.760   2.105  51.733  1.00  0.00     0.079 A 
HETATM   13  C9  UNL     1      20.948   1.331  50.606  1.00  0.00     0.037 A 
HETATM   14  C10 UNL     1      19.901   1.059  49.725  1.00  0.00     0.004 A 
HETATM   15  C11 UNL     1      18.659   1.588  50.008  1.00  0.00     0.024 A 
HETATM   16  C12 UNL     1      18.488   2.355  51.132  1.00  0.00     0.036 A 
HETATM   17 CL1  UNL     1      16.943   3.075  51.584  1.00  0.00    -0.084 Cl
HETATM   18  C13 UNL     1      19.512   2.637  52.020  1.00  0.00     0.061 A 
ENDBRANCH  11  12
ENDBRANCH   7  11
BRANCH  10  19
HETATM   19  O3  UNL     1      26.846   1.615  51.497  1.00  0.00    -0.355 OA
HETATM   20  C17 UNL     1      26.473   2.754  50.736  1.00  0.00     0.210 C 
ENDBRANCH  10  19
BRANCH   1  21
HETATM   21  C2  UNL     1      27.637  -0.629  52.975  1.00  0.00     0.208 C 
BRANCH  21  22
HETATM   22  O1  UNL     1      28.085  -0.767  54.297  1.00  0.00    -0.391 OA
HETATM   23  C1  UNL     1      28.790   0.369  54.645  1.00  0.00     0.201 C 
ENDBRANCH  21  22
ENDBRANCH   1  21
TORSDOF 5
ENDMDL
MODEL 8
REMARK VINA RESULT:      -7.1      4.283      7.743
REMARK  5 active torsions:
REMARK  status: ('A' for Active; 'I' for Inactive)
REMARK    1  A    between atoms: O1_2  and  C2_3 
REMARK    2  A    between atoms: C2_3  and  C3_4 
REMARK    3  A    between atoms: C7_10  and  O2_11 
REMARK    4  A    between atoms: O2_11  and  C8_12 
REMARK    5  A    between atoms: C16_21  and  O3_22 
ROOT
HETATM    1  C3  UNL     1      27.437   0.639  53.847  1.00  0.00     0.001 A 
HETATM    2  C4  UNL     1      27.720   1.513  52.812  1.00  0.00     0.045 A 
HETATM    3  C5  UNL     1      26.695   2.053  52.055  1.00  0.00     0.073 A 
HETATM    4  N1  UNL     1      26.992   2.911  51.044  1.00  0.00    -0.241 NA
HETATM    5  C6  UNL     1      25.940   3.416  50.333  1.00  0.00     0.236 A 
HETATM    6  N2  UNL     1      24.672   3.076  50.626  1.00  0.00    -0.217 NA
HETATM    7  C7  UNL     1      24.369   2.228  51.623  1.00  0.00     0.183 A 
HETATM    8  C14 UNL     1      25.409   1.682  52.382  1.00  0.00     0.049 A 
HETATM    9  C15 UNL     1      25.131   0.812  53.415  1.00  0.00     0.055 A 
HETATM   10  C16 UNL     1      26.148   0.269  54.175  1.00  0.00     0.077 A 
ENDROOT
BRANCH   7  11
HETATM   11  O2  UNL     1      23.082   1.838  51.972  1.00  0.00    -0.291 OA
BRANCH  11  12
HETATM   12  C8  UNL     1      22.100   2.134  51.021  1.00  0.00     0.079 A 
HETATM   13  C9  UNL     1      22.010   1.102  50.109  1.00  0.00     0.037 A 
HETATM   14  C10 UNL     1      21.103   1.141  49.049  1.00  0.00     0.004 A 
HETATM   15  C11 UNL     1      20.289   2.248  48.931  1.00  0.00     0.024 A 
HETATM   16  C12 UNL     1      20.390   3.266  49.845  1.00  0.00     0.036 A 
HETATM   17 CL1  UNL     1      19.395   4.721  49.783  1.00  0.00    -0.084 Cl
HETATM   18  C13 UNL     1      21.281   3.248  50.903  1.00  0.00     0.061 A 
ENDBRANCH  11  12
ENDBRANCH   7  11
BRANCH  10  19
HETATM   19  O3  UNL     1      25.981  -0.614  55.233  1.00  0.00    -0.355 OA
HETATM   20  C17 UNL     1      24.679  -1.130  55.466  1.00  0.00     0.210 C 
ENDBRANCH  10  19
BRANCH   1  21
HETATM   21  C2  UNL     1      28.614   0.114  54.613  1.00  0.00     0.208 C 
BRANCH  21  22
HETATM   22  O1  UNL     1      29.608  -0.273  53.702  1.00  0.00    -0.391 OA
HETATM   23  C1  UNL     1      29.471  -1.623  53.445  1.00  0.00     0.201 C 
ENDBRANCH  21  22
ENDBRANCH   1  21
TORSDOF 5
ENDMDL
MODEL 9
REMARK VINA RESULT:      -7.1      4.027      7.369
REMARK  5 active torsions:
REMARK  status: ('A' for Active; 'I' for Inactive)
REMARK    1  A    between atoms: O1_2  and  C2_3 
REMARK    2  A    between atoms: C2_3  and  C3_4 
REMARK    3  A    between atoms: C7_10  and  O2_11 
REMARK    4  A    between atoms: O2_11  and  C8_12 
REMARK    5  A    between atoms: C16_21  and  O3_22 
ROOT
HETATM    1  C3  UNL     1      26.801  -0.149  52.826  1.00  0.00     0.001 A 
HETATM    2  C4  UNL     1      27.136   0.699  51.786  1.00  0.00     0.045 A 
HETATM    3  C5  UNL     1      26.356   1.808  51.509  1.00  0.00     0.073 A 
HETATM    4  N1  UNL     1      26.703   2.631  50.485  1.00  0.00    -0.241 NA
HETATM    5  C6  UNL     1      25.898   3.712  50.261  1.00  0.00     0.236 A 
HETATM    6  N2  UNL     1      24.813   3.944  51.021  1.00  0.00    -0.217 NA
HETATM    7  C7  UNL     1      24.461   3.135  52.035  1.00  0.00     0.183 A 
HETATM    8  C14 UNL     1      25.252   2.014  52.307  1.00  0.00     0.049 A 
HETATM    9  C15 UNL     1      24.920   1.166  53.343  1.00  0.00     0.055 A 
HETATM   10  C16 UNL     1      25.694   0.059  53.626  1.00  0.00     0.077 A 
ENDROOT
BRANCH   7  11
HETATM   11  O2  UNL     1      23.354   3.321  52.853  1.00  0.00    -0.291 OA
BRANCH  11  12
HETATM   12  C8  UNL     1      22.122   3.053  52.244  1.00  0.00     0.079 A 
HETATM   13  C9  UNL     1      21.500   4.240  51.913  1.00  0.00     0.037 A 
HETATM   14  C10 UNL     1      20.252   4.261  51.290  1.00  0.00     0.004 A 
HETATM   15  C11 UNL     1      19.645   3.054  51.010  1.00  0.00     0.024 A 
HETATM   16  C12 UNL     1      20.276   1.883  51.345  1.00  0.00     0.036 A 
HETATM   17 CL1  UNL     1      19.587   0.291  51.029  1.00  0.00    -0.084 Cl
HETATM   18  C13 UNL     1      21.514   1.839  51.962  1.00  0.00     0.061 A 
ENDBRANCH  11  12
ENDBRANCH   7  11
BRANCH  10  19
HETATM   19  O3  UNL     1      25.452  -0.856  54.641  1.00  0.00    -0.355 OA
HETATM   20  C17 UNL     1      24.105  -1.062  55.039  1.00  0.00     0.210 C 
ENDBRANCH  10  19
BRANCH   1  21
HETATM   21  C2  UNL     1      27.712  -1.318  53.051  1.00  0.00     0.208 C 
BRANCH  21  22
HETATM   22  O1  UNL     1      28.585  -1.012  54.105  1.00  0.00    -0.391 OA
HETATM   23  C1  UNL     1      29.875  -0.971  53.613  1.00  0.00     0.201 C 
ENDBRANCH  21  22
ENDBRANCH   1  21
TORSDOF 5
ENDMDL
