MODEL 1
REMARK VINA RESULT:      -9.5      0.000      0.000
REMARK  4 active torsions:
REMARK  status: ('A' for Active; 'I' for Inactive)
REMARK    1  A    between atoms: O1_2  and  C2_3 
REMARK    2  A    between atoms: C11_14  and  C12_15 
REMARK    3  A    between atoms: C12_15  and  C13_16 
REMARK    4  A    between atoms: C13_16  and  C14_17 
ROOT
HETATM    1  C2  UNL     1      21.401   4.289  51.707  1.00  0.00     0.089 A 
HETATM    2  C3  UNL     1      20.766   4.901  50.647  1.00  0.00     0.067 A 
HETATM    3  C4  UNL     1      19.777   4.294  49.815  1.00  0.00     0.071 A 
HETATM    4  N1  UNL     1      19.290   5.067  48.758  1.00  0.00    -0.260 NA
HETATM    5  C5  UNL     1      18.404   4.451  47.973  1.00  0.00     0.119 A 
HETATM    6  C6  UNL     1      18.175   3.188  48.391  1.00  0.00     0.049 A 
HETATM    7  C7  UNL     1      18.500   2.272  49.322  1.00  0.00     0.042 A 
HETATM    8  C8  UNL     1      19.464   3.035  50.118  1.00  0.00     0.018 A 
HETATM    9  C9  UNL     1      20.298   2.855  51.184  1.00  0.00     0.036 A 
HETATM   10  C10 UNL     1      21.209   2.952  52.187  1.00  0.00     0.238 A 
HETATM   11  N2  UNL     1      21.354   1.734  52.963  1.00  0.00     0.111 N 
HETATM   12  C11 UNL     1      22.206   0.606  52.533  1.00  0.00     0.232 C 
HETATM   13  C19 UNL     1      22.125  -0.402  53.470  1.00  0.00     0.032 A 
HETATM   14  C20 UNL     1      21.229  -1.315  54.205  1.00  0.00     0.005 A 
HETATM   15  C21 UNL     1      20.472  -0.474  53.203  1.00  0.00     0.119 A 
HETATM   16  C22 UNL     1      18.996  -0.776  53.076  1.00  0.00     0.107 C 
HETATM   17  F1  UNL     1      18.228  -1.744  53.817  1.00  0.00    -0.247 F 
HETATM   18  C23 UNL     1      18.466  -0.131  51.675  1.00  0.00     0.077 C 
HETATM   19 CL1  UNL     1      16.785  -0.504  52.305  1.00  0.00    -0.119 Cl
HETATM   20  C24 UNL     1      18.786   0.510  50.624  1.00  0.00     0.189 C 
HETATM   21  N3  UNL     1      17.978   0.917  49.532  1.00  0.00    -0.380 N 
HETATM   22  H8  UNL     1      21.864   1.951  52.114  1.00  0.00     0.362 HD
HETATM   23  H23 UNL     1      17.257   0.797  48.799  1.00  0.00     0.160 HD
ENDROOT
BRANCH  12  24
HETATM   24  C12 UNL     1      23.641   1.071  52.290  1.00  0.00     0.031 C 
BRANCH  24  25
HETATM   25  C13 UNL     1      24.355   0.160  52.888  1.00  0.00     0.009 C 
BRANCH  25  26
HETATM   26  C14 UNL     1      25.214  -0.682  53.642  1.00  0.00     0.064 C 
HETATM   27  C15 UNL     1      26.329  -1.225  52.576  1.00  0.00     0.039 C 
HETATM   28  C16 UNL     1      27.390  -0.159  52.624  1.00  0.00     0.168 C 
HETATM   29  O2  UNL     1      28.138  -0.252  53.783  1.00  0.00    -0.384 OA
HETATM   30  C17 UNL     1      27.341   0.336  54.850  1.00  0.00     0.246 C 
HETATM   31  C18 UNL     1      26.034  -0.397  54.794  1.00  0.00     0.154 C 
HETATM   32  O3  UNL     1      25.639  -0.797  55.947  1.00  0.00    -0.295 OA
ENDBRANCH  25  26
ENDBRANCH  24  25
ENDBRANCH  12  24
BRANCH   1  33
HETATM   33  O1  UNL     1      22.307   4.626  52.572  1.00  0.00    -0.357 OA
HETATM   34  C1  UNL     1      23.494   4.801  53.083  1.00  0.00     0.209 C 
ENDBRANCH   1  33
TORSDOF 4
ENDMDL
MODEL 2
REMARK VINA RESULT:      -9.1      4.152      7.481
REMARK  4 active torsions:
REMARK  status: ('A' for Active; 'I' for Inactive)
REMARK    1  A    between atoms: O1_2  and  C2_3 
REMARK    2  A    between atoms: C11_14  and  C12_15 
REMARK    3  A    between atoms: C12_15  and  C13_16 
REMARK    4  A    between atoms: C13_16  and  C14_17 
ROOT
HETATM    1  C2  UNL     1      21.085   2.768  52.172  1.00  0.00     0.089 A 
HETATM    2  C3  UNL     1      20.521   1.747  52.906  1.00  0.00     0.067 A 
HETATM    3  C4  UNL     1      21.216   0.597  53.393  1.00  0.00     0.071 A 
HETATM    4  N1  UNL     1      20.452  -0.352  54.076  1.00  0.00    -0.260 NA
HETATM    5  C5  UNL     1      21.124  -1.435  54.472  1.00  0.00     0.119 A 
HETATM    6  C6  UNL     1      22.423  -1.362  54.114  1.00  0.00     0.049 A 
HETATM    7  C7  UNL     1      23.342  -0.600  53.491  1.00  0.00     0.042 A 
HETATM    8  C8  UNL     1      22.514   0.542  53.097  1.00  0.00     0.018 A 
HETATM    9  C9  UNL     1      22.626   1.708  52.395  1.00  0.00     0.036 A 
HETATM   10  C10 UNL     1      22.450   2.891  51.751  1.00  0.00     0.238 A 
HETATM   11  N2  UNL     1      23.657   3.400  51.126  1.00  0.00     0.111 N 
HETATM   12  C11 UNL     1      24.125   2.947  49.800  1.00  0.00     0.232 C 
HETATM   13  C19 UNL     1      25.297   3.600  49.488  1.00  0.00     0.032 A 
HETATM   14  C20 UNL     1      26.679   3.894  49.911  1.00  0.00     0.005 A 
HETATM   15  C21 UNL     1      25.990   2.949  50.868  1.00  0.00     0.119 A 
HETATM   16  C22 UNL     1      26.845   2.422  51.999  1.00  0.00     0.107 C 
HETATM   17  F1  UNL     1      28.220   2.740  52.285  1.00  0.00    -0.247 F 
HETATM   18  C23 UNL     1      26.105   1.109  52.622  1.00  0.00     0.077 C 
HETATM   19 CL1  UNL     1      27.334   1.237  53.977  1.00  0.00    -0.119 Cl
HETATM   20  C24 UNL     1      25.108   0.323  52.538  1.00  0.00     0.189 C 
HETATM   21  N3  UNL     1      24.783  -0.813  53.322  1.00  0.00    -0.380 N 
HETATM   22  H8  UNL     1      23.000   2.759  50.695  1.00  0.00     0.362 HD
HETATM   23  H23 UNL     1      24.977  -1.700  53.817  1.00  0.00     0.160 HD
ENDROOT
BRANCH  12  24
HETATM   24  C12 UNL     1      23.038   3.149  48.744  1.00  0.00     0.031 C 
BRANCH  24  25
HETATM   25  C13 UNL     1      23.044   4.437  48.554  1.00  0.00     0.009 C 
BRANCH  25  26
HETATM   26  C14 UNL     1      22.888   5.812  48.234  1.00  0.00     0.064 C 
HETATM   27  C15 UNL     1      22.843   6.587  49.673  1.00  0.00     0.039 C 
HETATM   28  C16 UNL     1      24.297   6.854  49.958  1.00  0.00     0.168 C 
HETATM   29  O2  UNL     1      24.777   7.886  49.174  1.00  0.00    -0.384 OA
HETATM   30  C17 UNL     1      25.024   7.332  47.850  1.00  0.00     0.246 C 
HETATM   31  C18 UNL     1      23.724   6.695  47.458  1.00  0.00     0.154 C 
HETATM   32  O3  UNL     1      23.356   7.007  46.270  1.00  0.00    -0.295 OA
ENDBRANCH  25  26
ENDBRANCH  24  25
ENDBRANCH  12  24
BRANCH   1  33
HETATM   33  O1  UNL     1      20.666   3.871  51.633  1.00  0.00    -0.357 OA
HETATM   34  C1  UNL     1      19.968   4.658  50.863  1.00  0.00     0.209 C 
ENDBRANCH   1  33
TORSDOF 4
ENDMDL
MODEL 3
REMARK VINA RESULT:      -8.7      4.545      6.191
REMARK  4 active torsions:
REMARK  status: ('A' for Active; 'I' for Inactive)
REMARK    1  A    between atoms: O1_2  and  C2_3 
REMARK    2  A    between atoms: C11_14  and  C12_15 
REMARK    3  A    between atoms: C12_15  and  C13_16 
REMARK    4  A    between atoms: C13_16  and  C14_17 
ROOT
HETATM    1  C2  UNL     1      20.991   3.784  48.989  1.00  0.00     0.089 A 
HETATM    2  C3  UNL     1      20.086   4.820  49.081  1.00  0.00     0.067 A 
HETATM    3  C4  UNL     1      20.418   6.190  49.313  1.00  0.00     0.071 A 
HETATM    4  N1  UNL     1      19.349   7.083  49.424  1.00  0.00    -0.260 NA
HETATM    5  C5  UNL     1      19.695   8.344  49.689  1.00  0.00     0.119 A 
HETATM    6  C6  UNL     1      21.034   8.472  49.791  1.00  0.00     0.049 A 
HETATM    7  C7  UNL     1      22.202   7.805  49.728  1.00  0.00     0.042 A 
HETATM    8  C8  UNL     1      21.718   6.453  49.442  1.00  0.00     0.018 A 
HETATM    9  C9  UNL     1      22.211   5.189  49.285  1.00  0.00     0.036 A 
HETATM   10  C10 UNL     1      22.418   3.859  49.102  1.00  0.00     0.238 A 
HETATM   11  N2  UNL     1      23.816   3.473  49.164  1.00  0.00     0.111 N 
HETATM   12  C11 UNL     1      24.526   3.231  50.437  1.00  0.00     0.232 C 
HETATM   13  C19 UNL     1      25.834   2.895  50.166  1.00  0.00     0.032 A 
HETATM   14  C20 UNL     1      27.088   3.307  49.507  1.00  0.00     0.005 A 
HETATM   15  C21 UNL     1      26.019   4.370  49.391  1.00  0.00     0.119 A 
HETATM   16  C22 UNL     1      26.445   5.657  48.721  1.00  0.00     0.107 C 
HETATM   17  F1  UNL     1      27.732   5.973  48.157  1.00  0.00    -0.247 F 
HETATM   18  C23 UNL     1      25.351   6.807  49.095  1.00  0.00     0.077 C 
HETATM   19 CL1  UNL     1      26.188   7.817  47.815  1.00  0.00    -0.119 Cl
HETATM   20  C24 UNL     1      24.288   7.079  49.740  1.00  0.00     0.189 C 
HETATM   21  N3  UNL     1      23.577   8.303  49.836  1.00  0.00    -0.380 N 
HETATM   22  H8  UNL     1      23.192   3.541  49.960  1.00  0.00     0.362 HD
HETATM   23  H23 UNL     1      23.478   9.325  49.957  1.00  0.00     0.160 HD
ENDROOT
BRANCH  12  24
HETATM   24  C12 UNL     1      23.804   2.170  51.267  1.00  0.00     0.031 C 
BRANCH  24  25
HETATM   25  C13 UNL     1      24.635   1.942  52.245  1.00  0.00     0.009 C 
BRANCH  25  26
HETATM   26  C14 UNL     1      25.387   1.602  53.399  1.00  0.00     0.064 C 
HETATM   27  C15 UNL     1      24.864   0.113  53.832  1.00  0.00     0.039 C 
HETATM   28  C16 UNL     1      25.749  -0.802  53.029  1.00  0.00     0.168 C 
HETATM   29  O2  UNL     1      27.023  -0.859  53.563  1.00  0.00    -0.384 OA
HETATM   30  C17 UNL     1      27.711   0.355  53.146  1.00  0.00     0.246 C 
HETATM   31  C18 UNL     1      26.812   1.470  53.587  1.00  0.00     0.154 C 
HETATM   32  O3  UNL     1      27.442   2.404  54.201  1.00  0.00    -0.295 OA
ENDBRANCH  25  26
ENDBRANCH  24  25
ENDBRANCH  12  24
BRANCH   1  33
HETATM   33  O1  UNL     1      20.926   2.504  48.797  1.00  0.00    -0.357 OA
HETATM   34  C1  UNL     1      21.226   1.240  48.918  1.00  0.00     0.209 C 
ENDBRANCH   1  33
TORSDOF 4
ENDMDL
MODEL 4
REMARK VINA RESULT:      -8.7      3.329      6.597
REMARK  4 active torsions:
REMARK  status: ('A' for Active; 'I' for Inactive)
REMARK    1  A    between atoms: O1_2  and  C2_3 
REMARK    2  A    between atoms: C11_14  and  C12_15 
REMARK    3  A    between atoms: C12_15  and  C13_16 
REMARK    4  A    between atoms: C13_16  and  C14_17 
ROOT
HETATM    1  C2  UNL     1      24.996   1.165  52.063  1.00  0.00     0.089 A 
HETATM    2  C3  UNL     1      24.977   0.260  53.103  1.00  0.00     0.067 A 
HETATM    3  C4  UNL     1      23.802  -0.219  53.760  1.00  0.00     0.071 A 
HETATM    4  N1  UNL     1      23.998  -1.098  54.829  1.00  0.00    -0.260 NA
HETATM    5  C5  UNL     1      22.881  -1.485  55.449  1.00  0.00     0.119 A 
HETATM    6  C6  UNL     1      21.790  -0.926  54.886  1.00  0.00     0.049 A 
HETATM    7  C7  UNL     1      21.368  -0.100  53.910  1.00  0.00     0.042 A 
HETATM    8  C8  UNL     1      22.649   0.267  53.303  1.00  0.00     0.018 A 
HETATM    9  C9  UNL     1      23.132   1.084  52.321  1.00  0.00     0.036 A 
HETATM   10  C10 UNL     1      23.873   1.801  51.437  1.00  0.00     0.238 A 
HETATM   11  N2  UNL     1      23.083   2.649  50.566  1.00  0.00     0.111 N 
HETATM   12  C11 UNL     1      22.595   3.984  50.972  1.00  0.00     0.232 C 
HETATM   13  C19 UNL     1      21.869   4.532  49.938  1.00  0.00     0.032 A 
HETATM   14  C20 UNL     1      20.724   4.357  49.024  1.00  0.00     0.005 A 
HETATM   15  C21 UNL     1      20.828   3.220  50.016  1.00  0.00     0.119 A 
HETATM   16  C22 UNL     1      19.723   2.191  49.951  1.00  0.00     0.107 C 
HETATM   17  F1  UNL     1      18.608   2.151  49.040  1.00  0.00    -0.247 F 
HETATM   18  C23 UNL     1      19.742   1.341  51.343  1.00  0.00     0.077 C 
HETATM   19 CL1  UNL     1      18.570   0.210  50.501  1.00  0.00    -0.119 Cl
HETATM   20  C24 UNL     1      20.293   1.196  52.480  1.00  0.00     0.189 C 
HETATM   21  N3  UNL     1      20.005   0.268  53.513  1.00  0.00    -0.380 N 
HETATM   22  H8  UNL     1      23.428   2.912  51.482  1.00  0.00     0.362 HD
HETATM   23  H23 UNL     1      19.391  -0.272  54.148  1.00  0.00     0.160 HD
ENDROOT
BRANCH  12  24
HETATM   24  C12 UNL     1      23.757   4.874  51.414  1.00  0.00     0.031 C 
BRANCH  24  25
HETATM   25  C13 UNL     1      24.324   5.203  50.288  1.00  0.00     0.009 C 
BRANCH  25  26
HETATM   26  C14 UNL     1      25.048   5.395  49.082  1.00  0.00     0.064 C 
HETATM   27  C15 UNL     1      24.193   6.505  48.237  1.00  0.00     0.039 C 
HETATM   28  C16 UNL     1      24.750   7.811  48.738  1.00  0.00     0.168 C 
HETATM   29  O2  UNL     1      26.002   8.055  48.206  1.00  0.00    -0.384 OA
HETATM   30  C17 UNL     1      26.947   7.238  48.955  1.00  0.00     0.246 C 
HETATM   31  C18 UNL     1      26.400   5.845  48.861  1.00  0.00     0.154 C 
HETATM   32  O3  UNL     1      27.294   4.981  48.542  1.00  0.00    -0.295 OA
ENDBRANCH  25  26
ENDBRANCH  24  25
ENDBRANCH  12  24
BRANCH   1  33
HETATM   33  O1  UNL     1      25.909   1.734  51.339  1.00  0.00    -0.357 OA
HETATM   34  C1  UNL     1      26.830   2.592  50.998  1.00  0.00     0.209 C 
ENDBRANCH   1  33
TORSDOF 4
ENDMDL
MODEL 5
REMARK VINA RESULT:      -8.6      3.632      7.951
REMARK  4 active torsions:
REMARK  status: ('A' for Active; 'I' for Inactive)
REMARK    1  A    between atoms: O1_2  and  C2_3 
REMARK    2  A    between atoms: C11_14  and  C12_15 
REMARK    3  A    between atoms: C12_15  and  C13_16 
REMARK    4  A    between atoms: C13_16  and  C14_17 
ROOT
HETATM    1  C2  UNL     1      22.966  -0.251  53.810  1.00  0.00     0.089 A 
HETATM    2  C3  UNL     1      24.313  -0.541  53.848  1.00  0.00     0.067 A 
HETATM    3  C4  UNL     1      25.343   0.230  53.226  1.00  0.00     0.071 A 
HETATM    4  N1  UNL     1      26.646  -0.261  53.339  1.00  0.00    -0.260 NA
HETATM    5  C5  UNL     1      27.574   0.458  52.705  1.00  0.00     0.119 A 
HETATM    6  C6  UNL     1      27.026   1.524  52.084  1.00  0.00     0.049 A 
HETATM    7  C7  UNL     1      25.871   2.172  51.843  1.00  0.00     0.042 A 
HETATM    8  C8  UNL     1      24.932   1.312  52.568  1.00  0.00     0.018 A 
HETATM    9  C9  UNL     1      23.589   1.205  52.790  1.00  0.00     0.036 A 
HETATM   10  C10 UNL     1      22.328   0.855  53.157  1.00  0.00     0.238 A 
HETATM   11  N2  UNL     1      21.305   1.755  52.659  1.00  0.00     0.111 N 
HETATM   12  C11 UNL     1      20.747   1.659  51.295  1.00  0.00     0.232 C 
HETATM   13  C19 UNL     1      19.810   2.654  51.120  1.00  0.00     0.032 A 
HETATM   14  C20 UNL     1      19.551   4.106  51.159  1.00  0.00     0.005 A 
HETATM   15  C21 UNL     1      21.002   3.789  51.441  1.00  0.00     0.119 A 
HETATM   16  C22 UNL     1      21.912   4.983  51.616  1.00  0.00     0.107 C 
HETATM   17  F1  UNL     1      21.553   6.377  51.577  1.00  0.00    -0.247 F 
HETATM   18  C23 UNL     1      23.452   4.474  51.445  1.00  0.00     0.077 C 
HETATM   19 CL1  UNL     1      23.918   6.132  52.076  1.00  0.00    -0.119 Cl
HETATM   20  C24 UNL     1      24.213   3.483  51.204  1.00  0.00     0.189 C 
HETATM   21  N3  UNL     1      25.628   3.428  51.126  1.00  0.00    -0.380 N 
HETATM   22  H8  UNL     1      21.672   0.953  52.159  1.00  0.00     0.362 HD
HETATM   23  H23 UNL     1      26.567   3.752  50.839  1.00  0.00     0.160 HD
ENDROOT
BRANCH  12  24
HETATM   24  C12 UNL     1      20.180   0.263  51.038  1.00  0.00     0.031 C 
BRANCH  24  25
HETATM   25  C13 UNL     1      18.952   0.504  50.674  1.00  0.00     0.009 C 
BRANCH  25  26
HETATM   26  C14 UNL     1      17.602   0.570  50.241  1.00  0.00     0.064 C 
HETATM   27  C15 UNL     1      16.829  -0.621  51.054  1.00  0.00     0.039 C 
HETATM   28  C16 UNL     1      16.415   0.058  52.332  1.00  0.00     0.168 C 
HETATM   29  O2  UNL     1      15.343   0.904  52.122  1.00  0.00    -0.384 OA
HETATM   30  C17 UNL     1      15.874   2.119  51.520  1.00  0.00     0.246 C 
HETATM   31  C18 UNL     1      16.641   1.643  50.323  1.00  0.00     0.154 C 
HETATM   32  O3  UNL     1      16.373   2.313  49.262  1.00  0.00    -0.295 OA
ENDBRANCH  25  26
ENDBRANCH  24  25
ENDBRANCH  12  24
BRANCH   1  33
HETATM   33  O1  UNL     1      21.882  -0.789  54.276  1.00  0.00    -0.357 OA
HETATM   34  C1  UNL     1      20.795  -1.509  54.298  1.00  0.00     0.209 C 
ENDBRANCH   1  33
TORSDOF 4
ENDMDL
MODEL 6
REMARK VINA RESULT:      -8.6      2.716      6.837
REMARK  4 active torsions:
REMARK  status: ('A' for Active; 'I' for Inactive)
REMARK    1  A    between atoms: O1_2  and  C2_3 
REMARK    2  A    between atoms: C11_14  and  C12_15 
REMARK    3  A    between atoms: C12_15  and  C13_16 
REMARK    4  A    between atoms: C13_16  and  C14_17 
ROOT
HETATM    1  C2  UNL     1      24.951   1.626  52.106  1.00  0.00     0.089 A 
HETATM    2  C3  UNL     1      25.338   0.651  53.001  1.00  0.00     0.067 A 
HETATM    3  C4  UNL     1      24.457  -0.096  53.841  1.00  0.00     0.071 A 
HETATM    4  N1  UNL     1      25.052  -1.006  54.719  1.00  0.00    -0.260 NA
HETATM    5  C5  UNL     1      24.202  -1.649  55.522  1.00  0.00     0.119 A 
HETATM    6  C6  UNL     1      22.929  -1.264  55.296  1.00  0.00     0.049 A 
HETATM    7  C7  UNL     1      22.149  -0.457  54.553  1.00  0.00     0.042 A 
HETATM    8  C8  UNL     1      23.162   0.197  53.722  1.00  0.00     0.018 A 
HETATM    9  C9  UNL     1      23.247   1.169  52.767  1.00  0.00     0.036 A 
HETATM   10  C10 UNL     1      23.620   2.085  51.835  1.00  0.00     0.238 A 
HETATM   11  N2  UNL     1      22.510   2.836  51.279  1.00  0.00     0.111 N 
HETATM   12  C11 UNL     1      21.923   4.014  51.949  1.00  0.00     0.232 C 
HETATM   13  C19 UNL     1      20.884   4.497  51.184  1.00  0.00     0.032 A 
HETATM   14  C20 UNL     1      19.595   4.182  50.539  1.00  0.00     0.005 A 
HETATM   15  C21 UNL     1      20.126   3.009  51.330  1.00  0.00     0.119 A 
HETATM   16  C22 UNL     1      19.226   1.796  51.389  1.00  0.00     0.107 C 
HETATM   17  F1  UNL     1      17.944   1.619  50.756  1.00  0.00    -0.247 F 
HETATM   18  C23 UNL     1      19.727   0.853  52.622  1.00  0.00     0.077 C 
HETATM   19 CL1  UNL     1      18.588  -0.407  51.932  1.00  0.00    -0.119 Cl
HETATM   20  C24 UNL     1      20.556   0.723  53.578  1.00  0.00     0.189 C 
HETATM   21  N3  UNL     1      20.688  -0.324  54.524  1.00  0.00    -0.380 N 
HETATM   22  H8  UNL     1      23.021   3.083  52.118  1.00  0.00     0.362 HD
HETATM   23  H23 UNL     1      20.348  -1.022  55.208  1.00  0.00     0.160 HD
ENDROOT
BRANCH  12  24
HETATM   24  C12 UNL     1      22.993   5.070  52.224  1.00  0.00     0.031 C 
BRANCH  24  25
HETATM   25  C13 UNL     1      23.047   5.737  51.106  1.00  0.00     0.009 C 
BRANCH  25  26
HETATM   26  C14 UNL     1      23.305   6.461  49.913  1.00  0.00     0.064 C 
HETATM   27  C15 UNL     1      24.137   5.431  48.953  1.00  0.00     0.039 C 
HETATM   28  C16 UNL     1      23.045   4.691  48.227  1.00  0.00     0.168 C 
HETATM   29  O2  UNL     1      22.474   5.482  47.247  1.00  0.00    -0.384 OA
HETATM   30  C17 UNL     1      21.560   6.395  47.920  1.00  0.00     0.246 C 
HETATM   31  C18 UNL     1      22.398   7.065  48.967  1.00  0.00     0.154 C 
HETATM   32  O3  UNL     1      22.249   8.339  48.983  1.00  0.00    -0.295 OA
ENDBRANCH  25  26
ENDBRANCH  24  25
ENDBRANCH  12  24
BRANCH   1  33
HETATM   33  O1  UNL     1      25.550   2.417  51.271  1.00  0.00    -0.357 OA
HETATM   34  C1  UNL     1      26.478   2.856  50.465  1.00  0.00     0.209 C 
ENDBRANCH   1  33
TORSDOF 4
ENDMDL
MODEL 7
REMARK VINA RESULT:      -8.6      3.770      7.781
REMARK  4 active torsions:
REMARK  status: ('A' for Active; 'I' for Inactive)
REMARK    1  A    between atoms: O1_2  and  C2_3 
REMARK    2  A    between atoms: C11_14  and  C12_15 
REMARK    3  A    between atoms: C12_15  and  C13_16 
REMARK    4  A    between atoms: C13_16  and  C14_17 
ROOT
HETATM    1  C2  UNL     1      22.992  -0.228  53.795  1.00  0.00     0.089 A 
HETATM    2  C3  UNL     1      24.330  -0.536  53.922  1.00  0.00     0.067 A 
HETATM    3  C4  UNL     1      25.408   0.208  53.349  1.00  0.00     0.071 A 
HETATM    4  N1  UNL     1      26.694  -0.300  53.551  1.00  0.00    -0.260 NA
HETATM    5  C5  UNL     1      27.669   0.394  52.961  1.00  0.00     0.119 A 
HETATM    6  C6  UNL     1      27.178   1.454  52.287  1.00  0.00     0.049 A 
HETATM    7  C7  UNL     1      26.049   2.113  51.963  1.00  0.00     0.042 A 
HETATM    8  C8  UNL     1      25.054   1.282  52.645  1.00  0.00     0.018 A 
HETATM    9  C9  UNL     1      23.699   1.198  52.787  1.00  0.00     0.036 A 
HETATM   10  C10 UNL     1      22.413   0.873  53.083  1.00  0.00     0.238 A 
HETATM   11  N2  UNL     1      21.436   1.777  52.506  1.00  0.00     0.111 N 
HETATM   12  C11 UNL     1      20.961   1.661  51.111  1.00  0.00     0.232 C 
HETATM   13  C19 UNL     1      20.052   2.665  50.860  1.00  0.00     0.032 A 
HETATM   14  C20 UNL     1      19.813   4.121  50.854  1.00  0.00     0.005 A 
HETATM   15  C21 UNL     1      21.239   3.789  51.231  1.00  0.00     0.119 A 
HETATM   16  C22 UNL     1      22.155   4.974  51.438  1.00  0.00     0.107 C 
HETATM   17  F1  UNL     1      21.820   6.372  51.349  1.00  0.00    -0.247 F 
HETATM   18  C23 UNL     1      23.695   4.440  51.372  1.00  0.00     0.077 C 
HETATM   19 CL1  UNL     1      24.146   6.104  51.998  1.00  0.00    -0.119 Cl
HETATM   20  C24 UNL     1      24.453   3.434  51.197  1.00  0.00     0.189 C 
HETATM   21  N3  UNL     1      25.869   3.357  51.208  1.00  0.00    -0.380 N 
HETATM   22  H8  UNL     1      21.820   0.960  52.045  1.00  0.00     0.362 HD
HETATM   23  H23 UNL     1      26.829   3.662  50.973  1.00  0.00     0.160 HD
ENDROOT
BRANCH  12  24
HETATM   24  C12 UNL     1      20.389   0.268  50.848  1.00  0.00     0.031 C 
BRANCH  24  25
HETATM   25  C13 UNL     1      19.207   0.324  51.393  1.00  0.00     0.009 C 
BRANCH  25  26
HETATM   26  C14 UNL     1      17.977   0.226  52.094  1.00  0.00     0.064 C 
HETATM   27  C15 UNL     1      16.863   0.907  51.108  1.00  0.00     0.039 C 
HETATM   28  C16 UNL     1      16.425  -0.246  50.247  1.00  0.00     0.168 C 
HETATM   29  O2  UNL     1      15.595  -1.103  50.946  1.00  0.00    -0.384 OA
HETATM   30  C17 UNL     1      16.450  -1.919  51.796  1.00  0.00     0.246 C 
HETATM   31  C18 UNL     1      17.262  -0.930  52.578  1.00  0.00     0.154 C 
HETATM   32  O3  UNL     1      17.294  -1.195  53.833  1.00  0.00    -0.295 OA
ENDBRANCH  25  26
ENDBRANCH  24  25
ENDBRANCH  12  24
BRANCH   1  33
HETATM   33  O1  UNL     1      21.874  -0.741  54.205  1.00  0.00    -0.357 OA
HETATM   34  C1  UNL     1      20.814  -1.500  54.205  1.00  0.00     0.209 C 
ENDBRANCH   1  33
TORSDOF 4
ENDMDL
MODEL 8
REMARK VINA RESULT:      -8.4      3.435      7.479
REMARK  4 active torsions:
REMARK  status: ('A' for Active; 'I' for Inactive)
REMARK    1  A    between atoms: O1_2  and  C2_3 
REMARK    2  A    between atoms: C11_14  and  C12_15 
REMARK    3  A    between atoms: C12_15  and  C13_16 
REMARK    4  A    between atoms: C13_16  and  C14_17 
ROOT
HETATM    1  C2  UNL     1      26.132   3.018  50.710  1.00  0.00     0.089 A 
HETATM    2  C3  UNL     1      26.774   1.971  51.337  1.00  0.00     0.067 A 
HETATM    3  C4  UNL     1      26.143   0.992  52.164  1.00  0.00     0.071 A 
HETATM    4  N1  UNL     1      26.979   0.038  52.751  1.00  0.00    -0.260 NA
HETATM    5  C5  UNL     1      26.362  -0.830  53.556  1.00  0.00     0.119 A 
HETATM    6  C6  UNL     1      25.038  -0.581  53.619  1.00  0.00     0.049 A 
HETATM    7  C7  UNL     1      24.057   0.226  53.174  1.00  0.00     0.042 A 
HETATM    8  C8  UNL     1      24.827   1.130  52.317  1.00  0.00     0.018 A 
HETATM    9  C9  UNL     1      24.636   2.245  51.553  1.00  0.00     0.036 A 
HETATM   10  C10 UNL     1      24.735   3.338  50.752  1.00  0.00     0.238 A 
HETATM   11  N2  UNL     1      23.473   4.018  50.534  1.00  0.00     0.111 N 
HETATM   12  C11 UNL     1      22.908   4.989  51.494  1.00  0.00     0.232 C 
HETATM   13  C19 UNL     1      21.701   5.449  51.013  1.00  0.00     0.032 A 
HETATM   14  C20 UNL     1      20.353   5.077  50.546  1.00  0.00     0.005 A 
HETATM   15  C21 UNL     1      21.135   3.871  51.013  1.00  0.00     0.119 A 
HETATM   16  C22 UNL     1      20.386   2.558  51.002  1.00  0.00     0.107 C 
HETATM   17  F1  UNL     1      19.032   2.320  50.571  1.00  0.00    -0.247 F 
HETATM   18  C23 UNL     1      21.199   1.504  51.944  1.00  0.00     0.077 C 
HETATM   19 CL1  UNL     1      20.082   0.233  51.238  1.00  0.00    -0.119 Cl
HETATM   20  C24 UNL     1      22.201   1.331  52.708  1.00  0.00     0.189 C 
HETATM   21  N3  UNL     1      22.611   0.172  53.414  1.00  0.00    -0.380 N 
HETATM   22  H8  UNL     1      24.105   4.192  51.307  1.00  0.00     0.362 HD
HETATM   23  H23 UNL     1      22.475  -0.664  54.009  1.00  0.00     0.160 HD
ENDROOT
BRANCH  12  24
HETATM   24  C12 UNL     1      23.901   6.117  51.773  1.00  0.00     0.031 C 
BRANCH  24  25
HETATM   25  C13 UNL     1      23.632   6.986  50.841  1.00  0.00     0.009 C 
BRANCH  25  26
HETATM   26  C14 UNL     1      23.534   7.976  49.828  1.00  0.00     0.064 C 
HETATM   27  C15 UNL     1      24.605   7.523  48.677  1.00  0.00     0.039 C 
HETATM   28  C16 UNL     1      23.795   6.601  47.806  1.00  0.00     0.168 C 
HETATM   29  O2  UNL     1      22.915   7.312  47.011  1.00  0.00    -0.384 OA
HETATM   30  C17 UNL     1      21.788   7.685  47.856  1.00  0.00     0.246 C 
HETATM   31  C18 UNL     1      22.409   8.389  49.025  1.00  0.00     0.154 C 
HETATM   32  O3  UNL     1      21.823   9.495  49.307  1.00  0.00    -0.295 OA
ENDBRANCH  25  26
ENDBRANCH  24  25
ENDBRANCH  12  24
BRANCH   1  33
HETATM   33  O1  UNL     1      26.485   4.002  49.943  1.00  0.00    -0.357 OA
HETATM   34  C1  UNL     1      27.069   4.627  48.957  1.00  0.00     0.209 C 
ENDBRANCH   1  33
TORSDOF 4
ENDMDL
MODEL 9
REMARK VINA RESULT:      -8.1      8.648     10.525
REMARK  4 active torsions:
REMARK  status: ('A' for Active; 'I' for Inactive)
REMARK    1  A    between atoms: O1_2  and  C2_3 
REMARK    2  A    between atoms: C11_14  and  C12_15 
REMARK    3  A    between atoms: C12_15  and  C13_16 
REMARK    4  A    between atoms: C13_16  and  C14_17 
ROOT
HETATM    1  C2  UNL     1      29.311  10.652  48.913  1.00  0.00     0.089 A 
HETATM    2  C3  UNL     1      28.832  11.923  48.678  1.00  0.00     0.067 A 
HETATM    3  C4  UNL     1      27.473  12.254  48.387  1.00  0.00     0.071 A 
HETATM    4  N1  UNL     1      27.199  13.600  48.129  1.00  0.00    -0.260 NA
HETATM    5  C5  UNL     1      25.929  13.863  47.813  1.00  0.00     0.119 A 
HETATM    6  C6  UNL     1      25.181  12.740  47.815  1.00  0.00     0.049 A 
HETATM    7  C7  UNL     1      25.211  11.410  48.019  1.00  0.00     0.042 A 
HETATM    8  C8  UNL     1      26.626  11.226  48.350  1.00  0.00     0.018 A 
HETATM    9  C9  UNL     1      27.500  10.215  48.629  1.00  0.00     0.036 A 
HETATM   10  C10 UNL     1      28.568   9.425  48.915  1.00  0.00     0.238 A 
HETATM   11  N2  UNL     1      28.244   8.013  48.996  1.00  0.00     0.111 N 
HETATM   12  C11 UNL     1      28.140   7.144  47.806  1.00  0.00     0.232 C 
HETATM   13  C19 UNL     1      27.809   5.869  48.207  1.00  0.00     0.032 A 
HETATM   14  C20 UNL     1      26.839   5.034  48.940  1.00  0.00     0.005 A 
HETATM   15  C21 UNL     1      26.411   6.483  48.898  1.00  0.00     0.119 A 
HETATM   16  C22 UNL     1      25.065   6.788  49.516  1.00  0.00     0.107 C 
HETATM   17  F1  UNL     1      24.165   5.869  50.165  1.00  0.00    -0.247 F 
HETATM   18  C23 UNL     1      24.580   8.249  48.977  1.00  0.00     0.077 C 
HETATM   19 CL1  UNL     1      23.272   8.126  50.256  1.00  0.00    -0.119 Cl
HETATM   20  C24 UNL     1      24.857   9.240  48.229  1.00  0.00     0.189 C 
HETATM   21  N3  UNL     1      24.121  10.429  47.995  1.00  0.00    -0.380 N 
HETATM   22  H8  UNL     1      28.494   8.508  48.147  1.00  0.00     0.362 HD
HETATM   23  H23 UNL     1      23.271  10.986  47.800  1.00  0.00     0.160 HD
ENDROOT
BRANCH  12  24
HETATM   24  C12 UNL     1      29.431   7.189  46.988  1.00  0.00     0.031 C 
BRANCH  24  25
HETATM   25  C13 UNL     1      30.169   6.273  47.547  1.00  0.00     0.009 C 
BRANCH  25  26
HETATM   26  C14 UNL     1      30.957   5.383  48.323  1.00  0.00     0.064 C 
HETATM   27  C15 UNL     1      31.653   4.370  47.243  1.00  0.00     0.039 C 
HETATM   28  C16 UNL     1      32.914   5.098  46.862  1.00  0.00     0.168 C 
HETATM   29  O2  UNL     1      33.858   5.019  47.868  1.00  0.00    -0.384 OA
HETATM   30  C17 UNL     1      33.474   5.989  48.885  1.00  0.00     0.246 C 
HETATM   31  C18 UNL     1      32.055   5.642  49.222  1.00  0.00     0.154 C 
HETATM   32  O3  UNL     1      31.844   5.584  50.486  1.00  0.00    -0.295 OA
ENDBRANCH  25  26
ENDBRANCH  24  25
ENDBRANCH  12  24
BRANCH   1  33
HETATM   33  O1  UNL     1      30.465  10.125  49.180  1.00  0.00    -0.357 OA
HETATM   34  C1  UNL     1      31.424   9.241  49.190  1.00  0.00     0.209 C 
ENDBRANCH   1  33
TORSDOF 4
ENDMDL
