MODEL 1
REMARK VINA RESULT:      -7.7      0.000      0.000
REMARK  4 active torsions:
REMARK  status: ('A' for Active; 'I' for Inactive)
REMARK    1  A    between atoms: C3_5  and  N3_6 
REMARK    2  A    between atoms: N3_6  and  C4_7 
REMARK    3  A    between atoms: N4_10  and  P1_11 
REMARK    4  A    between atoms: P1_11  and  C7_12 
ROOT
HETATM    1  C1  UNL     1      22.232   4.568  50.459  1.00  0.00     0.174 C 
HETATM    2  N1  UNL     1      23.117   5.486  51.128  1.00  0.00    -0.285 N 
HETATM    3  N2  UNL     1      23.703   5.465  52.431  1.00  0.00    -0.229 NA
HETATM    4  C2  UNL     1      23.753   4.098  52.898  1.00  0.00     0.188 C 
HETATM    5  C3  UNL     1      24.578   3.256  51.928  1.00  0.00     0.109 C 
HETATM    6  N5  UNL     1      25.021   3.977  51.027  1.00  0.00    -0.275 NA
HETATM    7  C10 UNL     1      25.785   3.956  49.879  1.00  0.00     0.157 C 
HETATM    8  C11 UNL     1      25.844   5.248  49.099  1.00  0.00     0.078 C 
HETATM    9  C12 UNL     1      24.588   5.768  48.608  1.00  0.00     0.008 C 
HETATM   10  C13 UNL     1      23.303   5.768  48.203  1.00  0.00     0.032 C 
HETATM   11  C14 UNL     1      23.216   7.047  49.002  1.00  0.00     0.202 C 
HETATM   12  C15 UNL     1      23.523   6.663  50.398  1.00  0.00     0.260 C 
HETATM   13  O2  UNL     1      24.255   7.593  50.884  1.00  0.00    -0.269 OA
HETATM   14  N6  UNL     1      24.504   7.187  48.320  1.00  0.00    -0.372 N 
HETATM   15  C16 UNL     1      25.463   8.065  47.631  1.00  0.00     0.150 C 
HETATM   16  H4  UNL     1      24.645   5.913  52.417  1.00  0.00     0.147 HD
ENDROOT
BRANCH   5  17
HETATM   17  N3  UNL     1      24.770   1.856  52.094  1.00  0.00    -0.373 N 
HETATM   18  H7  UNL     1      24.045   1.258  51.591  1.00  0.00     0.161 HD
BRANCH  17  19
HETATM   19  C4  UNL     1      25.892   1.461  52.904  1.00  0.00     0.085 C 
HETATM   20  C5  UNL     1      25.473   0.676  54.101  1.00  0.00     0.040 C 
HETATM   21  C6  UNL     1      26.605  -0.088  54.738  1.00  0.00     0.097 C 
HETATM   22  N4  UNL     1      27.365  -0.857  53.789  1.00  0.00    -0.287 NA
HETATM   23  C8  UNL     1      26.779  -0.819  52.478  1.00  0.00     0.097 C 
HETATM   24  C9  UNL     1      26.834   0.640  52.012  1.00  0.00     0.040 C 
BRANCH  22  25
HETATM   25  P1  UNL     1      29.060  -0.273  53.638  1.00  0.00     0.010 P 
HETATM   26  H13 UNL     1      29.486  -0.139  52.277  1.00  0.00     0.081 HD
BRANCH  25  27
HETATM   27  C7  UNL     1      29.230   1.270  54.615  1.00  0.00     0.276 C 
HETATM   28  O1  UNL     1      29.016   2.439  54.345  1.00  0.00    -0.301 OA
ENDBRANCH  25  27
ENDBRANCH  22  25
ENDBRANCH  17  19
ENDBRANCH   5  17
TORSDOF 4
ENDMDL
MODEL 2
REMARK VINA RESULT:      -7.4      1.134      1.141
REMARK  4 active torsions:
REMARK  status: ('A' for Active; 'I' for Inactive)
REMARK    1  A    between atoms: C3_5  and  N3_6 
REMARK    2  A    between atoms: N3_6  and  C4_7 
REMARK    3  A    between atoms: N4_10  and  P1_11 
REMARK    4  A    between atoms: P1_11  and  C7_12 
ROOT
HETATM    1  C1  UNL     1      22.295   5.130  49.970  1.00  0.00     0.174 C 
HETATM    2  N1  UNL     1      23.191   5.917  50.777  1.00  0.00    -0.285 N 
HETATM    3  N2  UNL     1      23.647   5.761  52.122  1.00  0.00    -0.229 NA
HETATM    4  C2  UNL     1      23.531   4.370  52.495  1.00  0.00     0.188 C 
HETATM    5  C3  UNL     1      24.366   3.513  51.546  1.00  0.00     0.109 C 
HETATM    6  N5  UNL     1      24.954   4.242  50.740  1.00  0.00    -0.275 NA
HETATM    7  C10 UNL     1      25.818   4.219  49.665  1.00  0.00     0.157 C 
HETATM    8  C11 UNL     1      26.065   5.544  48.984  1.00  0.00     0.078 C 
HETATM    9  C12 UNL     1      24.913   6.210  48.421  1.00  0.00     0.008 C 
HETATM   10  C13 UNL     1      23.676   6.357  47.905  1.00  0.00     0.032 C 
HETATM   11  C14 UNL     1      23.629   7.588  48.780  1.00  0.00     0.202 C 
HETATM   12  C15 UNL     1      23.768   7.092  50.169  1.00  0.00     0.260 C 
HETATM   13  O2  UNL     1      24.530   7.918  50.780  1.00  0.00    -0.269 OA
HETATM   14  N6  UNL     1      24.983   7.646  48.226  1.00  0.00    -0.372 N 
HETATM   15  C16 UNL     1      26.077   8.469  47.687  1.00  0.00     0.150 C 
HETATM   16  H4  UNL     1      24.622   6.117  52.221  1.00  0.00     0.147 HD
ENDROOT
BRANCH   5  17
HETATM   17  N3  UNL     1      24.415   2.094  51.631  1.00  0.00    -0.373 N 
HETATM   18  H7  UNL     1      23.914   1.596  50.833  1.00  0.00     0.161 HD
BRANCH  17  19
HETATM   19  C4  UNL     1      25.119   1.551  52.763  1.00  0.00     0.085 C 
HETATM   20  C5  UNL     1      24.467   0.318  53.291  1.00  0.00     0.040 C 
HETATM   21  C6  UNL     1      25.366  -0.494  54.187  1.00  0.00     0.097 C 
HETATM   22  N4  UNL     1      26.661  -0.737  53.608  1.00  0.00    -0.287 NA
HETATM   23  C8  UNL     1      26.741  -0.260  52.256  1.00  0.00     0.097 C 
HETATM   24  C9  UNL     1      26.557   1.260  52.312  1.00  0.00     0.040 C 
BRANCH  22  25
HETATM   25  P1  UNL     1      27.983   0.056  54.537  1.00  0.00     0.010 P 
HETATM   26  H13 UNL     1      27.953  -0.261  55.934  1.00  0.00     0.081 HD
BRANCH  25  27
HETATM   27  C7  UNL     1      29.579  -0.344  53.729  1.00  0.00     0.276 C 
HETATM   28  O1  UNL     1      30.365  -1.265  53.875  1.00  0.00    -0.301 OA
ENDBRANCH  25  27
ENDBRANCH  22  25
ENDBRANCH  17  19
ENDBRANCH   5  17
TORSDOF 4
ENDMDL
MODEL 3
REMARK VINA RESULT:      -7.2      1.852      2.826
REMARK  4 active torsions:
REMARK  status: ('A' for Active; 'I' for Inactive)
REMARK    1  A    between atoms: C3_5  and  N3_6 
REMARK    2  A    between atoms: N3_6  and  C4_7 
REMARK    3  A    between atoms: N4_10  and  P1_11 
REMARK    4  A    between atoms: P1_11  and  C7_12 
ROOT
HETATM    1  C1  UNL     1      22.766   4.512  52.291  1.00  0.00     0.174 C 
HETATM    2  N1  UNL     1      23.326   4.674  50.974  1.00  0.00    -0.285 N 
HETATM    3  N2  UNL     1      24.608   4.346  50.437  1.00  0.00    -0.229 NA
HETATM    4  C2  UNL     1      25.194   3.296  51.239  1.00  0.00     0.188 C 
HETATM    5  C3  UNL     1      24.282   2.072  51.226  1.00  0.00     0.109 C 
HETATM    6  N5  UNL     1      23.308   2.290  50.498  1.00  0.00    -0.275 NA
HETATM    7  C10 UNL     1      22.145   1.722  50.019  1.00  0.00     0.157 C 
HETATM    8  C11 UNL     1      21.250   2.629  49.207  1.00  0.00     0.078 C 
HETATM    9  C12 UNL     1      20.750   3.811  49.871  1.00  0.00     0.008 C 
HETATM   10  C13 UNL     1      20.382   4.621  50.884  1.00  0.00     0.032 C 
HETATM   11  C14 UNL     1      21.065   5.692  50.067  1.00  0.00     0.202 C 
HETATM   12  C15 UNL     1      22.481   5.272  49.967  1.00  0.00     0.260 C 
HETATM   13  O2  UNL     1      22.861   5.533  48.773  1.00  0.00    -0.269 OA
HETATM   14  N6  UNL     1      20.338   4.932  49.048  1.00  0.00    -0.372 N 
HETATM   15  C16 UNL     1      19.546   4.947  47.808  1.00  0.00     0.150 C 
HETATM   16  H4  UNL     1      24.527   4.078  49.432  1.00  0.00     0.147 HD
ENDROOT
BRANCH   5  17
HETATM   17  N3  UNL     1      24.568   0.890  51.964  1.00  0.00    -0.373 N 
HETATM   18  H7  UNL     1      23.848   0.115  51.834  1.00  0.00     0.161 HD
BRANCH  17  19
HETATM   19  C4  UNL     1      25.763   0.917  52.766  1.00  0.00     0.085 C 
HETATM   20  C5  UNL     1      25.510   0.475  54.168  1.00  0.00     0.040 C 
HETATM   21  C6  UNL     1      26.766   0.103  54.911  1.00  0.00     0.097 C 
HETATM   22  N4  UNL     1      27.607  -0.801  54.172  1.00  0.00    -0.287 NA
HETATM   23  C8  UNL     1      26.982  -1.239  52.955  1.00  0.00     0.097 C 
HETATM   24  C9  UNL     1      26.793   0.006  52.082  1.00  0.00     0.040 C 
BRANCH  22  25
HETATM   25  P1  UNL     1      29.184  -0.057  53.729  1.00  0.00     0.010 P 
HETATM   26  H13 UNL     1      29.468  -0.141  52.326  1.00  0.00     0.081 HD
BRANCH  25  27
HETATM   27  C7  UNL     1      29.221   1.655  54.382  1.00  0.00     0.276 C 
HETATM   28  O1  UNL     1      28.619   2.667  54.067  1.00  0.00    -0.301 OA
ENDBRANCH  25  27
ENDBRANCH  22  25
ENDBRANCH  17  19
ENDBRANCH   5  17
TORSDOF 4
ENDMDL
MODEL 4
REMARK VINA RESULT:      -6.8      4.430      7.760
REMARK  4 active torsions:
REMARK  status: ('A' for Active; 'I' for Inactive)
REMARK    1  A    between atoms: C3_5  and  N3_6 
REMARK    2  A    between atoms: N3_6  and  C4_7 
REMARK    3  A    between atoms: N4_10  and  P1_11 
REMARK    4  A    between atoms: P1_11  and  C7_12 
ROOT
HETATM    1  C1  UNL     1      24.875   1.792  50.966  1.00  0.00     0.174 C 
HETATM    2  N1  UNL     1      24.812   2.269  52.324  1.00  0.00    -0.285 N 
HETATM    3  N2  UNL     1      23.746   2.840  53.084  1.00  0.00    -0.229 NA
HETATM    4  C2  UNL     1      22.488   2.417  52.513  1.00  0.00     0.188 C 
HETATM    5  C3  UNL     1      22.401   0.893  52.535  1.00  0.00     0.109 C 
HETATM    6  N5  UNL     1      23.411   0.429  53.076  1.00  0.00    -0.275 NA
HETATM    7  C10 UNL     1      24.017  -0.755  53.438  1.00  0.00     0.157 C 
HETATM    8  C11 UNL     1      25.419  -0.641  53.989  1.00  0.00     0.078 C 
HETATM    9  C12 UNL     1      26.413  -0.055  53.119  1.00  0.00     0.008 C 
HETATM   10  C13 UNL     1      27.004   0.333  51.972  1.00  0.00     0.032 C 
HETATM   11  C14 UNL     1      27.327   1.588  52.749  1.00  0.00     0.202 C 
HETATM   12  C15 UNL     1      26.018   2.178  53.111  1.00  0.00     0.260 C 
HETATM   13  O2  UNL     1      26.130   2.615  54.308  1.00  0.00    -0.269 OA
HETATM   14  N6  UNL     1      27.590   0.533  53.729  1.00  0.00    -0.372 N 
HETATM   15  C16 UNL     1      28.434   0.029  54.824  1.00  0.00     0.150 C 
HETATM   16  H4  UNL     1      23.832   2.577  54.090  1.00  0.00     0.147 HD
ENDROOT
BRANCH   5  17
HETATM   17  N3  UNL     1      21.297   0.176  51.997  1.00  0.00    -0.373 N 
HETATM   18  H7  UNL     1      21.448  -0.878  51.949  1.00  0.00     0.161 HD
BRANCH  17  19
HETATM   19  C4  UNL     1      20.160   0.966  51.601  1.00  0.00     0.085 C 
HETATM   20  C5  UNL     1      20.022   1.049  50.118  1.00  0.00     0.040 C 
HETATM   21  C6  UNL     1      18.657   1.504  49.672  1.00  0.00     0.097 C 
HETATM   22  N4  UNL     1      17.589   0.776  50.305  1.00  0.00    -0.287 NA
HETATM   23  C8  UNL     1      18.083  -0.305  51.111  1.00  0.00     0.097 C 
HETATM   24  C9  UNL     1      18.916   0.326  52.233  1.00  0.00     0.040 C 
BRANCH  22  25
HETATM   25  P1  UNL     1      16.584   1.824  51.367  1.00  0.00     0.010 P 
HETATM   26  H13 UNL     1      16.327   1.238  52.649  1.00  0.00     0.081 HD
BRANCH  25  27
HETATM   27  C7  UNL     1      17.371   3.478  51.461  1.00  0.00     0.276 C 
HETATM   28  O1  UNL     1      18.345   3.889  52.067  1.00  0.00    -0.301 OA
ENDBRANCH  25  27
ENDBRANCH  22  25
ENDBRANCH  17  19
ENDBRANCH   5  17
TORSDOF 4
ENDMDL
MODEL 5
REMARK VINA RESULT:      -6.5      3.711      7.557
REMARK  4 active torsions:
REMARK  status: ('A' for Active; 'I' for Inactive)
REMARK    1  A    between atoms: C3_5  and  N3_6 
REMARK    2  A    between atoms: N3_6  and  C4_7 
REMARK    3  A    between atoms: N4_10  and  P1_11 
REMARK    4  A    between atoms: P1_11  and  C7_12 
ROOT
HETATM    1  C1  UNL     1      23.809   4.869  51.771  1.00  0.00     0.174 C 
HETATM    2  N1  UNL     1      23.593   3.818  50.810  1.00  0.00    -0.285 N 
HETATM    3  N2  UNL     1      23.656   3.805  49.382  1.00  0.00    -0.229 NA
HETATM    4  C2  UNL     1      24.509   4.887  48.944  1.00  0.00     0.188 C 
HETATM    5  C3  UNL     1      25.903   4.714  49.540  1.00  0.00     0.109 C 
HETATM    6  N5  UNL     1      25.944   3.672  50.203  1.00  0.00    -0.275 NA
HETATM    7  C10 UNL     1      26.778   2.895  50.980  1.00  0.00     0.157 C 
HETATM    8  C11 UNL     1      26.133   1.716  51.670  1.00  0.00     0.078 C 
HETATM    9  C12 UNL     1      25.060   2.010  52.592  1.00  0.00     0.008 C 
HETATM   10  C13 UNL     1      24.302   2.721  53.450  1.00  0.00     0.032 C 
HETATM   11  C14 UNL     1      23.149   2.062  52.730  1.00  0.00     0.202 C 
HETATM   12  C15 UNL     1      23.249   2.514  51.324  1.00  0.00     0.260 C 
HETATM   13  O2  UNL     1      22.971   1.503  50.590  1.00  0.00    -0.269 OA
HETATM   14  N6  UNL     1      24.101   0.959  52.877  1.00  0.00    -0.372 N 
HETATM   15  C16 UNL     1      24.324  -0.470  53.148  1.00  0.00     0.150 C 
HETATM   16  H4  UNL     1      23.985   2.878  49.039  1.00  0.00     0.147 HD
ENDROOT
BRANCH   5  17
HETATM   17  N3  UNL     1      26.954   5.649  49.327  1.00  0.00    -0.373 N 
HETATM   18  H7  UNL     1      27.929   5.244  49.473  1.00  0.00     0.161 HD
BRANCH  17  19
HETATM   19  C4  UNL     1      26.552   6.980  48.955  1.00  0.00     0.085 C 
HETATM   20  C5  UNL     1      26.175   7.805  50.139  1.00  0.00     0.040 C 
HETATM   21  C6  UNL     1      26.145   9.284  49.849  1.00  0.00     0.097 C 
HETATM   22  N4  UNL     1      27.334   9.748  49.185  1.00  0.00    -0.287 NA
HETATM   23  C8  UNL     1      28.325   8.715  49.077  1.00  0.00     0.097 C 
HETATM   24  C9  UNL     1      27.724   7.616  48.194  1.00  0.00     0.040 C 
BRANCH  22  25
HETATM   25  P1  UNL     1      26.996  10.346  47.522  1.00  0.00     0.010 P 
HETATM   26  H13 UNL     1      26.438   9.340  46.668  1.00  0.00     0.081 HD
BRANCH  25  27
HETATM   27  C7  UNL     1      25.963  11.856  47.647  1.00  0.00     0.276 C 
HETATM   28  O1  UNL     1      25.831  12.689  48.528  1.00  0.00    -0.301 OA
ENDBRANCH  25  27
ENDBRANCH  22  25
ENDBRANCH  17  19
ENDBRANCH   5  17
TORSDOF 4
ENDMDL
MODEL 6
REMARK VINA RESULT:      -6.5      2.152      3.148
REMARK  4 active torsions:
REMARK  status: ('A' for Active; 'I' for Inactive)
REMARK    1  A    between atoms: C3_5  and  N3_6 
REMARK    2  A    between atoms: N3_6  and  C4_7 
REMARK    3  A    between atoms: N4_10  and  P1_11 
REMARK    4  A    between atoms: P1_11  and  C7_12 
ROOT
HETATM    1  C1  UNL     1      23.537   7.792  48.898  1.00  0.00     0.174 C 
HETATM    2  N1  UNL     1      24.529   8.138  49.884  1.00  0.00    -0.285 N 
HETATM    3  N2  UNL     1      24.714   7.717  51.237  1.00  0.00    -0.229 NA
HETATM    4  C2  UNL     1      24.076   6.434  51.417  1.00  0.00     0.188 C 
HETATM    5  C3  UNL     1      24.688   5.418  50.455  1.00  0.00     0.109 C 
HETATM    6  N5  UNL     1      25.595   5.954  49.810  1.00  0.00    -0.275 NA
HETATM    7  C10 UNL     1      26.538   5.713  48.833  1.00  0.00     0.157 C 
HETATM    8  C11 UNL     1      27.317   6.915  48.353  1.00  0.00     0.078 C 
HETATM    9  C12 UNL     1      26.553   7.992  47.767  1.00  0.00     0.008 C 
HETATM   10  C13 UNL     1      25.526   8.614  47.153  1.00  0.00     0.032 C 
HETATM   11  C14 UNL     1      25.785   9.703  48.168  1.00  0.00     0.202 C 
HETATM   12  C15 UNL     1      25.552   9.076  49.489  1.00  0.00     0.260 C 
HETATM   13  O2  UNL     1      26.460   9.521  50.273  1.00  0.00    -0.269 OA
HETATM   14  N6  UNL     1      27.139   9.320  47.763  1.00  0.00    -0.372 N 
HETATM   15  C16 UNL     1      28.512   9.740  47.443  1.00  0.00     0.150 C 
HETATM   16  H4  UNL     1      25.729   7.693  51.477  1.00  0.00     0.147 HD
ENDROOT
BRANCH   5  17
HETATM   17  N3  UNL     1      24.234   4.072  50.365  1.00  0.00    -0.373 N 
HETATM   18  H7  UNL     1      23.748   3.842  49.444  1.00  0.00     0.161 HD
BRANCH  17  19
HETATM   19  C4  UNL     1      24.492   3.238  51.508  1.00  0.00     0.085 C 
HETATM   20  C5  UNL     1      23.797   1.922  51.412  1.00  0.00     0.040 C 
HETATM   21  C6  UNL     1      24.349   0.886  52.357  1.00  0.00     0.097 C 
HETATM   22  N4  UNL     1      25.783   0.781  52.296  1.00  0.00    -0.287 NA
HETATM   23  C8  UNL     1      26.336   1.595  51.250  1.00  0.00     0.097 C 
HETATM   24  C9  UNL     1      26.013   3.050  51.605  1.00  0.00     0.040 C 
BRANCH  22  25
HETATM   25  P1  UNL     1      26.570   1.277  53.836  1.00  0.00     0.010 P 
HETATM   26  H13 UNL     1      26.078   2.526  54.338  1.00  0.00     0.081 HD
BRANCH  25  27
HETATM   27  C7  UNL     1      26.421  -0.103  55.034  1.00  0.00     0.276 C 
HETATM   28  O1  UNL     1      25.499  -0.850  55.316  1.00  0.00    -0.301 OA
ENDBRANCH  25  27
ENDBRANCH  22  25
ENDBRANCH  17  19
ENDBRANCH   5  17
TORSDOF 4
ENDMDL
MODEL 7
REMARK VINA RESULT:      -6.4      3.620      4.349
REMARK  4 active torsions:
REMARK  status: ('A' for Active; 'I' for Inactive)
REMARK    1  A    between atoms: C3_5  and  N3_6 
REMARK    2  A    between atoms: N3_6  and  C4_7 
REMARK    3  A    between atoms: N4_10  and  P1_11 
REMARK    4  A    between atoms: P1_11  and  C7_12 
ROOT
HETATM    1  C1  UNL     1      23.566   7.855  49.138  1.00  0.00     0.174 C 
HETATM    2  N1  UNL     1      24.557   7.815  50.183  1.00  0.00    -0.285 N 
HETATM    3  N2  UNL     1      24.531   7.259  51.499  1.00  0.00    -0.229 NA
HETATM    4  C2  UNL     1      23.535   6.213  51.543  1.00  0.00     0.188 C 
HETATM    5  C3  UNL     1      23.876   5.137  50.516  1.00  0.00     0.109 C 
HETATM    6  N5  UNL     1      24.937   5.425  49.952  1.00  0.00    -0.275 NA
HETATM    7  C10 UNL     1      25.823   4.989  48.990  1.00  0.00     0.157 C 
HETATM    8  C11 UNL     1      26.947   5.937  48.645  1.00  0.00     0.078 C 
HETATM    9  C12 UNL     1      26.568   7.234  48.131  1.00  0.00     0.008 C 
HETATM   10  C13 UNL     1      25.807   8.176  47.541  1.00  0.00     0.032 C 
HETATM   11  C14 UNL     1      26.314   9.060  48.656  1.00  0.00     0.202 C 
HETATM   12  C15 UNL     1      25.831   8.434  49.908  1.00  0.00     0.260 C 
HETATM   13  O2  UNL     1      26.782   8.529  50.759  1.00  0.00    -0.269 OA
HETATM   14  N6  UNL     1      27.517   8.323  48.265  1.00  0.00    -0.372 N 
HETATM   15  C16 UNL     1      28.970   8.339  48.030  1.00  0.00     0.150 C 
HETATM   16  H4  UNL     1      25.477   6.916  51.770  1.00  0.00     0.147 HD
ENDROOT
BRANCH   5  17
HETATM   17  N3  UNL     1      23.054   3.998  50.292  1.00  0.00    -0.373 N 
HETATM   18  H7  UNL     1      22.743   3.883  49.278  1.00  0.00     0.161 HD
BRANCH  17  19
HETATM   19  C4  UNL     1      22.766   3.186  51.444  1.00  0.00     0.085 C 
HETATM   20  C5  UNL     1      21.316   3.199  51.794  1.00  0.00     0.040 C 
HETATM   21  C6  UNL     1      20.915   2.074  52.712  1.00  0.00     0.097 C 
HETATM   22  N4  UNL     1      21.381   0.790  52.260  1.00  0.00    -0.287 NA
HETATM   23  C8  UNL     1      22.004   0.871  50.969  1.00  0.00     0.097 C 
HETATM   24  C9  UNL     1      23.241   1.760  51.130  1.00  0.00     0.040 C 
BRANCH  22  25
HETATM   25  P1  UNL     1      22.577   0.061  53.390  1.00  0.00     0.010 P 
HETATM   26  H13 UNL     1      23.529   1.012  53.885  1.00  0.00     0.081 HD
BRANCH  25  27
HETATM   27  C7  UNL     1      21.663  -0.817  54.714  1.00  0.00     0.276 C 
HETATM   28  O1  UNL     1      21.842  -1.892  55.261  1.00  0.00    -0.301 OA
ENDBRANCH  25  27
ENDBRANCH  22  25
ENDBRANCH  17  19
ENDBRANCH   5  17
TORSDOF 4
ENDMDL
MODEL 8
REMARK VINA RESULT:      -6.4      1.725      2.209
REMARK  4 active torsions:
REMARK  status: ('A' for Active; 'I' for Inactive)
REMARK    1  A    between atoms: C3_5  and  N3_6 
REMARK    2  A    between atoms: N3_6  and  C4_7 
REMARK    3  A    between atoms: N4_10  and  P1_11 
REMARK    4  A    between atoms: P1_11  and  C7_12 
ROOT
HETATM    1  C1  UNL     1      23.977   5.519  51.745  1.00  0.00     0.174 C 
HETATM    2  N1  UNL     1      24.765   5.532  50.539  1.00  0.00    -0.285 N 
HETATM    3  N2  UNL     1      25.922   4.789  50.150  1.00  0.00    -0.229 NA
HETATM    4  C2  UNL     1      25.965   3.561  50.910  1.00  0.00     0.188 C 
HETATM    5  C3  UNL     1      24.698   2.751  50.647  1.00  0.00     0.109 C 
HETATM    6  N5  UNL     1      23.994   3.341  49.820  1.00  0.00    -0.275 NA
HETATM    7  C10 UNL     1      22.801   3.255  49.132  1.00  0.00     0.157 C 
HETATM    8  C11 UNL     1      22.425   4.462  48.306  1.00  0.00     0.078 C 
HETATM    9  C12 UNL     1      22.267   5.711  49.015  1.00  0.00     0.008 C 
HETATM   10  C13 UNL     1      22.045   6.549  50.048  1.00  0.00     0.032 C 
HETATM   11  C14 UNL     1      23.182   7.340  49.446  1.00  0.00     0.202 C 
HETATM   12  C15 UNL     1      24.359   6.442  49.495  1.00  0.00     0.260 C 
HETATM   13  O2  UNL     1      24.995   6.606  48.397  1.00  0.00    -0.269 OA
HETATM   14  N6  UNL     1      22.412   6.944  48.265  1.00  0.00    -0.372 N 
HETATM   15  C16 UNL     1      21.889   7.304  46.937  1.00  0.00     0.150 C 
HETATM   16  H4  UNL     1      25.917   4.618  49.121  1.00  0.00     0.147 HD
ENDROOT
BRANCH   5  17
HETATM   17  N3  UNL     1      24.428   1.511  51.290  1.00  0.00    -0.373 N 
HETATM   18  H7  UNL     1      23.706   0.911  50.786  1.00  0.00     0.161 HD
BRANCH  17  19
HETATM   19  C4  UNL     1      25.156   1.256  52.505  1.00  0.00     0.085 C 
HETATM   20  C5  UNL     1      24.485   0.234  53.359  1.00  0.00     0.040 C 
HETATM   21  C6  UNL     1      25.391  -0.351  54.411  1.00  0.00     0.097 C 
HETATM   22  N4  UNL     1      26.654  -0.791  53.881  1.00  0.00    -0.287 NA
HETATM   23  C8  UNL     1      26.697  -0.691  52.449  1.00  0.00     0.097 C 
HETATM   24  C9  UNL     1      26.566   0.797  52.106  1.00  0.00     0.040 C 
BRANCH  22  25
HETATM   25  P1  UNL     1      28.035   0.162  54.529  1.00  0.00     0.010 P 
HETATM   26  H13 UNL     1      28.142   0.092  55.957  1.00  0.00     0.081 HD
BRANCH  25  27
HETATM   27  C7  UNL     1      29.560  -0.359  53.654  1.00  0.00     0.276 C 
HETATM   28  O1  UNL     1      30.374  -1.239  53.876  1.00  0.00    -0.301 OA
ENDBRANCH  25  27
ENDBRANCH  22  25
ENDBRANCH  17  19
ENDBRANCH   5  17
TORSDOF 4
ENDMDL
MODEL 9
REMARK VINA RESULT:      -6.4      4.415      6.886
REMARK  4 active torsions:
REMARK  status: ('A' for Active; 'I' for Inactive)
REMARK    1  A    between atoms: C3_5  and  N3_6 
REMARK    2  A    between atoms: N3_6  and  C4_7 
REMARK    3  A    between atoms: N4_10  and  P1_11 
REMARK    4  A    between atoms: P1_11  and  C7_12 
ROOT
HETATM    1  C1  UNL     1      28.606   9.803  47.495  1.00  0.00     0.174 C 
HETATM    2  N1  UNL     1      29.288   9.367  48.686  1.00  0.00    -0.285 N 
HETATM    3  N2  UNL     1      28.872   9.300  50.051  1.00  0.00    -0.229 NA
HETATM    4  C2  UNL     1      27.429   9.226  50.095  1.00  0.00     0.188 C 
HETATM    5  C3  UNL     1      26.957   7.990  49.333  1.00  0.00     0.109 C 
HETATM    6  N5  UNL     1      27.936   7.360  48.919  1.00  0.00    -0.275 NA
HETATM    7  C10 UNL     1      28.299   6.235  48.208  1.00  0.00     0.157 C 
HETATM    8  C11 UNL     1      29.772   6.085  47.910  1.00  0.00     0.078 C 
HETATM    9  C12 UNL     1      30.388   7.136  47.134  1.00  0.00     0.008 C 
HETATM   10  C13 UNL     1      30.483   8.171  46.275  1.00  0.00     0.032 C 
HETATM   11  C14 UNL     1      31.442   8.729  47.300  1.00  0.00     0.202 C 
HETATM   12  C15 UNL     1      30.645   8.899  48.536  1.00  0.00     0.260 C 
HETATM   13  O2  UNL     1      31.393   8.539  49.510  1.00  0.00    -0.269 OA
HETATM   14  N6  UNL     1      31.823   7.316  47.247  1.00  0.00    -0.372 N 
HETATM   15  C16 UNL     1      32.897   6.311  47.266  1.00  0.00     0.150 C 
HETATM   16  H4  UNL     1      29.325   8.495  50.533  1.00  0.00     0.147 HD
ENDROOT
BRANCH   5  17
HETATM   17  N3  UNL     1      25.582   7.670  49.160  1.00  0.00    -0.373 N 
HETATM   18  H7  UNL     1      25.072   8.310  48.476  1.00  0.00     0.161 HD
BRANCH  17  19
HETATM   19  C4  UNL     1      25.090   6.553  49.922  1.00  0.00     0.085 C 
HETATM   20  C5  UNL     1      23.936   6.929  50.790  1.00  0.00     0.040 C 
HETATM   21  C6  UNL     1      23.149   5.741  51.280  1.00  0.00     0.097 C 
HETATM   22  N4  UNL     1      22.795   4.829  50.225  1.00  0.00    -0.287 NA
HETATM   23  C8  UNL     1      23.163   5.338  48.933  1.00  0.00     0.097 C 
HETATM   24  C9  UNL     1      24.691   5.457  48.923  1.00  0.00     0.040 C 
BRANCH  22  25
HETATM   25  P1  UNL     1      23.586   3.225  50.416  1.00  0.00     0.010 P 
HETATM   26  H13 UNL     1      24.364   2.845  49.274  1.00  0.00     0.081 HD
BRANCH  25  27
HETATM   27  C7  UNL     1      24.540   3.232  51.982  1.00  0.00     0.276 C 
HETATM   28  O1  UNL     1      24.243   2.929  53.125  1.00  0.00    -0.301 OA
ENDBRANCH  25  27
ENDBRANCH  22  25
ENDBRANCH  17  19
ENDBRANCH   5  17
TORSDOF 4
ENDMDL
