MODEL 1
REMARK VINA RESULT:      -7.1      0.000      0.000
REMARK  1 active torsions:
REMARK  status: ('A' for Active; 'I' for Inactive)
REMARK    1  A    between atoms: S1_2  and  C1_3 
ROOT
HETATM    1  C1  UNL     1      25.818   0.698  53.380  1.00  0.00     0.054 C 
HETATM    2  C2  UNL     1      25.585   1.474  52.280  1.00  0.00     0.040 C 
HETATM    3  C3  UNL     1      26.539   2.344  51.583  1.00  0.00    -0.003 C 
HETATM    4  C4  UNL     1      25.924   2.945  50.546  1.00  0.00     0.086 C 
HETATM    5  N1  UNL     1      24.562   2.769  50.182  1.00  0.00    -0.350 N 
HETATM    6  C5  UNL     1      23.540   3.484  50.859  1.00  0.00     0.142 A 
HETATM    7  N2  UNL     1      23.823   4.791  50.737  1.00  0.00    -0.224 NA
HETATM    8  C6  UNL     1      23.017   5.754  51.282  1.00  0.00     0.237 A 
HETATM    9  N3  UNL     1      21.913   5.384  51.957  1.00  0.00    -0.220 NA
HETATM   10  C7  UNL     1      21.564   4.092  52.121  1.00  0.00     0.183 A 
HETATM   11  N4  UNL     1      20.648   3.257  52.647  1.00  0.00    -0.151 NA
HETATM   12  N5  UNL     1      21.074   2.019  52.324  1.00  0.00    -0.251 N 
HETATM   13  C8  UNL     1      22.324   1.863  51.544  1.00  0.00     0.168 A 
HETATM   14  C9  UNL     1      22.417   3.204  51.550  1.00  0.00     0.077 A 
HETATM   15  P1  UNL     1      21.653   0.342  51.885  1.00  0.00     0.047 P 
HETATM   16  C10 UNL     1      22.091  -0.637  53.342  1.00  0.00     0.066 C 
HETATM   17  C11 UNL     1      23.458  -0.518  53.833  1.00  0.00     0.002 C 
HETATM   18  C12 UNL     1      24.364   0.302  53.207  1.00  0.00     0.019 C 
HETATM   19  H4  UNL     1      23.867   2.312  49.579  1.00  0.00     0.166 HD
ENDROOT
BRANCH   1  20
HETATM   20  S1  UNL     1      27.177   0.232  54.582  1.00  0.00    -0.046 SA
HETATM   21 CL1  UNL     1      28.767  -0.520  53.476  1.00  0.00    -0.043 Cl
ENDBRANCH   1  20
TORSDOF 1
ENDMDL
MODEL 2
REMARK VINA RESULT:      -7.0      2.334      4.657
REMARK  1 active torsions:
REMARK  status: ('A' for Active; 'I' for Inactive)
REMARK    1  A    between atoms: S1_2  and  C1_3 
ROOT
HETATM    1  C1  UNL     1      24.416   0.043  52.986  1.00  0.00     0.054 C 
HETATM    2  C2  UNL     1      23.215  -0.012  53.635  1.00  0.00     0.040 C 
HETATM    3  C3  UNL     1      22.752  -1.041  54.573  1.00  0.00    -0.003 C 
HETATM    4  C4  UNL     1      21.509  -0.739  54.994  1.00  0.00     0.086 C 
HETATM    5  N1  UNL     1      20.757   0.397  54.592  1.00  0.00    -0.350 N 
HETATM    6  C5  UNL     1      20.052   0.393  53.359  1.00  0.00     0.142 A 
HETATM    7  N2  UNL     1      19.213  -0.656  53.387  1.00  0.00    -0.224 NA
HETATM    8  C6  UNL     1      18.380  -0.936  52.338  1.00  0.00     0.237 A 
HETATM    9  N3  UNL     1      18.401  -0.143  51.251  1.00  0.00    -0.220 NA
HETATM   10  C7  UNL     1      19.215   0.927  51.151  1.00  0.00     0.183 A 
HETATM   11  N4  UNL     1      19.590   1.956  50.368  1.00  0.00    -0.151 NA
HETATM   12  N5  UNL     1      20.529   2.614  51.077  1.00  0.00    -0.251 N 
HETATM   13  C8  UNL     1      20.905   2.114  52.420  1.00  0.00     0.168 A 
HETATM   14  C9  UNL     1      20.007   1.132  52.234  1.00  0.00     0.077 A 
HETATM   15  P1  UNL     1      21.802   3.505  52.040  1.00  0.00     0.047 P 
HETATM   16  C10 UNL     1      23.425   3.456  51.243  1.00  0.00     0.066 C 
HETATM   17  C11 UNL     1      24.281   2.319  51.552  1.00  0.00     0.002 C 
HETATM   18  C12 UNL     1      23.864   1.335  52.415  1.00  0.00     0.019 C 
HETATM   19  H4  UNL     1      20.431   1.351  54.794  1.00  0.00     0.166 HD
ENDROOT
BRANCH   1  20
HETATM   20  S1  UNL     1      26.026  -0.897  52.806  1.00  0.00    -0.046 SA
HETATM   21 CL1  UNL     1      27.570   0.494  52.784  1.00  0.00    -0.043 Cl
ENDBRANCH   1  20
TORSDOF 1
ENDMDL
MODEL 3
REMARK VINA RESULT:      -6.8      3.768      5.672
REMARK  1 active torsions:
REMARK  status: ('A' for Active; 'I' for Inactive)
REMARK    1  A    between atoms: S1_2  and  C1_3 
ROOT
HETATM    1  C1  UNL     1      23.981   3.395  51.714  1.00  0.00     0.054 C 
HETATM    2  C2  UNL     1      23.246   2.247  51.616  1.00  0.00     0.040 C 
HETATM    3  C3  UNL     1      21.823   2.122  51.281  1.00  0.00    -0.003 C 
HETATM    4  C4  UNL     1      21.471   0.823  51.290  1.00  0.00     0.086 C 
HETATM    5  N1  UNL     1      22.339  -0.264  51.582  1.00  0.00    -0.350 N 
HETATM    6  C5  UNL     1      22.632  -0.607  52.927  1.00  0.00     0.142 A 
HETATM    7  N2  UNL     1      21.461  -0.854  53.538  1.00  0.00    -0.224 NA
HETATM    8  C6  UNL     1      21.401  -1.219  54.854  1.00  0.00     0.237 A 
HETATM    9  N3  UNL     1      22.542  -1.336  55.558  1.00  0.00    -0.220 NA
HETATM   10  C7  UNL     1      23.755  -1.106  55.014  1.00  0.00     0.183 A 
HETATM   11  N4  UNL     1      25.081  -1.091  55.246  1.00  0.00    -0.151 NA
HETATM   12  N5  UNL     1      25.640  -0.735  54.072  1.00  0.00    -0.251 N 
HETATM   13  C8  UNL     1      24.766  -0.465  52.906  1.00  0.00     0.168 A 
HETATM   14  C9  UNL     1      23.723  -0.748  53.705  1.00  0.00     0.077 A 
HETATM   15  P1  UNL     1      26.395  -0.252  52.479  1.00  0.00     0.047 P 
HETATM   16  C10 UNL     1      27.252   1.339  52.579  1.00  0.00     0.066 C 
HETATM   17  C11 UNL     1      26.457   2.535  52.330  1.00  0.00     0.002 C 
HETATM   18  C12 UNL     1      25.120   2.445  52.030  1.00  0.00     0.019 C 
HETATM   19  H4  UNL     1      22.936  -1.026  51.238  1.00  0.00     0.166 HD
ENDROOT
BRANCH   1  20
HETATM   20  S1  UNL     1      23.820   5.254  51.549  1.00  0.00    -0.046 SA
HETATM   21 CL1  UNL     1      21.794   5.713  51.530  1.00  0.00    -0.043 Cl
ENDBRANCH   1  20
TORSDOF 1
ENDMDL
MODEL 4
REMARK VINA RESULT:      -6.7      3.946      5.159
REMARK  1 active torsions:
REMARK  status: ('A' for Active; 'I' for Inactive)
REMARK    1  A    between atoms: S1_2  and  C1_3 
ROOT
HETATM    1  C1  UNL     1      22.579   2.432  49.025  1.00  0.00     0.054 C 
HETATM    2  C2  UNL     1      23.467   2.950  49.925  1.00  0.00     0.040 C 
HETATM    3  C3  UNL     1      24.520   3.940  49.673  1.00  0.00    -0.003 C 
HETATM    4  C4  UNL     1      25.185   4.190  50.817  1.00  0.00     0.086 C 
HETATM    5  N1  UNL     1      24.916   3.587  52.075  1.00  0.00    -0.350 N 
HETATM    6  C5  UNL     1      25.420   2.295  52.375  1.00  0.00     0.142 A 
HETATM    7  N2  UNL     1      26.754   2.346  52.232  1.00  0.00    -0.224 NA
HETATM    8  C6  UNL     1      27.543   1.252  52.457  1.00  0.00     0.237 A 
HETATM    9  N3  UNL     1      26.970   0.093  52.831  1.00  0.00    -0.220 NA
HETATM   10  C7  UNL     1      25.638  -0.037  52.995  1.00  0.00     0.183 A 
HETATM   11  N4  UNL     1      24.647  -0.883  53.333  1.00  0.00    -0.151 NA
HETATM   12  N5  UNL     1      23.516  -0.153  53.246  1.00  0.00    -0.251 N 
HETATM   13  C8  UNL     1      23.601   1.270  52.839  1.00  0.00     0.168 A 
HETATM   14  C9  UNL     1      24.931   1.097  52.751  1.00  0.00     0.077 A 
HETATM   15  P1  UNL     1      21.985   0.838  53.126  1.00  0.00     0.047 P 
HETATM   16  C10 UNL     1      20.871   0.229  51.837  1.00  0.00     0.066 C 
HETATM   17  C11 UNL     1      21.069   0.752  50.491  1.00  0.00     0.002 C 
HETATM   18  C12 UNL     1      22.058   1.667  50.226  1.00  0.00     0.019 C 
HETATM   19  H4  UNL     1      24.472   3.648  53.000  1.00  0.00     0.166 HD
ENDROOT
BRANCH   1  20
HETATM   20  S1  UNL     1      22.104   2.529  47.216  1.00  0.00    -0.046 SA
HETATM   21 CL1  UNL     1      20.120   3.140  47.116  1.00  0.00    -0.043 Cl
ENDBRANCH   1  20
TORSDOF 1
ENDMDL
MODEL 5
REMARK VINA RESULT:      -6.6      2.022      4.050
REMARK  1 active torsions:
REMARK  status: ('A' for Active; 'I' for Inactive)
REMARK    1  A    between atoms: S1_2  and  C1_3 
ROOT
HETATM    1  C1  UNL     1      25.841   0.474  52.459  1.00  0.00     0.054 C 
HETATM    2  C2  UNL     1      24.524   0.774  52.665  1.00  0.00     0.040 C 
HETATM    3  C3  UNL     1      23.549   0.019  53.461  1.00  0.00    -0.003 C 
HETATM    4  C4  UNL     1      22.355   0.638  53.413  1.00  0.00     0.086 C 
HETATM    5  N1  UNL     1      22.075   1.835  52.701  1.00  0.00    -0.350 N 
HETATM    6  C5  UNL     1      21.813   1.797  51.307  1.00  0.00     0.142 A 
HETATM    7  N2  UNL     1      20.773   0.967  51.122  1.00  0.00    -0.224 NA
HETATM    8  C6  UNL     1      20.267   0.717  49.876  1.00  0.00     0.237 A 
HETATM    9  N3  UNL     1      20.823   1.317  48.807  1.00  0.00    -0.220 NA
HETATM   10  C7  UNL     1      21.869   2.162  48.913  1.00  0.00     0.183 A 
HETATM   11  N4  UNL     1      22.714   2.959  48.233  1.00  0.00    -0.151 NA
HETATM   12  N5  UNL     1      23.518   3.501  49.171  1.00  0.00    -0.251 N 
HETATM   13  C8  UNL     1      23.319   3.138  50.594  1.00  0.00     0.168 A 
HETATM   14  C9  UNL     1      22.308   2.353  50.184  1.00  0.00     0.077 A 
HETATM   15  P1  UNL     1      24.607   4.233  50.443  1.00  0.00     0.047 P 
HETATM   16  C10 UNL     1      26.332   3.722  50.248  1.00  0.00     0.066 C 
HETATM   17  C11 UNL     1      26.735   2.487  50.909  1.00  0.00     0.002 C 
HETATM   18  C12 UNL     1      25.837   1.754  51.646  1.00  0.00     0.019 C 
HETATM   19  H4  UNL     1      21.952   2.856  52.714  1.00  0.00     0.166 HD
ENDROOT
BRANCH   1  20
HETATM   20  S1  UNL     1      27.138  -0.803  52.901  1.00  0.00    -0.046 SA
HETATM   21 CL1  UNL     1      28.226  -0.066  54.511  1.00  0.00    -0.043 Cl
ENDBRANCH   1  20
TORSDOF 1
ENDMDL
MODEL 6
REMARK VINA RESULT:      -6.5      3.719      5.116
REMARK  1 active torsions:
REMARK  status: ('A' for Active; 'I' for Inactive)
REMARK    1  A    between atoms: S1_2  and  C1_3 
ROOT
HETATM    1  C1  UNL     1      23.479   3.913  51.579  1.00  0.00     0.054 C 
HETATM    2  C2  UNL     1      22.744   2.914  51.005  1.00  0.00     0.040 C 
HETATM    3  C3  UNL     1      21.717   3.044  49.965  1.00  0.00    -0.003 C 
HETATM    4  C4  UNL     1      21.222   1.827  49.668  1.00  0.00     0.086 C 
HETATM    5  N1  UNL     1      21.625   0.605  50.269  1.00  0.00    -0.350 N 
HETATM    6  C5  UNL     1      21.102   0.218  51.530  1.00  0.00     0.142 A 
HETATM    7  N2  UNL     1      19.765   0.185  51.412  1.00  0.00    -0.224 NA
HETATM    8  C6  UNL     1      18.960  -0.162  52.462  1.00  0.00     0.237 A 
HETATM    9  N3  UNL     1      19.519  -0.478  53.644  1.00  0.00    -0.220 NA
HETATM   10  C7  UNL     1      20.854  -0.468  53.840  1.00  0.00     0.183 A 
HETATM   11  N4  UNL     1      21.838  -0.689  54.732  1.00  0.00    -0.151 NA
HETATM   12  N5  UNL     1      22.982  -0.441  54.061  1.00  0.00    -0.251 N 
HETATM   13  C8  UNL     1      22.914  -0.022  52.642  1.00  0.00     0.168 A 
HETATM   14  C9  UNL     1      21.577  -0.113  52.747  1.00  0.00     0.077 A 
HETATM   15  P1  UNL     1      24.531  -0.103  53.152  1.00  0.00     0.047 P 
HETATM   16  C10 UNL     1      25.433   1.310  53.833  1.00  0.00     0.066 C 
HETATM   17  C11 UNL     1      25.085   2.628  53.317  1.00  0.00     0.002 C 
HETATM   18  C12 UNL     1      24.116   2.777  52.354  1.00  0.00     0.019 C 
HETATM   19  H4  UNL     1      22.190  -0.253  50.220  1.00  0.00     0.166 HD
ENDROOT
BRANCH   1  20
HETATM   20  S1  UNL     1      23.715   5.770  51.527  1.00  0.00    -0.046 SA
HETATM   21 CL1  UNL     1      21.884   6.626  51.042  1.00  0.00    -0.043 Cl
ENDBRANCH   1  20
TORSDOF 1
ENDMDL
MODEL 7
REMARK VINA RESULT:      -6.5      3.289      4.638
REMARK  1 active torsions:
REMARK  status: ('A' for Active; 'I' for Inactive)
REMARK    1  A    between atoms: S1_2  and  C1_3 
ROOT
HETATM    1  C1  UNL     1      21.228   1.189  52.242  1.00  0.00     0.054 C 
HETATM    2  C2  UNL     1      21.726   2.462  52.240  1.00  0.00     0.040 C 
HETATM    3  C3  UNL     1      21.019   3.698  51.889  1.00  0.00    -0.003 C 
HETATM    4  C4  UNL     1      21.857   4.745  52.008  1.00  0.00     0.086 C 
HETATM    5  N1  UNL     1      23.218   4.669  52.408  1.00  0.00    -0.350 N 
HETATM    6  C5  UNL     1      24.223   4.311  51.471  1.00  0.00     0.142 A 
HETATM    7  N2  UNL     1      24.151   5.189  50.457  1.00  0.00    -0.224 NA
HETATM    8  C6  UNL     1      24.997   5.118  49.385  1.00  0.00     0.237 A 
HETATM    9  N3  UNL     1      25.927   4.146  49.344  1.00  0.00    -0.220 NA
HETATM   10  C7  UNL     1      26.061   3.230  50.324  1.00  0.00     0.183 A 
HETATM   11  N4  UNL     1      26.762   2.159  50.742  1.00  0.00    -0.151 NA
HETATM   12  N5  UNL     1      26.215   1.822  51.928  1.00  0.00    -0.251 N 
HETATM   13  C8  UNL     1      25.082   2.617  52.456  1.00  0.00     0.168 A 
HETATM   14  C9  UNL     1      25.181   3.372  51.348  1.00  0.00     0.077 A 
HETATM   15  P1  UNL     1      25.472   1.367  53.535  1.00  0.00     0.047 P 
HETATM   16  C10 UNL     1      24.692  -0.265  53.493  1.00  0.00     0.066 C 
HETATM   17  C11 UNL     1      23.299  -0.322  53.066  1.00  0.00     0.002 C 
HETATM   18  C12 UNL     1      22.620   0.819  52.718  1.00  0.00     0.019 C 
HETATM   19  H4  UNL     1      23.921   4.764  53.152  1.00  0.00     0.166 HD
ENDROOT
BRANCH   1  20
HETATM   20  S1  UNL     1      19.657   0.232  51.892  1.00  0.00    -0.046 SA
HETATM   21 CL1  UNL     1      19.308  -1.024  53.510  1.00  0.00    -0.043 Cl
ENDBRANCH   1  20
TORSDOF 1
ENDMDL
MODEL 8
REMARK VINA RESULT:      -6.3      3.281      4.265
REMARK  1 active torsions:
REMARK  status: ('A' for Active; 'I' for Inactive)
REMARK    1  A    between atoms: S1_2  and  C1_3 
ROOT
HETATM    1  C1  UNL     1      24.395   3.500  50.070  1.00  0.00     0.054 C 
HETATM    2  C2  UNL     1      23.437   2.681  49.542  1.00  0.00     0.040 C 
HETATM    3  C3  UNL     1      22.796   2.787  48.227  1.00  0.00    -0.003 C 
HETATM    4  C4  UNL     1      21.901   1.791  48.082  1.00  0.00     0.086 C 
HETATM    5  N1  UNL     1      21.615   0.793  49.051  1.00  0.00    -0.350 N 
HETATM    6  C5  UNL     1      20.736   1.070  50.130  1.00  0.00     0.142 A 
HETATM    7  N2  UNL     1      19.565   1.458  49.598  1.00  0.00    -0.224 NA
HETATM    8  C6  UNL     1      18.496   1.794  50.382  1.00  0.00     0.237 A 
HETATM    9  N3  UNL     1      18.617   1.735  51.721  1.00  0.00    -0.220 NA
HETATM   10  C7  UNL     1      19.760   1.353  52.329  1.00  0.00     0.183 A 
HETATM   11  N4  UNL     1      20.355   1.132  53.516  1.00  0.00    -0.151 NA
HETATM   12  N5  UNL     1      21.604   0.725  53.212  1.00  0.00    -0.251 N 
HETATM   13  C8  UNL     1      22.008   0.623  51.790  1.00  0.00     0.168 A 
HETATM   14  C9  UNL     1      20.769   1.039  51.477  1.00  0.00     0.077 A 
HETATM   15  P1  UNL     1      23.297   0.175  52.799  1.00  0.00     0.047 P 
HETATM   16  C10 UNL     1      24.558   1.336  53.381  1.00  0.00     0.066 C 
HETATM   17  C11 UNL     1      24.916   2.428  52.485  1.00  0.00     0.002 C 
HETATM   18  C12 UNL     1      24.318   2.557  51.255  1.00  0.00     0.019 C 
HETATM   19  H4  UNL     1      21.759  -0.167  49.391  1.00  0.00     0.166 HD
ENDROOT
BRANCH   1  20
HETATM   20  S1  UNL     1      25.405   5.024  49.660  1.00  0.00    -0.046 SA
HETATM   21 CL1  UNL     1      27.239   4.386  48.919  1.00  0.00    -0.043 Cl
ENDBRANCH   1  20
TORSDOF 1
ENDMDL
MODEL 9
REMARK VINA RESULT:      -6.3      3.239      3.760
REMARK  1 active torsions:
REMARK  status: ('A' for Active; 'I' for Inactive)
REMARK    1  A    between atoms: S1_2  and  C1_3 
ROOT
HETATM    1  C1  UNL     1      23.319   1.069  51.963  1.00  0.00     0.054 C 
HETATM    2  C2  UNL     1      24.305   1.783  51.343  1.00  0.00     0.040 C 
HETATM    3  C3  UNL     1      25.640   2.102  51.862  1.00  0.00    -0.003 C 
HETATM    4  C4  UNL     1      26.316   2.827  50.952  1.00  0.00     0.086 C 
HETATM    5  N1  UNL     1      25.816   3.228  49.683  1.00  0.00    -0.350 N 
HETATM    6  C5  UNL     1      24.971   4.363  49.570  1.00  0.00     0.142 A 
HETATM    7  N2  UNL     1      25.639   5.408  50.087  1.00  0.00    -0.224 NA
HETATM    8  C6  UNL     1      25.094   6.662  50.124  1.00  0.00     0.237 A 
HETATM    9  N3  UNL     1      23.857   6.856  49.629  1.00  0.00    -0.220 NA
HETATM   10  C7  UNL     1      23.126   5.858  49.093  1.00  0.00     0.183 A 
HETATM   11  N4  UNL     1      21.957   5.542  48.506  1.00  0.00    -0.151 NA
HETATM   12  N5  UNL     1      22.038   4.220  48.249  1.00  0.00    -0.251 N 
HETATM   13  C8  UNL     1      23.265   3.482  48.630  1.00  0.00     0.168 A 
HETATM   14  C9  UNL     1      23.742   4.648  49.098  1.00  0.00     0.077 A 
HETATM   15  P1  UNL     1      22.150   2.429  47.902  1.00  0.00     0.047 P 
HETATM   16  C10 UNL     1      20.929   1.472  48.833  1.00  0.00     0.066 C 
HETATM   17  C11 UNL     1      21.313   1.028  50.166  1.00  0.00     0.002 C 
HETATM   18  C12 UNL     1      22.551   1.327  50.681  1.00  0.00     0.019 C 
HETATM   19  H4  UNL     1      25.769   3.070  48.669  1.00  0.00     0.166 HD
ENDROOT
BRANCH   1  20
HETATM   20  S1  UNL     1      22.955   0.157  53.558  1.00  0.00    -0.046 SA
HETATM   21 CL1  UNL     1      20.953   0.467  54.020  1.00  0.00    -0.043 Cl
ENDBRANCH   1  20
TORSDOF 1
ENDMDL
