MODEL 1
REMARK VINA RESULT:      -9.9      0.000      0.000
REMARK  4 active torsions:
REMARK  status: ('A' for Active; 'I' for Inactive)
REMARK    1  A    between atoms: O1_2  and  C2_3 
REMARK    2  A    between atoms: C12_13  and  N1_14 
REMARK    3  A    between atoms: N1_14  and  C13_15 
REMARK    4  A    between atoms: C19_23  and  N3_24 
ROOT
HETATM    1  C2  UNL     1      23.887  -0.587  54.294  1.00  0.00     0.068 A 
HETATM    2  C3  UNL     1      22.701  -1.012  54.869  1.00  0.00     0.039 A 
HETATM    3  C4  UNL     1      21.501  -0.461  54.468  1.00  0.00     0.040 A 
HETATM    4  C5  UNL     1      21.566   0.517  53.480  1.00  0.00     0.076 A 
HETATM    5  C6  UNL     1      22.738   0.958  52.890  1.00  0.00    -0.009 A 
HETATM    6  C7  UNL     1      23.914   0.381  53.320  1.00  0.00     0.047 A 
HETATM    7  C8  UNL     1      22.565   2.020  51.848  1.00  0.00     0.095 C 
HETATM    8  C9  UNL     1      22.299   1.429  50.511  1.00  0.00    -0.011 C 
HETATM    9  C10 UNL     1      22.605   1.933  49.329  1.00  0.00     0.001 C 
HETATM   10  C11 UNL     1      23.268   3.177  49.049  1.00  0.00     0.051 C 
HETATM   11  C12 UNL     1      23.768   4.174  49.754  1.00  0.00     0.147 C 
HETATM   12  N2  UNL     1      24.014   4.728  51.057  1.00  0.00    -0.045 NA
HETATM   13  C19 UNL     1      23.148   4.697  52.009  1.00  0.00     0.722 C 
HETATM   14  N4  UNL     1      21.820   4.257  52.338  1.00  0.00    -0.069 NA
HETATM   15  C20 UNL     1      21.530   2.984  52.265  1.00  0.00     0.068 C 
HETATM   16  C21 UNL     1      20.221   2.380  52.571  1.00  0.00     0.232 C 
HETATM   17  O2  UNL     1      20.358   1.069  53.079  1.00  0.00    -0.345 OA
ENDROOT
BRANCH  11  18
HETATM   18  N1  UNL     1      24.412   5.368  49.273  1.00  0.00    -0.340 N 
HETATM   19  H11 UNL     1      24.096   6.365  49.081  1.00  0.00     0.167 HD
BRANCH  18  20
HETATM   20  C13 UNL     1      25.758   5.650  48.866  1.00  0.00     0.035 A 
HETATM   21  C14 UNL     1      26.799   4.726  48.927  1.00  0.00     0.029 A 
HETATM   22  C15 UNL     1      28.074   5.050  48.522  1.00  0.00     0.004 A 
HETATM   23  C16 UNL     1      28.304   6.325  48.048  1.00  0.00     0.019 A 
HETATM   24  C17 UNL     1      27.339   7.306  47.950  1.00  0.00     0.013 A 
HETATM   25 BR1  UNL     1      27.666   9.054  47.297  1.00  0.00    -0.051 Br
HETATM   26  C18 UNL     1      26.067   6.921  48.375  1.00  0.00     0.048 A 
ENDBRANCH  18  20
ENDBRANCH  11  18
BRANCH  13  27
HETATM   27  N3  UNL     1      23.887   5.367  53.048  1.00  0.00    -0.231 N 
HETATM   28  H16 UNL     1      24.598   6.019  53.434  1.00  0.00     0.174 HD
HETATM   29  H17 UNL     1      23.771   5.241  54.080  1.00  0.00     0.174 HD
ENDBRANCH  13  27
BRANCH   1  30
HETATM   30  O1  UNL     1      25.110  -1.136  54.691  1.00  0.00    -0.356 OA
HETATM   31  C1  UNL     1      26.181  -0.201  54.887  1.00  0.00     0.210 C 
ENDBRANCH   1  30
TORSDOF 4
ENDMDL
MODEL 2
REMARK VINA RESULT:      -8.8      1.238      1.780
REMARK  4 active torsions:
REMARK  status: ('A' for Active; 'I' for Inactive)
REMARK    1  A    between atoms: O1_2  and  C2_3 
REMARK    2  A    between atoms: C12_13  and  N1_14 
REMARK    3  A    between atoms: N1_14  and  C13_15 
REMARK    4  A    between atoms: C19_23  and  N3_24 
ROOT
HETATM    1  C2  UNL     1      24.160  -0.494  54.189  1.00  0.00     0.068 A 
HETATM    2  C3  UNL     1      22.977  -1.002  54.699  1.00  0.00     0.039 A 
HETATM    3  C4  UNL     1      21.766  -0.491  54.279  1.00  0.00     0.040 A 
HETATM    4  C5  UNL     1      21.817   0.534  53.340  1.00  0.00     0.076 A 
HETATM    5  C6  UNL     1      22.987   1.059  52.815  1.00  0.00    -0.009 A 
HETATM    6  C7  UNL     1      24.173   0.519  53.263  1.00  0.00     0.047 A 
HETATM    7  C8  UNL     1      22.797   2.160  51.817  1.00  0.00     0.095 C 
HETATM    8  C9  UNL     1      22.609   1.621  50.446  1.00  0.00    -0.011 C 
HETATM    9  C10 UNL     1      22.931   2.195  49.300  1.00  0.00     0.001 C 
HETATM   10  C11 UNL     1      23.541   3.481  49.103  1.00  0.00     0.051 C 
HETATM   11  C12 UNL     1      23.965   4.466  49.871  1.00  0.00     0.147 C 
HETATM   12  N2  UNL     1      24.137   4.969  51.207  1.00  0.00    -0.045 NA
HETATM   13  C19 UNL     1      23.240   4.851  52.123  1.00  0.00     0.722 C 
HETATM   14  N4  UNL     1      21.925   4.332  52.381  1.00  0.00    -0.069 NA
HETATM   15  C20 UNL     1      21.702   3.052  52.238  1.00  0.00     0.068 C 
HETATM   16  C21 UNL     1      20.414   2.372  52.467  1.00  0.00     0.232 C 
HETATM   17  O2  UNL     1      20.598   1.046  52.919  1.00  0.00    -0.345 OA
ENDROOT
BRANCH  11  18
HETATM   18  N1  UNL     1      24.566   5.712  49.470  1.00  0.00    -0.340 N 
HETATM   19  H11 UNL     1      25.272   6.377  49.905  1.00  0.00     0.167 HD
BRANCH  18  20
HETATM   20  C13 UNL     1      24.421   6.530  48.301  1.00  0.00     0.035 A 
HETATM   21  C14 UNL     1      23.234   6.657  47.584  1.00  0.00     0.029 A 
HETATM   22  C15 UNL     1      23.150   7.457  46.467  1.00  0.00     0.004 A 
HETATM   23  C16 UNL     1      24.280   8.140  46.067  1.00  0.00     0.019 A 
HETATM   24  C17 UNL     1      25.498   8.077  46.712  1.00  0.00     0.013 A 
HETATM   25 BR1  UNL     1      27.044   9.020  46.154  1.00  0.00    -0.051 Br
HETATM   26  C18 UNL     1      25.523   7.251  47.835  1.00  0.00     0.048 A 
ENDBRANCH  18  20
ENDBRANCH  11  18
BRANCH  13  27
HETATM   27  N3  UNL     1      23.908   5.505  53.218  1.00  0.00    -0.231 N 
HETATM   28  H16 UNL     1      24.236   5.613  54.199  1.00  0.00     0.174 HD
HETATM   29  H17 UNL     1      24.414   6.420  53.188  1.00  0.00     0.174 HD
ENDBRANCH  13  27
BRANCH   1  30
HETATM   30  O1  UNL     1      25.394  -1.002  54.606  1.00  0.00    -0.356 OA
HETATM   31  C1  UNL     1      26.453  -0.042  54.741  1.00  0.00     0.210 C 
ENDBRANCH   1  30
TORSDOF 4
ENDMDL
MODEL 3
REMARK VINA RESULT:      -8.4      4.247      8.211
REMARK  4 active torsions:
REMARK  status: ('A' for Active; 'I' for Inactive)
REMARK    1  A    between atoms: O1_2  and  C2_3 
REMARK    2  A    between atoms: C12_13  and  N1_14 
REMARK    3  A    between atoms: N1_14  and  C13_15 
REMARK    4  A    between atoms: C19_23  and  N3_24 
ROOT
HETATM    1  C2  UNL     1      27.641   5.574  48.477  1.00  0.00     0.068 A 
HETATM    2  C3  UNL     1      27.469   6.861  47.995  1.00  0.00     0.039 A 
HETATM    3  C4  UNL     1      26.235   7.472  48.075  1.00  0.00     0.040 A 
HETATM    4  C5  UNL     1      25.211   6.729  48.655  1.00  0.00     0.076 A 
HETATM    5  C6  UNL     1      25.357   5.442  49.145  1.00  0.00    -0.009 A 
HETATM    6  C7  UNL     1      26.606   4.870  49.044  1.00  0.00     0.047 A 
HETATM    7  C8  UNL     1      24.115   4.838  49.725  1.00  0.00     0.095 C 
HETATM    8  C9  UNL     1      23.957   5.197  51.158  1.00  0.00    -0.011 C 
HETATM    9  C10 UNL     1      23.361   4.496  52.106  1.00  0.00     0.001 C 
HETATM   10  C11 UNL     1      22.718   3.217  51.981  1.00  0.00     0.051 C 
HETATM   11  C12 UNL     1      22.495   2.349  51.012  1.00  0.00     0.147 C 
HETATM   12  N2  UNL     1      22.658   2.023  49.621  1.00  0.00    -0.045 NA
HETATM   13  C19 UNL     1      22.502   2.881  48.675  1.00  0.00     0.722 C 
HETATM   14  N4  UNL     1      22.179   4.258  48.416  1.00  0.00    -0.069 NA
HETATM   15  C20 UNL     1      22.940   5.199  48.911  1.00  0.00     0.068 C 
HETATM   16  C21 UNL     1      22.742   6.648  48.732  1.00  0.00     0.232 C 
HETATM   17  O2  UNL     1      23.971   7.346  48.735  1.00  0.00    -0.345 OA
ENDROOT
BRANCH  11  18
HETATM   18  N1  UNL     1      21.812   1.085  51.089  1.00  0.00    -0.340 N 
HETATM   19  H11 UNL     1      21.411   0.405  50.377  1.00  0.00     0.167 HD
BRANCH  18  20
HETATM   20  C13 UNL     1      21.412   0.261  52.194  1.00  0.00     0.035 A 
HETATM   21  C14 UNL     1      22.280  -0.173  53.193  1.00  0.00     0.029 A 
HETATM   22  C15 UNL     1      21.843  -0.963  54.232  1.00  0.00     0.004 A 
HETATM   23  C16 UNL     1      20.510  -1.320  54.265  1.00  0.00     0.019 A 
HETATM   24  C17 UNL     1      19.577  -0.938  53.323  1.00  0.00     0.013 A 
HETATM   25 BR1  UNL     1      17.750  -1.434  53.379  1.00  0.00    -0.051 Br
HETATM   26  C18 UNL     1      20.078  -0.140  52.294  1.00  0.00     0.048 A 
ENDBRANCH  18  20
ENDBRANCH  11  18
BRANCH  13  27
HETATM   27  N3  UNL     1      22.773   2.050  47.530  1.00  0.00    -0.231 N 
HETATM   28  H16 UNL     1      23.371   1.523  46.864  1.00  0.00     0.174 HD
HETATM   29  H17 UNL     1      22.072   1.653  46.864  1.00  0.00     0.174 HD
ENDBRANCH  13  27
BRANCH   1  30
HETATM   30  O1  UNL     1      28.885   4.943  48.402  1.00  0.00    -0.356 OA
HETATM   31  C1  UNL     1      29.998   5.789  48.073  1.00  0.00     0.210 C 
ENDBRANCH   1  30
TORSDOF 4
ENDMDL
MODEL 4
REMARK VINA RESULT:      -8.4      1.611      2.171
REMARK  4 active torsions:
REMARK  status: ('A' for Active; 'I' for Inactive)
REMARK    1  A    between atoms: O1_2  and  C2_3 
REMARK    2  A    between atoms: C12_13  and  N1_14 
REMARK    3  A    between atoms: N1_14  and  C13_15 
REMARK    4  A    between atoms: C19_23  and  N3_24 
ROOT
HETATM    1  C2  UNL     1      25.583   0.201  53.033  1.00  0.00     0.068 A 
HETATM    2  C3  UNL     1      24.632  -0.547  53.707  1.00  0.00     0.039 A 
HETATM    3  C4  UNL     1      23.293  -0.239  53.582  1.00  0.00     0.040 A 
HETATM    4  C5  UNL     1      22.977   0.838  52.759  1.00  0.00     0.076 A 
HETATM    5  C6  UNL     1      23.909   1.600  52.075  1.00  0.00    -0.009 A 
HETATM    6  C7  UNL     1      25.235   1.258  52.229  1.00  0.00     0.047 A 
HETATM    7  C8  UNL     1      23.338   2.712  51.249  1.00  0.00     0.095 C 
HETATM    8  C9  UNL     1      22.961   2.238  49.892  1.00  0.00    -0.011 C 
HETATM    9  C10 UNL     1      22.940   2.936  48.770  1.00  0.00     0.001 C 
HETATM   10  C11 UNL     1      23.274   4.322  48.590  1.00  0.00     0.051 C 
HETATM   11  C12 UNL     1      23.679   5.315  49.358  1.00  0.00     0.147 C 
HETATM   12  N2  UNL     1      24.038   5.752  50.680  1.00  0.00    -0.045 NA
HETATM   13  C19 UNL     1      23.382   5.412  51.734  1.00  0.00     0.722 C 
HETATM   14  N4  UNL     1      22.254   4.646  52.186  1.00  0.00    -0.069 NA
HETATM   15  C20 UNL     1      22.221   3.358  51.961  1.00  0.00     0.068 C 
HETATM   16  C21 UNL     1      21.139   2.441  52.363  1.00  0.00     0.232 C 
HETATM   17  O2  UNL     1      21.630   1.145  52.634  1.00  0.00    -0.345 OA
ENDROOT
BRANCH  11  18
HETATM   18  N1  UNL     1      23.969   6.673  48.977  1.00  0.00    -0.340 N 
HETATM   19  H11 UNL     1      23.884   7.620  49.455  1.00  0.00     0.167 HD
BRANCH  18  20
HETATM   20  C13 UNL     1      24.494   7.256  47.776  1.00  0.00     0.035 A 
HETATM   21  C14 UNL     1      23.719   7.564  46.660  1.00  0.00     0.029 A 
HETATM   22  C15 UNL     1      24.274   8.124  45.532  1.00  0.00     0.004 A 
HETATM   23  C16 UNL     1      25.631   8.377  45.528  1.00  0.00     0.019 A 
HETATM   24  C17 UNL     1      26.477   8.106  46.584  1.00  0.00     0.013 A 
HETATM   25 BR1  UNL     1      28.339   8.457  46.568  1.00  0.00    -0.051 Br
HETATM   26  C18 UNL     1      25.859   7.540  47.699  1.00  0.00     0.048 A 
ENDBRANCH  18  20
ENDBRANCH  11  18
BRANCH  13  27
HETATM   27  N3  UNL     1      24.145   6.104  52.742  1.00  0.00    -0.231 N 
HETATM   28  H16 UNL     1      25.009   6.438  53.211  1.00  0.00     0.174 HD
HETATM   29  H17 UNL     1      23.766   6.638  53.558  1.00  0.00     0.174 HD
ENDBRANCH  13  27
BRANCH   1  30
HETATM   30  O1  UNL     1      26.943  -0.100  53.152  1.00  0.00    -0.356 OA
HETATM   31  C1  UNL     1      27.553   0.245  54.405  1.00  0.00     0.210 C 
ENDBRANCH   1  30
TORSDOF 4
ENDMDL
MODEL 5
REMARK VINA RESULT:      -8.3      3.765      7.942
REMARK  4 active torsions:
REMARK  status: ('A' for Active; 'I' for Inactive)
REMARK    1  A    between atoms: O1_2  and  C2_3 
REMARK    2  A    between atoms: C12_13  and  N1_14 
REMARK    3  A    between atoms: N1_14  and  C13_15 
REMARK    4  A    between atoms: C19_23  and  N3_24 
ROOT
HETATM    1  C2  UNL     1      28.077   5.766  48.282  1.00  0.00     0.068 A 
HETATM    2  C3  UNL     1      28.010   6.958  47.581  1.00  0.00     0.039 A 
HETATM    3  C4  UNL     1      26.818   7.647  47.499  1.00  0.00     0.040 A 
HETATM    4  C5  UNL     1      25.726   7.079  48.149  1.00  0.00     0.076 A 
HETATM    5  C6  UNL     1      25.768   5.889  48.856  1.00  0.00    -0.009 A 
HETATM    6  C7  UNL     1      26.978   5.234  48.912  1.00  0.00     0.047 A 
HETATM    7  C8  UNL     1      24.467   5.471  49.472  1.00  0.00     0.095 C 
HETATM    8  C9  UNL     1      24.284   6.081  50.815  1.00  0.00    -0.011 C 
HETATM    9  C10 UNL     1      23.609   5.591  51.839  1.00  0.00     0.001 C 
HETATM   10  C11 UNL     1      22.885   4.351  51.903  1.00  0.00     0.051 C 
HETATM   11  C12 UNL     1      22.639   3.345  51.086  1.00  0.00     0.147 C 
HETATM   12  N2  UNL     1      22.828   2.774  49.780  1.00  0.00    -0.045 NA
HETATM   13  C19 UNL     1      22.764   3.464  48.696  1.00  0.00     0.722 C 
HETATM   14  N4  UNL     1      22.545   4.792  48.192  1.00  0.00    -0.069 NA
HETATM   15  C20 UNL     1      23.350   5.757  48.555  1.00  0.00     0.068 C 
HETATM   16  C21 UNL     1      23.257   7.163  48.124  1.00  0.00     0.232 C 
HETATM   17  O2  UNL     1      24.529   7.775  48.065  1.00  0.00    -0.345 OA
ENDROOT
BRANCH  11  18
HETATM   18  N1  UNL     1      21.869   2.156  51.345  1.00  0.00    -0.340 N 
HETATM   19  H11 UNL     1      20.981   1.735  50.939  1.00  0.00     0.167 HD
BRANCH  18  20
HETATM   20  C13 UNL     1      22.029   1.077  52.277  1.00  0.00     0.035 A 
HETATM   21  C14 UNL     1      20.976   0.299  52.752  1.00  0.00     0.029 A 
HETATM   22  C15 UNL     1      21.186  -0.727  53.646  1.00  0.00     0.004 A 
HETATM   23  C16 UNL     1      22.477  -0.971  54.068  1.00  0.00     0.019 A 
HETATM   24  C17 UNL     1      23.581  -0.254  53.654  1.00  0.00     0.013 A 
HETATM   25 BR1  UNL     1      25.349  -0.598  54.241  1.00  0.00    -0.051 Br
HETATM   26  C18 UNL     1      23.308   0.771  52.750  1.00  0.00     0.048 A 
ENDBRANCH  18  20
ENDBRANCH  11  18
BRANCH  13  27
HETATM   27  N3  UNL     1      23.019   2.434  47.723  1.00  0.00    -0.231 N 
HETATM   28  H16 UNL     1      23.030   2.009  46.774  1.00  0.00     0.174 HD
HETATM   29  H17 UNL     1      23.434   1.490  47.903  1.00  0.00     0.174 HD
ENDBRANCH  13  27
BRANCH   1  30
HETATM   30  O1  UNL     1      29.278   5.056  48.373  1.00  0.00    -0.356 OA
HETATM   31  C1  UNL     1      30.470   5.852  48.462  1.00  0.00     0.210 C 
ENDBRANCH   1  30
TORSDOF 4
ENDMDL
MODEL 6
REMARK VINA RESULT:      -8.1      4.619      8.948
REMARK  4 active torsions:
REMARK  status: ('A' for Active; 'I' for Inactive)
REMARK    1  A    between atoms: O1_2  and  C2_3 
REMARK    2  A    between atoms: C12_13  and  N1_14 
REMARK    3  A    between atoms: N1_14  and  C13_15 
REMARK    4  A    between atoms: C19_23  and  N3_24 
ROOT
HETATM    1  C2  UNL     1      25.123   9.157  45.513  1.00  0.00     0.068 A 
HETATM    2  C3  UNL     1      25.789  10.342  45.776  1.00  0.00     0.039 A 
HETATM    3  C4  UNL     1      26.553  10.469  46.918  1.00  0.00     0.040 A 
HETATM    4  C5  UNL     1      26.604   9.360  47.757  1.00  0.00     0.076 A 
HETATM    5  C6  UNL     1      25.948   8.165  47.516  1.00  0.00    -0.009 A 
HETATM    6  C7  UNL     1      25.196   8.082  46.365  1.00  0.00     0.047 A 
HETATM    7  C8  UNL     1      26.149   7.109  48.560  1.00  0.00     0.095 C 
HETATM    8  C9  UNL     1      27.373   6.310  48.294  1.00  0.00    -0.011 C 
HETATM    9  C10 UNL     1      27.602   5.049  48.617  1.00  0.00     0.001 C 
HETATM   10  C11 UNL     1      26.723   4.146  49.307  1.00  0.00     0.051 C 
HETATM   11  C12 UNL     1      25.509   4.199  49.821  1.00  0.00     0.147 C 
HETATM   12  N2  UNL     1      24.335   4.991  50.071  1.00  0.00    -0.045 NA
HETATM   13  C19 UNL     1      24.384   6.216  50.462  1.00  0.00     0.722 C 
HETATM   14  N4  UNL     1      25.292   7.275  50.804  1.00  0.00    -0.069 NA
HETATM   15  C20 UNL     1      26.138   7.709  49.906  1.00  0.00     0.068 C 
HETATM   16  C21 UNL     1      27.125   8.786  50.103  1.00  0.00     0.232 C 
HETATM   17  O2  UNL     1      27.373   9.490  48.904  1.00  0.00    -0.345 OA
ENDROOT
BRANCH  11  18
HETATM   18  N1  UNL     1      24.781   3.154  50.493  1.00  0.00    -0.340 N 
HETATM   19  H11 UNL     1      23.754   2.885  50.568  1.00  0.00     0.167 HD
BRANCH  18  20
HETATM   20  C13 UNL     1      25.193   2.063  51.329  1.00  0.00     0.035 A 
HETATM   21  C14 UNL     1      26.515   1.647  51.467  1.00  0.00     0.029 A 
HETATM   22  C15 UNL     1      26.855   0.594  52.285  1.00  0.00     0.004 A 
HETATM   23  C16 UNL     1      25.848  -0.050  52.974  1.00  0.00     0.019 A 
HETATM   24  C17 UNL     1      24.513   0.290  52.901  1.00  0.00     0.013 A 
HETATM   25 BR1  UNL     1      23.138  -0.601  53.853  1.00  0.00    -0.051 Br
HETATM   26  C18 UNL     1      24.228   1.364  52.058  1.00  0.00     0.048 A 
ENDBRANCH  18  20
ENDBRANCH  11  18
BRANCH  13  27
HETATM   27  N3  UNL     1      22.977   6.510  50.552  1.00  0.00    -0.231 N 
HETATM   28  H16 UNL     1      22.070   6.903  50.232  1.00  0.00     0.174 HD
HETATM   29  H17 UNL     1      22.331   6.252  51.334  1.00  0.00     0.174 HD
ENDBRANCH  13  27
BRANCH   1  30
HETATM   30  O1  UNL     1      24.345   9.014  44.361  1.00  0.00    -0.356 OA
HETATM   31  C1  UNL     1      24.209   7.676  43.859  1.00  0.00     0.210 C 
ENDBRANCH   1  30
TORSDOF 4
ENDMDL
MODEL 7
REMARK VINA RESULT:      -8.0      5.487      8.677
REMARK  4 active torsions:
REMARK  status: ('A' for Active; 'I' for Inactive)
REMARK    1  A    between atoms: O1_2  and  C2_3 
REMARK    2  A    between atoms: C12_13  and  N1_14 
REMARK    3  A    between atoms: N1_14  and  C13_15 
REMARK    4  A    between atoms: C19_23  and  N3_24 
ROOT
HETATM    1  C2  UNL     1      25.745   5.159  49.617  1.00  0.00     0.068 A 
HETATM    2  C3  UNL     1      24.872   6.028  50.250  1.00  0.00     0.039 A 
HETATM    3  C4  UNL     1      25.096   7.389  50.207  1.00  0.00     0.040 A 
HETATM    4  C5  UNL     1      26.222   7.811  49.506  1.00  0.00     0.076 A 
HETATM    5  C6  UNL     1      27.109   6.963  48.865  1.00  0.00    -0.009 A 
HETATM    6  C7  UNL     1      26.847   5.612  48.934  1.00  0.00     0.047 A 
HETATM    7  C8  UNL     1      28.251   7.642  48.174  1.00  0.00     0.095 C 
HETATM    8  C9  UNL     1      27.884   8.047  46.792  1.00  0.00    -0.011 C 
HETATM    9  C10 UNL     1      28.681   8.165  45.746  1.00  0.00     0.001 C 
HETATM   10  C11 UNL     1      30.099   7.931  45.690  1.00  0.00     0.051 C 
HETATM   11  C12 UNL     1      31.040   7.558  46.536  1.00  0.00     0.147 C 
HETATM   12  N2  UNL     1      31.373   7.171  47.880  1.00  0.00    -0.045 NA
HETATM   13  C19 UNL     1      30.890   7.754  48.920  1.00  0.00     0.722 C 
HETATM   14  N4  UNL     1      30.007   8.809  49.337  1.00  0.00    -0.069 NA
HETATM   15  C20 UNL     1      28.747   8.766  48.988  1.00  0.00     0.068 C 
HETATM   16  C21 UNL     1      27.723   9.766  49.339  1.00  0.00     0.232 C 
HETATM   17  O2  UNL     1      26.444   9.180  49.463  1.00  0.00    -0.345 OA
ENDROOT
BRANCH  11  18
HETATM   18  N1  UNL     1      32.445   7.376  46.279  1.00  0.00    -0.340 N 
HETATM   19  H11 UNL     1      33.313   7.979  46.396  1.00  0.00     0.167 HD
BRANCH  18  20
HETATM   20  C13 UNL     1      33.203   6.277  45.754  1.00  0.00     0.035 A 
HETATM   21  C14 UNL     1      34.074   5.500  46.515  1.00  0.00     0.029 A 
HETATM   22  C15 UNL     1      34.778   4.456  45.960  1.00  0.00     0.004 A 
HETATM   23  C16 UNL     1      34.601   4.190  44.618  1.00  0.00     0.019 A 
HETATM   24  C17 UNL     1      33.763   4.903  43.785  1.00  0.00     0.013 A 
HETATM   25 BR1  UNL     1      33.528   4.528  41.943  1.00  0.00    -0.051 Br
HETATM   26  C18 UNL     1      33.077   5.948  44.402  1.00  0.00     0.048 A 
ENDBRANCH  18  20
ENDBRANCH  11  18
BRANCH  13  27
HETATM   27  N3  UNL     1      31.534   6.995  49.960  1.00  0.00    -0.231 N 
HETATM   28  H16 UNL     1      32.340   6.590  50.475  1.00  0.00     0.174 HD
HETATM   29  H17 UNL     1      31.066   6.480  50.742  1.00  0.00     0.174 HD
ENDBRANCH  13  27
BRANCH   1  30
HETATM   30  O1  UNL     1      25.530   3.779  49.654  1.00  0.00    -0.356 OA
HETATM   31  C1  UNL     1      26.474   3.019  50.425  1.00  0.00     0.210 C 
ENDBRANCH   1  30
TORSDOF 4
ENDMDL
MODEL 8
REMARK VINA RESULT:      -8.0      4.098      8.272
REMARK  4 active torsions:
REMARK  status: ('A' for Active; 'I' for Inactive)
REMARK    1  A    between atoms: O1_2  and  C2_3 
REMARK    2  A    between atoms: C12_13  and  N1_14 
REMARK    3  A    between atoms: N1_14  and  C13_15 
REMARK    4  A    between atoms: C19_23  and  N3_24 
ROOT
HETATM    1  C2  UNL     1      25.672   7.353  48.133  1.00  0.00     0.068 A 
HETATM    2  C3  UNL     1      27.028   7.089  48.048  1.00  0.00     0.039 A 
HETATM    3  C4  UNL     1      27.526   5.878  48.484  1.00  0.00     0.040 A 
HETATM    4  C5  UNL     1      26.600   4.974  48.995  1.00  0.00     0.076 A 
HETATM    5  C6  UNL     1      25.240   5.214  49.090  1.00  0.00    -0.009 A 
HETATM    6  C7  UNL     1      24.786   6.437  48.645  1.00  0.00     0.047 A 
HETATM    7  C8  UNL     1      24.436   4.094  49.676  1.00  0.00     0.095 C 
HETATM    8  C9  UNL     1      24.031   3.116  48.633  1.00  0.00    -0.011 C 
HETATM    9  C10 UNL     1      22.954   2.351  48.618  1.00  0.00     0.001 C 
HETATM   10  C11 UNL     1      21.914   2.277  49.607  1.00  0.00     0.051 C 
HETATM   11  C12 UNL     1      21.650   2.858  50.761  1.00  0.00     0.147 C 
HETATM   12  N2  UNL     1      22.061   3.808  51.759  1.00  0.00    -0.045 NA
HETATM   13  C19 UNL     1      23.279   3.924  52.159  1.00  0.00     0.722 C 
HETATM   14  N4  UNL     1      24.603   3.395  51.974  1.00  0.00    -0.069 NA
HETATM   15  C20 UNL     1      25.164   3.470  50.795  1.00  0.00     0.068 C 
HETATM   16  C21 UNL     1      26.510   2.979  50.451  1.00  0.00     0.232 C 
HETATM   17  O2  UNL     1      27.104   3.757  49.432  1.00  0.00    -0.345 OA
ENDROOT
BRANCH  11  18
HETATM   18  N1  UNL     1      20.521   2.642  51.628  1.00  0.00    -0.340 N 
HETATM   19  H11 UNL     1      19.820   3.274  52.118  1.00  0.00     0.167 HD
BRANCH  18  20
HETATM   20  C13 UNL     1      19.917   1.455  52.161  1.00  0.00     0.035 A 
HETATM   21  C14 UNL     1      20.478   0.688  53.181  1.00  0.00     0.029 A 
HETATM   22  C15 UNL     1      19.855  -0.443  53.656  1.00  0.00     0.004 A 
HETATM   23  C16 UNL     1      18.648  -0.808  53.096  1.00  0.00     0.019 A 
HETATM   24  C17 UNL     1      18.016  -0.113  52.084  1.00  0.00     0.013 A 
HETATM   25 BR1  UNL     1      16.358  -0.624  51.323  1.00  0.00    -0.051 Br
HETATM   26  C18 UNL     1      18.694   1.023  51.643  1.00  0.00     0.048 A 
ENDBRANCH  18  20
ENDBRANCH  11  18
BRANCH  13  27
HETATM   27  N3  UNL     1      23.130   4.982  53.125  1.00  0.00    -0.231 N 
HETATM   28  H16 UNL     1      23.102   5.397  54.077  1.00  0.00     0.174 HD
HETATM   29  H17 UNL     1      22.928   5.989  52.926  1.00  0.00     0.174 HD
ENDBRANCH  13  27
BRANCH   1  30
HETATM   30  O1  UNL     1      25.154   8.576  47.697  1.00  0.00    -0.356 OA
HETATM   31  C1  UNL     1      24.119   9.145  48.513  1.00  0.00     0.210 C 
ENDBRANCH   1  30
TORSDOF 4
ENDMDL
MODEL 9
REMARK VINA RESULT:      -7.9      4.089      8.255
REMARK  4 active torsions:
REMARK  status: ('A' for Active; 'I' for Inactive)
REMARK    1  A    between atoms: O1_2  and  C2_3 
REMARK    2  A    between atoms: C12_13  and  N1_14 
REMARK    3  A    between atoms: N1_14  and  C13_15 
REMARK    4  A    between atoms: C19_23  and  N3_24 
ROOT
HETATM    1  C2  UNL     1      23.408   7.520  45.940  1.00  0.00     0.068 A 
HETATM    2  C3  UNL     1      24.136   8.691  45.805  1.00  0.00     0.039 A 
HETATM    3  C4  UNL     1      25.088   9.027  46.746  1.00  0.00     0.040 A 
HETATM    4  C5  UNL     1      25.259   8.137  47.802  1.00  0.00     0.076 A 
HETATM    5  C6  UNL     1      24.544   6.962  47.959  1.00  0.00    -0.009 A 
HETATM    6  C7  UNL     1      23.603   6.665  46.997  1.00  0.00     0.047 A 
HETATM    7  C8  UNL     1      24.898   6.161  49.175  1.00  0.00     0.095 C 
HETATM    8  C9  UNL     1      26.039   5.248  48.909  1.00  0.00    -0.011 C 
HETATM    9  C10 UNL     1      26.292   4.083  49.478  1.00  0.00     0.001 C 
HETATM   10  C11 UNL     1      25.525   3.417  50.495  1.00  0.00     0.051 C 
HETATM   11  C12 UNL     1      24.419   3.661  51.172  1.00  0.00     0.147 C 
HETATM   12  N2  UNL     1      23.324   4.560  51.415  1.00  0.00    -0.045 NA
HETATM   13  C19 UNL     1      23.467   5.836  51.495  1.00  0.00     0.722 C 
HETATM   14  N4  UNL     1      24.445   6.888  51.425  1.00  0.00    -0.069 NA
HETATM   15  C20 UNL     1      25.133   7.052  50.326  1.00  0.00     0.068 C 
HETATM   16  C21 UNL     1      26.163   8.082  50.101  1.00  0.00     0.232 C 
HETATM   17  O2  UNL     1      26.216   8.478  48.746  1.00  0.00    -0.345 OA
ENDROOT
BRANCH  11  18
HETATM   18  N1  UNL     1      23.795   2.843  52.179  1.00  0.00    -0.340 N 
HETATM   19  H11 UNL     1      22.876   2.883  52.713  1.00  0.00     0.167 HD
BRANCH  18  20
HETATM   20  C13 UNL     1      24.202   1.641  52.847  1.00  0.00     0.035 A 
HETATM   21  C14 UNL     1      23.363   0.551  53.064  1.00  0.00     0.029 A 
HETATM   22  C15 UNL     1      23.806  -0.581  53.711  1.00  0.00     0.004 A 
HETATM   23  C16 UNL     1      25.115  -0.614  54.145  1.00  0.00     0.019 A 
HETATM   24  C17 UNL     1      26.019   0.415  53.975  1.00  0.00     0.013 A 
HETATM   25 BR1  UNL     1      27.815   0.357  54.575  1.00  0.00    -0.051 Br
HETATM   26  C18 UNL     1      25.514   1.534  53.314  1.00  0.00     0.048 A 
ENDBRANCH  18  20
ENDBRANCH  11  18
BRANCH  13  27
HETATM   27  N3  UNL     1      22.104   6.231  51.740  1.00  0.00    -0.231 N 
HETATM   28  H16 UNL     1      21.070   6.125  51.722  1.00  0.00     0.174 HD
HETATM   29  H17 UNL     1      21.779   7.115  52.194  1.00  0.00     0.174 HD
ENDBRANCH  13  27
BRANCH   1  30
HETATM   30  O1  UNL     1      22.441   7.168  44.995  1.00  0.00    -0.356 OA
HETATM   31  C1  UNL     1      21.624   6.035  45.329  1.00  0.00     0.210 C 
ENDBRANCH   1  30
TORSDOF 4
ENDMDL
