MODEL 1
REMARK VINA RESULT:      -7.6      0.000      0.000
REMARK  7 active torsions:
REMARK  status: ('A' for Active; 'I' for Inactive)
REMARK    1  A    between atoms: C2_2  and  C3_3 
REMARK    2  A    between atoms: C3_3  and  C4_4 
REMARK    3  A    between atoms: C4_4  and  N1_5 
REMARK    4  A    between atoms: N1_5  and  C5_6 
REMARK    5  A    between atoms: C5_6  and  C6_7 
REMARK    6  A    between atoms: C10_14  and  N5_15 
REMARK    7  A    between atoms: N5_15  and  C11_16 
ROOT
HETATM    1  C6  UNL     1      23.348   1.651  51.932  1.00  0.00     0.004 A 
HETATM    2  C7  UNL     1      22.299   1.553  51.031  1.00  0.00     0.030 A 
HETATM    3  C8  UNL     1      22.629   2.190  49.854  1.00  0.00     0.119 A 
HETATM    4  N2  UNL     1      23.868   2.661  50.061  1.00  0.00    -0.240 N 
HETATM    5  N3  UNL     1      24.576   3.350  49.165  1.00  0.00    -0.161 NA
HETATM    6  C9  UNL     1      25.820   3.776  49.479  1.00  0.00     0.258 A 
HETATM    7  N4  UNL     1      26.282   3.476  50.701  1.00  0.00    -0.220 NA
HETATM    8  C10 UNL     1      25.597   2.793  51.608  1.00  0.00     0.159 A 
HETATM    9  C17 UNL     1      24.333   2.361  51.284  1.00  0.00     0.112 A 
ENDROOT
BRANCH   8  10
HETATM   10  N5  UNL     1      26.158   2.522  52.856  1.00  0.00    -0.339 N 
HETATM   11  H16 UNL     1      26.056   2.909  53.807  1.00  0.00     0.167 HD
BRANCH  10  12
HETATM   12  C11 UNL     1      27.125   1.491  53.075  1.00  0.00     0.035 A 
HETATM   13  C12 UNL     1      28.363   1.791  53.626  1.00  0.00     0.032 A 
HETATM   14  C13 UNL     1      29.334   0.848  53.887  1.00  0.00     0.046 A 
HETATM   15  C14 UNL     1      29.102  -0.475  53.598  1.00  0.00     0.138 A 
HETATM   16  F1  UNL     1      30.017  -1.445  53.830  1.00  0.00    -0.204 F 
HETATM   17  C15 UNL     1      27.902  -0.849  53.050  1.00  0.00     0.074 A 
HETATM   18 CL1  UNL     1      27.499  -2.518  52.640  1.00  0.00    -0.081 Cl
HETATM   19  C16 UNL     1      26.987   0.124  52.818  1.00  0.00     0.056 A 
ENDBRANCH  10  12
ENDBRANCH   8  10
BRANCH   1  20
HETATM   20  C5  UNL     1      23.385   1.101  53.311  1.00  0.00     0.310 C 
BRANCH  20  21
HETATM   21  N1  UNL     1      23.416  -0.330  53.197  1.00  0.00     0.087 N 
HETATM   22  H10 UNL     1      24.364  -0.581  52.840  1.00  0.00     0.316 HD
BRANCH  21  23
HETATM   23  C4  UNL     1      23.088  -1.035  54.406  1.00  0.00     0.270 C 
BRANCH  23  24
HETATM   24  C3  UNL     1      21.721  -0.594  54.876  1.00  0.00     0.029 C 
BRANCH  24  25
HETATM   25  C2  UNL     1      20.696  -1.397  54.072  1.00  0.00    -0.003 C 
HETATM   26  C1  UNL     1      19.763  -0.447  53.360  1.00  0.00     0.005 C 
ENDBRANCH  24  25
ENDBRANCH  23  24
ENDBRANCH  21  23
ENDBRANCH  20  21
ENDBRANCH   1  20
TORSDOF 7
ENDMDL
MODEL 2
REMARK VINA RESULT:      -7.4      1.899      5.465
REMARK  7 active torsions:
REMARK  status: ('A' for Active; 'I' for Inactive)
REMARK    1  A    between atoms: C2_2  and  C3_3 
REMARK    2  A    between atoms: C3_3  and  C4_4 
REMARK    3  A    between atoms: C4_4  and  N1_5 
REMARK    4  A    between atoms: N1_5  and  C5_6 
REMARK    5  A    between atoms: C5_6  and  C6_7 
REMARK    6  A    between atoms: C10_14  and  N5_15 
REMARK    7  A    between atoms: N5_15  and  C11_16 
ROOT
HETATM    1  C6  UNL     1      24.908   3.172  49.914  1.00  0.00     0.004 A 
HETATM    2  C7  UNL     1      23.907   3.199  48.956  1.00  0.00     0.030 A 
HETATM    3  C8  UNL     1      22.735   2.706  49.486  1.00  0.00     0.119 A 
HETATM    4  N2  UNL     1      23.043   2.390  50.753  1.00  0.00    -0.240 N 
HETATM    5  N3  UNL     1      22.186   1.875  51.635  1.00  0.00    -0.161 NA
HETATM    6  C9  UNL     1      22.605   1.595  52.890  1.00  0.00     0.258 A 
HETATM    7  N4  UNL     1      23.886   1.857  53.183  1.00  0.00    -0.220 NA
HETATM    8  C10 UNL     1      24.756   2.369  52.323  1.00  0.00     0.159 A 
HETATM    9  C17 UNL     1      24.326   2.652  51.049  1.00  0.00     0.112 A 
ENDROOT
BRANCH   8  10
HETATM   10  N5  UNL     1      26.072   2.613  52.715  1.00  0.00    -0.339 N 
HETATM   11  H16 UNL     1      26.637   3.454  52.908  1.00  0.00     0.167 HD
BRANCH  10  12
HETATM   12  C11 UNL     1      27.022   1.573  52.966  1.00  0.00     0.035 A 
HETATM   13  C12 UNL     1      28.253   1.865  53.536  1.00  0.00     0.032 A 
HETATM   14  C13 UNL     1      29.208   0.914  53.827  1.00  0.00     0.046 A 
HETATM   15  C14 UNL     1      28.964  -0.410  53.550  1.00  0.00     0.138 A 
HETATM   16  F1  UNL     1      29.863  -1.388  53.812  1.00  0.00    -0.204 F 
HETATM   17  C15 UNL     1      27.770  -0.776  52.986  1.00  0.00     0.074 A 
HETATM   18 CL1  UNL     1      27.354  -2.446  52.589  1.00  0.00    -0.081 Cl
HETATM   19  C16 UNL     1      26.871   0.205  52.724  1.00  0.00     0.056 A 
ENDBRANCH  10  12
ENDBRANCH   8  10
BRANCH   1  20
HETATM   20  C5  UNL     1      26.316   3.611  49.739  1.00  0.00     0.310 C 
BRANCH  20  21
HETATM   21  N1  UNL     1      26.351   5.026  49.979  1.00  0.00     0.087 N 
HETATM   22  H10 UNL     1      26.953   5.171  50.821  1.00  0.00     0.316 HD
BRANCH  21  23
HETATM   23  C4  UNL     1      26.790   5.813  48.859  1.00  0.00     0.270 C 
BRANCH  23  24
HETATM   24  C3  UNL     1      28.135   5.302  48.397  1.00  0.00     0.029 C 
BRANCH  24  25
HETATM   25  C2  UNL     1      28.889   6.502  47.819  1.00  0.00    -0.003 C 
HETATM   26  C1  UNL     1      30.369   6.326  48.059  1.00  0.00     0.005 C 
ENDBRANCH  24  25
ENDBRANCH  23  24
ENDBRANCH  21  23
ENDBRANCH  20  21
ENDBRANCH   1  20
TORSDOF 7
ENDMDL
MODEL 3
REMARK VINA RESULT:      -7.3      1.890      4.830
REMARK  7 active torsions:
REMARK  status: ('A' for Active; 'I' for Inactive)
REMARK    1  A    between atoms: C2_2  and  C3_3 
REMARK    2  A    between atoms: C3_3  and  C4_4 
REMARK    3  A    between atoms: C4_4  and  N1_5 
REMARK    4  A    between atoms: N1_5  and  C5_6 
REMARK    5  A    between atoms: C5_6  and  C6_7 
REMARK    6  A    between atoms: C10_14  and  N5_15 
REMARK    7  A    between atoms: N5_15  and  C11_16 
ROOT
HETATM    1  C6  UNL     1      21.869   0.571  52.010  1.00  0.00     0.004 A 
HETATM    2  C7  UNL     1      20.513   0.364  52.206  1.00  0.00     0.030 A 
HETATM    3  C8  UNL     1      20.310  -0.352  53.366  1.00  0.00     0.119 A 
HETATM    4  N2  UNL     1      21.542  -0.566  53.852  1.00  0.00    -0.240 N 
HETATM    5  N3  UNL     1      21.808  -1.228  54.978  1.00  0.00    -0.161 NA
HETATM    6  C9  UNL     1      23.091  -1.384  55.376  1.00  0.00     0.258 A 
HETATM    7  N4  UNL     1      24.043  -0.851  54.599  1.00  0.00    -0.220 NA
HETATM    8  C10 UNL     1      23.804  -0.188  53.476  1.00  0.00     0.159 A 
HETATM    9  C17 UNL     1      22.498  -0.032  53.075  1.00  0.00     0.112 A 
ENDROOT
BRANCH   8  10
HETATM   10  N5  UNL     1      24.859   0.337  52.730  1.00  0.00    -0.339 N 
HETATM   11  H16 UNL     1      24.941   0.949  51.904  1.00  0.00     0.167 HD
BRANCH  10  12
HETATM   12  C11 UNL     1      26.235   0.083  53.029  1.00  0.00     0.035 A 
HETATM   13  C12 UNL     1      26.804  -1.149  52.738  1.00  0.00     0.032 A 
HETATM   14  C13 UNL     1      28.126  -1.458  52.976  1.00  0.00     0.046 A 
HETATM   15  C14 UNL     1      28.961  -0.519  53.534  1.00  0.00     0.138 A 
HETATM   16  F1  UNL     1      30.267  -0.764  53.792  1.00  0.00    -0.204 F 
HETATM   17  C15 UNL     1      28.470   0.721  53.850  1.00  0.00     0.074 A 
HETATM   18 CL1  UNL     1      29.453   2.000  54.570  1.00  0.00    -0.081 Cl
HETATM   19  C16 UNL     1      27.162   0.965  53.591  1.00  0.00     0.056 A 
ENDBRANCH  10  12
ENDBRANCH   8  10
BRANCH   1  20
HETATM   20  C5  UNL     1      22.501   1.293  50.875  1.00  0.00     0.310 C 
BRANCH  20  21
HETATM   21  N1  UNL     1      22.645   2.665  51.274  1.00  0.00     0.087 N 
HETATM   22  H10 UNL     1      23.424   2.694  51.968  1.00  0.00     0.316 HD
BRANCH  21  23
HETATM   23  C4  UNL     1      22.852   3.585  50.189  1.00  0.00     0.270 C 
BRANCH  23  24
HETATM   24  C3  UNL     1      24.126   3.212  49.466  1.00  0.00     0.029 C 
BRANCH  24  25
HETATM   25  C2  UNL     1      25.277   3.866  50.232  1.00  0.00    -0.003 C 
HETATM   26  C1  UNL     1      26.401   2.871  50.394  1.00  0.00     0.005 C 
ENDBRANCH  24  25
ENDBRANCH  23  24
ENDBRANCH  21  23
ENDBRANCH  20  21
ENDBRANCH   1  20
TORSDOF 7
ENDMDL
MODEL 4
REMARK VINA RESULT:      -7.2      3.347      5.255
REMARK  7 active torsions:
REMARK  status: ('A' for Active; 'I' for Inactive)
REMARK    1  A    between atoms: C2_2  and  C3_3 
REMARK    2  A    between atoms: C3_3  and  C4_4 
REMARK    3  A    between atoms: C4_4  and  N1_5 
REMARK    4  A    between atoms: N1_5  and  C5_6 
REMARK    5  A    between atoms: C5_6  and  C6_7 
REMARK    6  A    between atoms: C10_14  and  N5_15 
REMARK    7  A    between atoms: N5_15  and  C11_16 
ROOT
HETATM    1  C6  UNL     1      26.173  -0.433  53.067  1.00  0.00     0.004 A 
HETATM    2  C7  UNL     1      26.974  -1.553  52.911  1.00  0.00     0.030 A 
HETATM    3  C8  UNL     1      28.290  -1.229  53.157  1.00  0.00     0.119 A 
HETATM    4  N2  UNL     1      28.265   0.079  53.458  1.00  0.00    -0.240 N 
HETATM    5  N3  UNL     1      29.339   0.806  53.768  1.00  0.00    -0.161 NA
HETATM    6  C9  UNL     1      29.199   2.119  54.056  1.00  0.00     0.258 A 
HETATM    7  N4  UNL     1      27.960   2.628  54.013  1.00  0.00    -0.220 NA
HETATM    8  C10 UNL     1      26.877   1.926  53.708  1.00  0.00     0.159 A 
HETATM    9  C17 UNL     1      27.025   0.591  53.416  1.00  0.00     0.112 A 
ENDROOT
BRANCH   8  10
HETATM   10  N5  UNL     1      25.624   2.537  53.691  1.00  0.00    -0.339 N 
HETATM   11  H16 UNL     1      24.935   2.822  54.404  1.00  0.00     0.167 HD
BRANCH  10  12
HETATM   12  C11 UNL     1      24.967   2.948  52.488  1.00  0.00     0.035 A 
HETATM   13  C12 UNL     1      25.621   2.871  51.266  1.00  0.00     0.032 A 
HETATM   14  C13 UNL     1      25.046   3.226  50.065  1.00  0.00     0.046 A 
HETATM   15  C14 UNL     1      23.752   3.690  50.034  1.00  0.00     0.138 A 
HETATM   16  F1  UNL     1      23.134   4.055  48.886  1.00  0.00    -0.204 F 
HETATM   17  C15 UNL     1      23.041   3.794  51.202  1.00  0.00     0.074 A 
HETATM   18 CL1  UNL     1      21.376   4.377  51.277  1.00  0.00    -0.081 Cl
HETATM   19  C16 UNL     1      23.662   3.429  52.351  1.00  0.00     0.056 A 
ENDBRANCH  10  12
ENDBRANCH   8  10
BRANCH   1  20
HETATM   20  C5  UNL     1      24.700  -0.363  52.885  1.00  0.00     0.310 C 
BRANCH  20  21
HETATM   21  N1  UNL     1      24.103  -0.654  54.159  1.00  0.00     0.087 N 
HETATM   22  H10 UNL     1      24.370   0.126  54.799  1.00  0.00     0.316 HD
BRANCH  21  23
HETATM   23  C4  UNL     1      22.681  -0.858  54.120  1.00  0.00     0.270 C 
BRANCH  23  24
HETATM   24  C3  UNL     1      22.014   0.416  53.655  1.00  0.00     0.029 C 
BRANCH  24  25
HETATM   25  C2  UNL     1      20.983   0.016  52.597  1.00  0.00    -0.003 C 
HETATM   26  C1  UNL     1      21.469   0.449  51.235  1.00  0.00     0.005 C 
ENDBRANCH  24  25
ENDBRANCH  23  24
ENDBRANCH  21  23
ENDBRANCH  20  21
ENDBRANCH   1  20
TORSDOF 7
ENDMDL
MODEL 5
REMARK VINA RESULT:      -7.1      3.760      7.047
REMARK  7 active torsions:
REMARK  status: ('A' for Active; 'I' for Inactive)
REMARK    1  A    between atoms: C2_2  and  C3_3 
REMARK    2  A    between atoms: C3_3  and  C4_4 
REMARK    3  A    between atoms: C4_4  and  N1_5 
REMARK    4  A    between atoms: N1_5  and  C5_6 
REMARK    5  A    between atoms: C5_6  and  C6_7 
REMARK    6  A    between atoms: C10_14  and  N5_15 
REMARK    7  A    between atoms: N5_15  and  C11_16 
ROOT
HETATM    1  C6  UNL     1      25.174   0.084  53.991  1.00  0.00     0.004 A 
HETATM    2  C7  UNL     1      25.590  -0.609  55.117  1.00  0.00     0.030 A 
HETATM    3  C8  UNL     1      24.528  -1.290  55.670  1.00  0.00     0.119 A 
HETATM    4  N2  UNL     1      23.489  -1.001  54.872  1.00  0.00    -0.240 N 
HETATM    5  N3  UNL     1      22.249  -1.461  55.045  1.00  0.00    -0.161 NA
HETATM    6  C9  UNL     1      21.276  -1.106  54.177  1.00  0.00     0.258 A 
HETATM    7  N4  UNL     1      21.619  -0.293  53.168  1.00  0.00    -0.220 NA
HETATM    8  C10 UNL     1      22.844   0.177  52.976  1.00  0.00     0.159 A 
HETATM    9  C17 UNL     1      23.830  -0.187  53.861  1.00  0.00     0.112 A 
ENDROOT
BRANCH   8  10
HETATM   10  N5  UNL     1      23.113   1.018  51.895  1.00  0.00    -0.339 N 
HETATM   11  H16 UNL     1      23.605   0.920  50.994  1.00  0.00     0.167 HD
BRANCH  10  12
HETATM   12  C11 UNL     1      22.680   2.380  51.833  1.00  0.00     0.035 A 
HETATM   13  C12 UNL     1      23.474   3.396  52.348  1.00  0.00     0.032 A 
HETATM   14  C13 UNL     1      23.134   4.731  52.303  1.00  0.00     0.046 A 
HETATM   15  C14 UNL     1      21.948   5.118  51.726  1.00  0.00     0.138 A 
HETATM   16  F1  UNL     1      21.560   6.413  51.654  1.00  0.00    -0.204 F 
HETATM   17  C15 UNL     1      21.111   4.171  51.196  1.00  0.00     0.074 A 
HETATM   18 CL1  UNL     1      19.566   4.558  50.433  1.00  0.00    -0.081 Cl
HETATM   19  C16 UNL     1      21.501   2.875  51.270  1.00  0.00     0.056 A 
ENDBRANCH  10  12
ENDBRANCH   8  10
BRANCH   1  20
HETATM   20  C5  UNL     1      26.014   0.943  53.117  1.00  0.00     0.310 C 
BRANCH  20  21
HETATM   21  N1  UNL     1      26.803   1.780  53.977  1.00  0.00     0.087 N 
HETATM   22  H10 UNL     1      26.654   1.431  54.950  1.00  0.00     0.316 HD
BRANCH  21  23
HETATM   23  C4  UNL     1      28.196   1.847  53.634  1.00  0.00     0.270 C 
BRANCH  23  24
HETATM   24  C3  UNL     1      28.962   0.868  54.494  1.00  0.00     0.029 C 
BRANCH  24  25
HETATM   25  C2  UNL     1      29.797   0.005  53.546  1.00  0.00    -0.003 C 
HETATM   26  C1  UNL     1      29.123  -1.334  53.362  1.00  0.00     0.005 C 
ENDBRANCH  24  25
ENDBRANCH  23  24
ENDBRANCH  21  23
ENDBRANCH  20  21
ENDBRANCH   1  20
TORSDOF 7
ENDMDL
MODEL 6
REMARK VINA RESULT:      -7.0      2.850      5.360
REMARK  7 active torsions:
REMARK  status: ('A' for Active; 'I' for Inactive)
REMARK    1  A    between atoms: C2_2  and  C3_3 
REMARK    2  A    between atoms: C3_3  and  C4_4 
REMARK    3  A    between atoms: C4_4  and  N1_5 
REMARK    4  A    between atoms: N1_5  and  C5_6 
REMARK    5  A    between atoms: C5_6  and  C6_7 
REMARK    6  A    between atoms: C10_14  and  N5_15 
REMARK    7  A    between atoms: N5_15  and  C11_16 
ROOT
HETATM    1  C6  UNL     1      26.055   3.268  50.679  1.00  0.00     0.004 A 
HETATM    2  C7  UNL     1      26.460   3.840  49.482  1.00  0.00     0.030 A 
HETATM    3  C8  UNL     1      25.552   4.799  49.089  1.00  0.00     0.119 A 
HETATM    4  N2  UNL     1      24.616   4.793  50.051  1.00  0.00    -0.240 N 
HETATM    5  N3  UNL     1      23.541   5.582  50.066  1.00  0.00    -0.161 NA
HETATM    6  C9  UNL     1      22.660   5.493  51.088  1.00  0.00     0.258 A 
HETATM    7  N4  UNL     1      22.924   4.598  52.050  1.00  0.00    -0.220 NA
HETATM    8  C10 UNL     1      23.985   3.804  52.056  1.00  0.00     0.159 A 
HETATM    9  C17 UNL     1      24.878   3.897  51.015  1.00  0.00     0.112 A 
ENDROOT
BRANCH   8  10
HETATM   10  N5  UNL     1      24.182   2.902  53.102  1.00  0.00    -0.339 N 
HETATM   11  H16 UNL     1      24.726   2.900  53.978  1.00  0.00     0.167 HD
BRANCH  10  12
HETATM   12  C11 UNL     1      23.562   1.613  53.154  1.00  0.00     0.035 A 
HETATM   13  C12 UNL     1      24.294   0.493  53.523  1.00  0.00     0.032 A 
HETATM   14  C13 UNL     1      23.759  -0.774  53.618  1.00  0.00     0.046 A 
HETATM   15  C14 UNL     1      22.429  -0.981  53.338  1.00  0.00     0.138 A 
HETATM   16  F1  UNL     1      21.849  -2.201  53.413  1.00  0.00    -0.204 F 
HETATM   17  C15 UNL     1      21.642   0.078  52.967  1.00  0.00     0.074 A 
HETATM   18 CL1  UNL     1      19.924  -0.074  52.586  1.00  0.00    -0.081 Cl
HETATM   19  C16 UNL     1      22.226   1.300  52.892  1.00  0.00     0.056 A 
ENDBRANCH  10  12
ENDBRANCH   8  10
BRANCH   1  20
HETATM   20  C5  UNL     1      26.755   2.194  51.429  1.00  0.00     0.310 C 
BRANCH  20  21
HETATM   21  N1  UNL     1      27.590   2.835  52.407  1.00  0.00     0.087 N 
HETATM   22  H10 UNL     1      27.030   3.621  52.808  1.00  0.00     0.316 HD
BRANCH  21  23
HETATM   23  C4  UNL     1      28.100   1.959  53.425  1.00  0.00     0.270 C 
BRANCH  23  24
HETATM   24  C3  UNL     1      27.912   0.527  52.980  1.00  0.00     0.029 C 
BRANCH  24  25
HETATM   25  C2  UNL     1      28.533  -0.358  54.063  1.00  0.00    -0.003 C 
HETATM   26  C1  UNL     1      29.484  -1.340  53.422  1.00  0.00     0.005 C 
ENDBRANCH  24  25
ENDBRANCH  23  24
ENDBRANCH  21  23
ENDBRANCH  20  21
ENDBRANCH   1  20
TORSDOF 7
ENDMDL
MODEL 7
REMARK VINA RESULT:      -7.0      3.658      6.552
REMARK  7 active torsions:
REMARK  status: ('A' for Active; 'I' for Inactive)
REMARK    1  A    between atoms: C2_2  and  C3_3 
REMARK    2  A    between atoms: C3_3  and  C4_4 
REMARK    3  A    between atoms: C4_4  and  N1_5 
REMARK    4  A    between atoms: N1_5  and  C5_6 
REMARK    5  A    between atoms: C5_6  and  C6_7 
REMARK    6  A    between atoms: C10_14  and  N5_15 
REMARK    7  A    between atoms: N5_15  and  C11_16 
ROOT
HETATM    1  C6  UNL     1      25.485   1.192  52.798  1.00  0.00     0.004 A 
HETATM    2  C7  UNL     1      25.419   0.304  53.861  1.00  0.00     0.030 A 
HETATM    3  C8  UNL     1      24.180  -0.297  53.894  1.00  0.00     0.119 A 
HETATM    4  N2  UNL     1      23.518   0.234  52.855  1.00  0.00    -0.240 N 
HETATM    5  N3  UNL     1      22.266  -0.076  52.516  1.00  0.00    -0.161 NA
HETATM    6  C9  UNL     1      21.695   0.521  51.446  1.00  0.00     0.258 A 
HETATM    7  N4  UNL     1      22.436   1.409  50.770  1.00  0.00    -0.220 NA
HETATM    8  C10 UNL     1      23.682   1.732  51.087  1.00  0.00     0.159 A 
HETATM    9  C17 UNL     1      24.259   1.124  52.176  1.00  0.00     0.112 A 
ENDROOT
BRANCH   8  10
HETATM   10  N5  UNL     1      24.383   2.667  50.324  1.00  0.00    -0.339 N 
HETATM   11  H16 UNL     1      25.054   2.622  49.542  1.00  0.00     0.167 HD
BRANCH  10  12
HETATM   12  C11 UNL     1      24.272   4.080  50.518  1.00  0.00     0.035 A 
HETATM   13  C12 UNL     1      23.173   4.618  51.172  1.00  0.00     0.032 A 
HETATM   14  C13 UNL     1      23.009   5.965  51.416  1.00  0.00     0.046 A 
HETATM   15  C14 UNL     1      23.968   6.859  51.002  1.00  0.00     0.138 A 
HETATM   16  F1  UNL     1      23.863   8.192  51.212  1.00  0.00    -0.204 F 
HETATM   17  C15 UNL     1      25.083   6.402  50.348  1.00  0.00     0.074 A 
HETATM   18 CL1  UNL     1      26.375   7.461  49.774  1.00  0.00    -0.081 Cl
HETATM   19  C16 UNL     1      25.187   5.067  50.139  1.00  0.00     0.056 A 
ENDBRANCH  10  12
ENDBRANCH   8  10
BRANCH   1  20
HETATM   20  C5  UNL     1      26.645   2.040  52.423  1.00  0.00     0.310 C 
BRANCH  20  21
HETATM   21  N1  UNL     1      27.282   2.452  53.642  1.00  0.00     0.087 N 
HETATM   22  H10 UNL     1      26.803   1.940  54.416  1.00  0.00     0.316 HD
BRANCH  21  23
HETATM   23  C4  UNL     1      28.706   2.263  53.668  1.00  0.00     0.270 C 
BRANCH  23  24
HETATM   24  C3  UNL     1      29.027   1.070  54.539  1.00  0.00     0.029 C 
BRANCH  24  25
HETATM   25  C2  UNL     1      29.736   0.048  53.647  1.00  0.00    -0.003 C 
HETATM   26  C1  UNL     1      28.774  -1.060  53.293  1.00  0.00     0.005 C 
ENDBRANCH  24  25
ENDBRANCH  23  24
ENDBRANCH  21  23
ENDBRANCH  20  21
ENDBRANCH   1  20
TORSDOF 7
ENDMDL
MODEL 8
REMARK VINA RESULT:      -7.0      3.470      6.163
REMARK  7 active torsions:
REMARK  status: ('A' for Active; 'I' for Inactive)
REMARK    1  A    between atoms: C2_2  and  C3_3 
REMARK    2  A    between atoms: C3_3  and  C4_4 
REMARK    3  A    between atoms: C4_4  and  N1_5 
REMARK    4  A    between atoms: N1_5  and  C5_6 
REMARK    5  A    between atoms: C5_6  and  C6_7 
REMARK    6  A    between atoms: C10_14  and  N5_15 
REMARK    7  A    between atoms: N5_15  and  C11_16 
ROOT
HETATM    1  C6  UNL     1      23.080  -0.459  53.551  1.00  0.00     0.004 A 
HETATM    2  C7  UNL     1      22.639  -1.204  54.634  1.00  0.00     0.030 A 
HETATM    3  C8  UNL     1      21.265  -1.290  54.618  1.00  0.00     0.119 A 
HETATM    4  N2  UNL     1      20.895  -0.600  53.528  1.00  0.00    -0.240 N 
HETATM    5  N3  UNL     1      19.634  -0.431  53.130  1.00  0.00    -0.161 NA
HETATM    6  C9  UNL     1      19.375   0.284  52.012  1.00  0.00     0.258 A 
HETATM    7  N4  UNL     1      20.424   0.793  51.351  1.00  0.00    -0.220 NA
HETATM    8  C10 UNL     1      21.686   0.637  51.727  1.00  0.00     0.159 A 
HETATM    9  C17 UNL     1      21.945  -0.090  52.864  1.00  0.00     0.112 A 
ENDROOT
BRANCH   8  10
HETATM   10  N5  UNL     1      22.718   1.200  50.976  1.00  0.00    -0.339 N 
HETATM   11  H16 UNL     1      23.375   0.859  50.258  1.00  0.00     0.167 HD
BRANCH  10  12
HETATM   12  C11 UNL     1      23.108   2.573  51.082  1.00  0.00     0.035 A 
HETATM   13  C12 UNL     1      23.050   3.230  52.304  1.00  0.00     0.032 A 
HETATM   14  C13 UNL     1      23.430   4.542  52.487  1.00  0.00     0.046 A 
HETATM   15  C14 UNL     1      23.898   5.276  51.423  1.00  0.00     0.138 A 
HETATM   16  F1  UNL     1      24.284   6.568  51.541  1.00  0.00    -0.204 F 
HETATM   17  C15 UNL     1      23.983   4.695  50.184  1.00  0.00     0.074 A 
HETATM   18 CL1  UNL     1      24.569   5.545  48.751  1.00  0.00    -0.081 Cl
HETATM   19  C16 UNL     1      23.595   3.401  50.068  1.00  0.00     0.056 A 
ENDBRANCH  10  12
ENDBRANCH   8  10
BRANCH   1  20
HETATM   20  C5  UNL     1      24.489  -0.131  53.214  1.00  0.00     0.310 C 
BRANCH  20  21
HETATM   21  N1  UNL     1      25.282  -0.430  54.373  1.00  0.00     0.087 N 
HETATM   22  H10 UNL     1      25.591  -1.423  54.275  1.00  0.00     0.316 HD
BRANCH  21  23
HETATM   23  C4  UNL     1      26.388   0.461  54.589  1.00  0.00     0.270 C 
BRANCH  23  24
HETATM   24  C3  UNL     1      26.100   1.775  53.899  1.00  0.00     0.029 C 
BRANCH  24  25
HETATM   25  C2  UNL     1      27.303   2.077  53.002  1.00  0.00    -0.003 C 
HETATM   26  C1  UNL     1      26.825   2.329  51.593  1.00  0.00     0.005 C 
ENDBRANCH  24  25
ENDBRANCH  23  24
ENDBRANCH  21  23
ENDBRANCH  20  21
ENDBRANCH   1  20
TORSDOF 7
ENDMDL
MODEL 9
REMARK VINA RESULT:      -6.8      3.127      5.530
REMARK  7 active torsions:
REMARK  status: ('A' for Active; 'I' for Inactive)
REMARK    1  A    between atoms: C2_2  and  C3_3 
REMARK    2  A    between atoms: C3_3  and  C4_4 
REMARK    3  A    between atoms: C4_4  and  N1_5 
REMARK    4  A    between atoms: N1_5  and  C5_6 
REMARK    5  A    between atoms: C5_6  and  C6_7 
REMARK    6  A    between atoms: C10_14  and  N5_15 
REMARK    7  A    between atoms: N5_15  and  C11_16 
ROOT
HETATM    1  C6  UNL     1      26.359   4.016  49.992  1.00  0.00     0.004 A 
HETATM    2  C7  UNL     1      27.168   4.450  48.953  1.00  0.00     0.030 A 
HETATM    3  C8  UNL     1      26.826   5.736  48.597  1.00  0.00     0.119 A 
HETATM    4  N2  UNL     1      25.819   6.059  49.423  1.00  0.00    -0.240 N 
HETATM    5  N3  UNL     1      25.185   7.232  49.421  1.00  0.00    -0.161 NA
HETATM    6  C9  UNL     1      24.182   7.452  50.301  1.00  0.00     0.258 A 
HETATM    7  N4  UNL     1      23.876   6.457  51.145  1.00  0.00    -0.220 NA
HETATM    8  C10 UNL     1      24.492   5.284  51.165  1.00  0.00     0.159 A 
HETATM    9  C17 UNL     1      25.511   5.064  50.269  1.00  0.00     0.112 A 
ENDROOT
BRANCH   8  10
HETATM   10  N5  UNL     1      24.109   4.304  52.082  1.00  0.00    -0.339 N 
HETATM   11  H16 UNL     1      24.238   4.155  53.094  1.00  0.00     0.167 HD
BRANCH  10  12
HETATM   12  C11 UNL     1      23.342   3.151  51.723  1.00  0.00     0.035 A 
HETATM   13  C12 UNL     1      22.575   3.146  50.567  1.00  0.00     0.032 A 
HETATM   14  C13 UNL     1      21.830   2.065  50.146  1.00  0.00     0.046 A 
HETATM   15  C14 UNL     1      21.819   0.908  50.889  1.00  0.00     0.138 A 
HETATM   16  F1  UNL     1      21.106  -0.185  50.527  1.00  0.00    -0.204 F 
HETATM   17  C15 UNL     1      22.552   0.838  52.045  1.00  0.00     0.074 A 
HETATM   18 CL1  UNL     1      22.609  -0.597  53.074  1.00  0.00    -0.081 Cl
HETATM   19  C16 UNL     1      23.265   1.933  52.405  1.00  0.00     0.056 A 
ENDBRANCH  10  12
ENDBRANCH   8  10
BRANCH   1  20
HETATM   20  C5  UNL     1      26.405   2.688  50.656  1.00  0.00     0.310 C 
BRANCH  20  21
HETATM   21  N1  UNL     1      27.171   2.844  51.861  1.00  0.00     0.087 N 
HETATM   22  H10 UNL     1      26.800   3.692  52.343  1.00  0.00     0.316 HD
BRANCH  21  23
HETATM   23  C4  UNL     1      27.177   1.691  52.720  1.00  0.00     0.270 C 
BRANCH  23  24
HETATM   24  C3  UNL     1      26.576   0.521  51.975  1.00  0.00     0.029 C 
BRANCH  24  25
HETATM   25  C2  UNL     1      26.307  -0.572  53.011  1.00  0.00    -0.003 C 
HETATM   26  C1  UNL     1      26.905  -1.873  52.533  1.00  0.00     0.005 C 
ENDBRANCH  24  25
ENDBRANCH  23  24
ENDBRANCH  21  23
ENDBRANCH  20  21
ENDBRANCH   1  20
TORSDOF 7
ENDMDL
