MODEL 1
REMARK VINA RESULT:      -9.1      0.000      0.000
REMARK  5 active torsions:
REMARK  status: ('A' for Active; 'I' for Inactive)
REMARK    1  A    between atoms: O1_2  and  C2_3 
REMARK    2  A    between atoms: C2_3  and  C3_4 
REMARK    3  A    between atoms: C5_6  and  O2_7 
REMARK    4  A    between atoms: C12_15  and  N2_16 
REMARK    5  A    between atoms: N2_16  and  C13_17 
ROOT
HETATM    1  C3  UNL     1      25.848  -0.089  53.234  1.00  0.00    -0.021 A 
HETATM    2  C4  UNL     1      24.821  -0.825  53.836  1.00  0.00     0.046 A 
HETATM    3  C5  UNL     1      23.491  -0.462  53.851  1.00  0.00     0.071 A 
HETATM    4  C7  UNL     1      23.133   0.715  53.230  1.00  0.00     0.074 A 
HETATM    5  C8  UNL     1      24.138   1.455  52.629  1.00  0.00     0.089 A 
HETATM    6  C9  UNL     1      25.490   1.092  52.609  1.00  0.00     0.002 A 
HETATM    7  C10 UNL     1      26.688   1.702  52.053  1.00  0.00     0.162 C 
HETATM    8  N1  UNL     1      26.514   2.941  51.351  1.00  0.00    -0.379 N 
HETATM    9  C11 UNL     1      25.420   3.539  50.661  1.00  0.00     0.129 A 
HETATM   10  C12 UNL     1      25.833   4.316  49.617  1.00  0.00     0.160 A 
HETATM   11  N3  UNL     1      24.836   4.899  48.970  1.00  0.00    -0.222 NA
HETATM   12  C19 UNL     1      23.532   4.794  49.239  1.00  0.00     0.238 A 
HETATM   13  N4  UNL     1      23.147   4.011  50.288  1.00  0.00    -0.215 NA
HETATM   14  C20 UNL     1      24.093   3.360  51.027  1.00  0.00     0.202 A 
HETATM   15  O3  UNL     1      23.538   2.593  52.072  1.00  0.00    -0.289 OA
HETATM   16  H13 UNL     1      27.362   3.586  51.318  1.00  0.00     0.160 HD
ENDROOT
BRANCH  10  17
HETATM   17  N2  UNL     1      27.183   4.474  49.258  1.00  0.00    -0.339 N 
HETATM   18  H14 UNL     1      28.000   3.856  49.408  1.00  0.00     0.167 HD
BRANCH  17  19
HETATM   19  C13 UNL     1      27.732   5.575  48.554  1.00  0.00     0.035 A 
HETATM   20  C14 UNL     1      29.058   5.552  48.190  1.00  0.00     0.029 A 
HETATM   21  C15 UNL     1      29.644   6.580  47.486  1.00  0.00     0.004 A 
HETATM   22  C16 UNL     1      28.945   7.694  47.103  1.00  0.00     0.019 A 
HETATM   23  C17 UNL     1      27.618   7.762  47.444  1.00  0.00     0.013 A 
HETATM   24 BR1  UNL     1      26.536   9.256  46.972  1.00  0.00    -0.051 Br
HETATM   25  C18 UNL     1      27.074   6.718  48.144  1.00  0.00     0.048 A 
ENDBRANCH  17  19
ENDBRANCH  10  17
BRANCH   1  26
HETATM   26  C2  UNL     1      27.227  -0.597  53.293  1.00  0.00     0.206 C 
BRANCH  26  27
HETATM   27  O1  UNL     1      27.728  -0.536  54.602  1.00  0.00    -0.391 OA
HETATM   28  C1  UNL     1      29.031  -0.013  54.481  1.00  0.00     0.201 C 
ENDBRANCH  26  27
ENDBRANCH   1  26
BRANCH   3  29
HETATM   29  O2  UNL     1      22.537  -1.254  54.474  1.00  0.00    -0.356 OA
HETATM   30  C6  UNL     1      21.170  -1.164  54.220  1.00  0.00     0.210 C 
ENDBRANCH   3  29
TORSDOF 5
ENDMDL
MODEL 2
REMARK VINA RESULT:      -8.7      2.010      2.505
REMARK  5 active torsions:
REMARK  status: ('A' for Active; 'I' for Inactive)
REMARK    1  A    between atoms: O1_2  and  C2_3 
REMARK    2  A    between atoms: C2_3  and  C3_4 
REMARK    3  A    between atoms: C5_6  and  O2_7 
REMARK    4  A    between atoms: C12_15  and  N2_16 
REMARK    5  A    between atoms: N2_16  and  C13_17 
ROOT
HETATM    1  C3  UNL     1      24.755   1.091  53.362  1.00  0.00    -0.021 A 
HETATM    2  C4  UNL     1      24.094  -0.142  53.427  1.00  0.00     0.046 A 
HETATM    3  C5  UNL     1      22.750  -0.333  53.188  1.00  0.00     0.071 A 
HETATM    4  C7  UNL     1      21.987   0.767  52.859  1.00  0.00     0.074 A 
HETATM    5  C8  UNL     1      22.626   1.994  52.790  1.00  0.00     0.089 A 
HETATM    6  C9  UNL     1      23.990   2.195  53.032  1.00  0.00     0.002 A 
HETATM    7  C10 UNL     1      24.852   3.367  53.018  1.00  0.00     0.162 C 
HETATM    8  N1  UNL     1      24.235   4.617  52.683  1.00  0.00    -0.379 N 
HETATM    9  C11 UNL     1      23.083   4.978  51.926  1.00  0.00     0.129 A 
HETATM   10  C12 UNL     1      23.233   6.182  51.301  1.00  0.00     0.160 A 
HETATM   11  N3  UNL     1      22.168   6.550  50.606  1.00  0.00    -0.222 NA
HETATM   12  C19 UNL     1      21.023   5.875  50.472  1.00  0.00     0.238 A 
HETATM   13  N4  UNL     1      20.899   4.674  51.108  1.00  0.00    -0.215 NA
HETATM   14  C20 UNL     1      21.939   4.196  51.854  1.00  0.00     0.202 A 
HETATM   15  O3  UNL     1      21.658   2.946  52.445  1.00  0.00    -0.289 OA
HETATM   16  H13 UNL     1      24.707   5.493  53.066  1.00  0.00     0.160 HD
ENDROOT
BRANCH  10  17
HETATM   17  N2  UNL     1      24.406   6.953  51.380  1.00  0.00    -0.339 N 
HETATM   18  H14 UNL     1      24.743   7.598  52.117  1.00  0.00     0.167 HD
BRANCH  17  19
HETATM   19  C13 UNL     1      25.443   6.989  50.415  1.00  0.00     0.035 A 
HETATM   20  C14 UNL     1      25.669   5.886  49.624  1.00  0.00     0.029 A 
HETATM   21  C15 UNL     1      26.646   5.867  48.654  1.00  0.00     0.004 A 
HETATM   22  C16 UNL     1      27.458   6.943  48.414  1.00  0.00     0.019 A 
HETATM   23  C17 UNL     1      27.271   8.066  49.179  1.00  0.00     0.013 A 
HETATM   24 BR1  UNL     1      28.333   9.630  48.945  1.00  0.00    -0.051 Br
HETATM   25  C18 UNL     1      26.287   8.044  50.133  1.00  0.00     0.048 A 
ENDBRANCH  17  19
ENDBRANCH  10  17
BRANCH   1  26
HETATM   26  C2  UNL     1      26.198   1.149  53.641  1.00  0.00     0.206 C 
BRANCH  26  27
HETATM   27  O1  UNL     1      26.472   0.740  54.954  1.00  0.00    -0.391 OA
HETATM   28  C1  UNL     1      27.759   0.168  54.909  1.00  0.00     0.201 C 
ENDBRANCH  26  27
ENDBRANCH   1  26
BRANCH   3  29
HETATM   29  O2  UNL     1      22.178  -1.594  53.276  1.00  0.00    -0.356 OA
HETATM   30  C6  UNL     1      21.273  -1.966  54.269  1.00  0.00     0.210 C 
ENDBRANCH   3  29
TORSDOF 5
ENDMDL
MODEL 3
REMARK VINA RESULT:      -8.4      2.266      4.733
REMARK  5 active torsions:
REMARK  status: ('A' for Active; 'I' for Inactive)
REMARK    1  A    between atoms: O1_2  and  C2_3 
REMARK    2  A    between atoms: C2_3  and  C3_4 
REMARK    3  A    between atoms: C5_6  and  O2_7 
REMARK    4  A    between atoms: C12_15  and  N2_16 
REMARK    5  A    between atoms: N2_16  and  C13_17 
ROOT
HETATM    1  C3  UNL     1      24.329   0.545  53.050  1.00  0.00    -0.021 A 
HETATM    2  C4  UNL     1      25.314  -0.039  53.854  1.00  0.00     0.046 A 
HETATM    3  C5  UNL     1      26.673   0.104  53.671  1.00  0.00     0.071 A 
HETATM    4  C7  UNL     1      27.107   0.878  52.617  1.00  0.00     0.074 A 
HETATM    5  C8  UNL     1      26.145   1.464  51.811  1.00  0.00     0.089 A 
HETATM    6  C9  UNL     1      24.763   1.323  51.992  1.00  0.00     0.002 A 
HETATM    7  C10 UNL     1      23.599   1.834  51.285  1.00  0.00     0.162 C 
HETATM    8  N1  UNL     1      23.850   2.677  50.153  1.00  0.00    -0.379 N 
HETATM    9  C11 UNL     1      24.933   3.523  49.774  1.00  0.00     0.129 A 
HETATM   10  C12 UNL     1      24.514   4.604  49.053  1.00  0.00     0.160 A 
HETATM   11  N3  UNL     1      25.503   5.396  48.671  1.00  0.00    -0.222 NA
HETATM   12  C19 UNL     1      26.805   5.234  48.922  1.00  0.00     0.238 A 
HETATM   13  N4  UNL     1      27.197   4.146  49.644  1.00  0.00    -0.215 NA
HETATM   14  C20 UNL     1      26.258   3.259  50.091  1.00  0.00     0.202 A 
HETATM   15  O3  UNL     1      26.819   2.191  50.821  1.00  0.00    -0.289 OA
HETATM   16  H13 UNL     1      23.089   2.704  49.407  1.00  0.00     0.160 HD
ENDROOT
BRANCH  10  17
HETATM   17  N2  UNL     1      23.163   4.856  48.751  1.00  0.00    -0.339 N 
HETATM   18  H14 UNL     1      22.351   5.021  49.372  1.00  0.00     0.167 HD
BRANCH  17  19
HETATM   19  C13 UNL     1      22.608   4.963  47.452  1.00  0.00     0.035 A 
HETATM   20  C14 UNL     1      22.032   3.858  46.870  1.00  0.00     0.029 A 
HETATM   21  C15 UNL     1      21.456   3.904  45.620  1.00  0.00     0.004 A 
HETATM   22  C16 UNL     1      21.422   5.051  44.873  1.00  0.00     0.019 A 
HETATM   23  C17 UNL     1      21.986   6.179  45.412  1.00  0.00     0.013 A 
HETATM   24 BR1  UNL     1      22.005   7.838  44.476  1.00  0.00    -0.051 Br
HETATM   25  C18 UNL     1      22.548   6.091  46.658  1.00  0.00     0.048 A 
ENDBRANCH  17  19
ENDBRANCH  10  17
BRANCH   1  26
HETATM   26  C2  UNL     1      22.911   0.310  53.363  1.00  0.00     0.206 C 
BRANCH  26  27
HETATM   27  O1  UNL     1      22.635  -1.064  53.432  1.00  0.00    -0.391 OA
HETATM   28  C1  UNL     1      21.810  -1.225  54.563  1.00  0.00     0.201 C 
ENDBRANCH  26  27
ENDBRANCH   1  26
BRANCH   3  29
HETATM   29  O2  UNL     1      27.581  -0.513  54.519  1.00  0.00    -0.356 OA
HETATM   30  C6  UNL     1      28.925  -0.154  54.609  1.00  0.00     0.210 C 
ENDBRANCH   3  29
TORSDOF 5
ENDMDL
MODEL 4
REMARK VINA RESULT:      -8.3      3.362      6.625
REMARK  5 active torsions:
REMARK  status: ('A' for Active; 'I' for Inactive)
REMARK    1  A    between atoms: O1_2  and  C2_3 
REMARK    2  A    between atoms: C2_3  and  C3_4 
REMARK    3  A    between atoms: C5_6  and  O2_7 
REMARK    4  A    between atoms: C12_15  and  N2_16 
REMARK    5  A    between atoms: N2_16  and  C13_17 
ROOT
HETATM    1  C3  UNL     1      26.306   1.425  52.398  1.00  0.00    -0.021 A 
HETATM    2  C4  UNL     1      27.406   0.592  52.630  1.00  0.00     0.046 A 
HETATM    3  C5  UNL     1      27.371  -0.583  53.351  1.00  0.00     0.071 A 
HETATM    4  C7  UNL     1      26.165  -0.976  53.892  1.00  0.00     0.074 A 
HETATM    5  C8  UNL     1      25.066  -0.162  53.671  1.00  0.00     0.089 A 
HETATM    6  C9  UNL     1      25.095   1.032  52.939  1.00  0.00     0.002 A 
HETATM    7  C10 UNL     1      24.088   2.022  52.590  1.00  0.00     0.162 C 
HETATM    8  N1  UNL     1      22.755   1.779  53.058  1.00  0.00    -0.379 N 
HETATM    9  C11 UNL     1      22.032   0.603  53.411  1.00  0.00     0.129 A 
HETATM   10  C12 UNL     1      20.699   0.716  53.139  1.00  0.00     0.160 A 
HETATM   11  N3  UNL     1      20.001  -0.356  53.475  1.00  0.00    -0.222 NA
HETATM   12  C19 UNL     1      20.469  -1.480  54.027  1.00  0.00     0.238 A 
HETATM   13  N4  UNL     1      21.805  -1.568  54.288  1.00  0.00    -0.215 NA
HETATM   14  C20 UNL     1      22.623  -0.517  53.981  1.00  0.00     0.202 A 
HETATM   15  O3  UNL     1      23.972  -0.760  54.309  1.00  0.00    -0.289 OA
HETATM   16  H13 UNL     1      22.137   2.638  53.188  1.00  0.00     0.160 HD
ENDROOT
BRANCH  10  17
HETATM   17  N2  UNL     1      20.125   1.858  52.552  1.00  0.00    -0.339 N 
HETATM   18  H14 UNL     1      19.563   2.622  52.967  1.00  0.00     0.167 HD
BRANCH  17  19
HETATM   19  C13 UNL     1      20.222   2.228  51.187  1.00  0.00     0.035 A 
HETATM   20  C14 UNL     1      20.455   1.259  50.239  1.00  0.00     0.029 A 
HETATM   21  C15 UNL     1      20.538   1.552  48.896  1.00  0.00     0.004 A 
HETATM   22  C16 UNL     1      20.395   2.827  48.417  1.00  0.00     0.019 A 
HETATM   23  C17 UNL     1      20.162   3.827  49.325  1.00  0.00     0.013 A 
HETATM   24 BR1  UNL     1      19.945   5.641  48.788  1.00  0.00    -0.051 Br
HETATM   25  C18 UNL     1      20.086   3.493  50.652  1.00  0.00     0.048 A 
ENDBRANCH  17  19
ENDBRANCH  10  17
BRANCH   1  26
HETATM   26  C2  UNL     1      26.487   2.652  51.606  1.00  0.00     0.206 C 
BRANCH  26  27
HETATM   27  O1  UNL     1      26.854   2.347  50.287  1.00  0.00    -0.391 OA
HETATM   28  C1  UNL     1      26.518   3.488  49.530  1.00  0.00     0.201 C 
ENDBRANCH  26  27
ENDBRANCH   1  26
BRANCH   3  29
HETATM   29  O2  UNL     1      28.513  -1.349  53.532  1.00  0.00    -0.356 OA
HETATM   30  C6  UNL     1      29.805  -0.824  53.536  1.00  0.00     0.210 C 
ENDBRANCH   3  29
TORSDOF 5
ENDMDL
MODEL 5
REMARK VINA RESULT:      -8.3      4.320      8.040
REMARK  5 active torsions:
REMARK  status: ('A' for Active; 'I' for Inactive)
REMARK    1  A    between atoms: O1_2  and  C2_3 
REMARK    2  A    between atoms: C2_3  and  C3_4 
REMARK    3  A    between atoms: C5_6  and  O2_7 
REMARK    4  A    between atoms: C12_15  and  N2_16 
REMARK    5  A    between atoms: N2_16  and  C13_17 
ROOT
HETATM    1  C3  UNL     1      26.243   1.013  51.966  1.00  0.00    -0.021 A 
HETATM    2  C4  UNL     1      27.361   0.499  52.632  1.00  0.00     0.046 A 
HETATM    3  C5  UNL     1      27.319  -0.234  53.799  1.00  0.00     0.071 A 
HETATM    4  C7  UNL     1      26.087  -0.484  54.364  1.00  0.00     0.074 A 
HETATM    5  C8  UNL     1      24.970   0.018  53.716  1.00  0.00     0.089 A 
HETATM    6  C9  UNL     1      25.005   0.762  52.531  1.00  0.00     0.002 A 
HETATM    7  C10 UNL     1      23.983   1.376  51.697  1.00  0.00     0.162 C 
HETATM    8  N1  UNL     1      22.623   1.212  52.119  1.00  0.00    -0.379 N 
HETATM    9  C11 UNL     1      21.944   0.237  52.905  1.00  0.00     0.129 A 
HETATM   10  C12 UNL     1      20.649   0.066  52.509  1.00  0.00     0.160 A 
HETATM   11  N3  UNL     1      19.990  -0.821  53.237  1.00  0.00    -0.222 NA
HETATM   12  C19 UNL     1      20.463  -1.526  54.269  1.00  0.00     0.238 A 
HETATM   13  N4  UNL     1      21.761  -1.336  54.644  1.00  0.00    -0.215 NA
HETATM   14  C20 UNL     1      22.536  -0.442  53.962  1.00  0.00     0.202 A 
HETATM   15  O3  UNL     1      23.850  -0.360  54.468  1.00  0.00    -0.289 OA
HETATM   16  H13 UNL     1      21.937   1.964  51.800  1.00  0.00     0.160 HD
ENDROOT
BRANCH  10  17
HETATM   17  N2  UNL     1      20.074   0.758  51.429  1.00  0.00    -0.339 N 
HETATM   18  H14 UNL     1      20.506   1.180  50.588  1.00  0.00     0.167 HD
BRANCH  17  19
HETATM   19  C13 UNL     1      18.692   1.018  51.250  1.00  0.00     0.035 A 
HETATM   20  C14 UNL     1      17.896   0.065  50.658  1.00  0.00     0.029 A 
HETATM   21  C15 UNL     1      16.544   0.248  50.476  1.00  0.00     0.004 A 
HETATM   22  C16 UNL     1      15.902   1.392  50.872  1.00  0.00     0.019 A 
HETATM   23  C17 UNL     1      16.655   2.371  51.467  1.00  0.00     0.013 A 
HETATM   24 BR1  UNL     1      15.884   4.008  52.062  1.00  0.00    -0.051 Br
HETATM   25  C18 UNL     1      17.997   2.149  51.630  1.00  0.00     0.048 A 
ENDBRANCH  17  19
ENDBRANCH  10  17
BRANCH   1  26
HETATM   26  C2  UNL     1      26.435   1.778  50.724  1.00  0.00     0.206 C 
BRANCH  26  27
HETATM   27  O1  UNL     1      27.035   3.019  50.987  1.00  0.00    -0.391 OA
HETATM   28  C1  UNL     1      26.589   3.877  49.962  1.00  0.00     0.201 C 
ENDBRANCH  26  27
ENDBRANCH   1  26
BRANCH   3  29
HETATM   29  O2  UNL     1      28.481  -0.706  54.393  1.00  0.00    -0.356 OA
HETATM   30  C6  UNL     1      29.655  -0.973  53.692  1.00  0.00     0.210 C 
ENDBRANCH   3  29
TORSDOF 5
ENDMDL
MODEL 6
REMARK VINA RESULT:      -8.2      2.146      4.750
REMARK  5 active torsions:
REMARK  status: ('A' for Active; 'I' for Inactive)
REMARK    1  A    between atoms: O1_2  and  C2_3 
REMARK    2  A    between atoms: C2_3  and  C3_4 
REMARK    3  A    between atoms: C5_6  and  O2_7 
REMARK    4  A    between atoms: C12_15  and  N2_16 
REMARK    5  A    between atoms: N2_16  and  C13_17 
ROOT
HETATM    1  C3  UNL     1      24.511   0.394  53.040  1.00  0.00    -0.021 A 
HETATM    2  C4  UNL     1      25.545  -0.201  53.772  1.00  0.00     0.046 A 
HETATM    3  C5  UNL     1      26.890  -0.030  53.524  1.00  0.00     0.071 A 
HETATM    4  C7  UNL     1      27.258   0.786  52.476  1.00  0.00     0.074 A 
HETATM    5  C8  UNL     1      26.246   1.384  51.742  1.00  0.00     0.089 A 
HETATM    6  C9  UNL     1      24.879   1.215  51.989  1.00  0.00     0.002 A 
HETATM    7  C10 UNL     1      23.672   1.730  51.361  1.00  0.00     0.162 C 
HETATM    8  N1  UNL     1      23.852   2.616  50.248  1.00  0.00    -0.379 N 
HETATM    9  C11 UNL     1      24.901   3.491  49.843  1.00  0.00     0.129 A 
HETATM   10  C12 UNL     1      24.430   4.589  49.183  1.00  0.00     0.160 A 
HETATM   11  N3  UNL     1      25.387   5.410  48.779  1.00  0.00    -0.222 NA
HETATM   12  C19 UNL     1      26.703   5.261  48.957  1.00  0.00     0.238 A 
HETATM   13  N4  UNL     1      27.147   4.154  49.620  1.00  0.00    -0.215 NA
HETATM   14  C20 UNL     1      26.245   3.238  50.082  1.00  0.00     0.202 A 
HETATM   15  O3  UNL     1      26.858   2.155  50.745  1.00  0.00    -0.289 OA
HETATM   16  H13 UNL     1      23.053   2.656  49.543  1.00  0.00     0.160 HD
ENDROOT
BRANCH  10  17
HETATM   17  N2  UNL     1      23.063   4.830  48.960  1.00  0.00    -0.339 N 
HETATM   18  H14 UNL     1      22.300   4.188  48.677  1.00  0.00     0.167 HD
BRANCH  17  19
HETATM   19  C13 UNL     1      22.403   6.075  49.109  1.00  0.00     0.035 A 
HETATM   20  C14 UNL     1      21.953   6.458  50.351  1.00  0.00     0.029 A 
HETATM   21  C15 UNL     1      21.326   7.665  50.564  1.00  0.00     0.004 A 
HETATM   22  C16 UNL     1      21.106   8.562  49.553  1.00  0.00     0.019 A 
HETATM   23  C17 UNL     1      21.537   8.224  48.296  1.00  0.00     0.013 A 
HETATM   24 BR1  UNL     1      21.293   9.383  46.804  1.00  0.00    -0.051 Br
HETATM   25  C18 UNL     1      22.158   7.014  48.127  1.00  0.00     0.048 A 
ENDBRANCH  17  19
ENDBRANCH  10  17
BRANCH   1  26
HETATM   26  C2  UNL     1      23.115   0.125  53.417  1.00  0.00     0.206 C 
BRANCH  26  27
HETATM   27  O1  UNL     1      23.020  -1.043  54.189  1.00  0.00    -0.391 OA
HETATM   28  C1  UNL     1      21.800  -0.935  54.886  1.00  0.00     0.201 C 
ENDBRANCH  26  27
ENDBRANCH   1  26
BRANCH   3  29
HETATM   29  O2  UNL     1      27.849  -0.662  54.303  1.00  0.00    -0.356 OA
HETATM   30  C6  UNL     1      29.190  -0.776  53.938  1.00  0.00     0.210 C 
ENDBRANCH   3  29
TORSDOF 5
ENDMDL
MODEL 7
REMARK VINA RESULT:      -8.2      4.018      8.419
REMARK  5 active torsions:
REMARK  status: ('A' for Active; 'I' for Inactive)
REMARK    1  A    between atoms: O1_2  and  C2_3 
REMARK    2  A    between atoms: C2_3  and  C3_4 
REMARK    3  A    between atoms: C5_6  and  O2_7 
REMARK    4  A    between atoms: C12_15  and  N2_16 
REMARK    5  A    between atoms: N2_16  and  C13_17 
ROOT
HETATM    1  C3  UNL     1      29.325   6.582  48.189  1.00  0.00    -0.021 A 
HETATM    2  C4  UNL     1      29.829   7.888  48.183  1.00  0.00     0.046 A 
HETATM    3  C5  UNL     1      29.134   9.006  48.590  1.00  0.00     0.071 A 
HETATM    4  C7  UNL     1      27.842   8.839  49.039  1.00  0.00     0.074 A 
HETATM    5  C8  UNL     1      27.328   7.552  49.053  1.00  0.00     0.089 A 
HETATM    6  C9  UNL     1      28.028   6.412  48.641  1.00  0.00     0.002 A 
HETATM    7  C10 UNL     1      27.695   4.998  48.569  1.00  0.00     0.162 C 
HETATM    8  N1  UNL     1      26.383   4.621  49.009  1.00  0.00    -0.379 N 
HETATM    9  C11 UNL     1      25.445   5.193  49.916  1.00  0.00     0.129 A 
HETATM   10  C12 UNL     1      24.691   4.244  50.543  1.00  0.00     0.160 A 
HETATM   11  N3  UNL     1      23.797   4.749  51.378  1.00  0.00    -0.222 NA
HETATM   12  C19 UNL     1      23.587   6.041  51.644  1.00  0.00     0.238 A 
HETATM   13  N4  UNL     1      24.354   6.970  51.004  1.00  0.00    -0.215 NA
HETATM   14  C20 UNL     1      25.310   6.559  50.118  1.00  0.00     0.202 A 
HETATM   15  O3  UNL     1      26.018   7.634  49.542  1.00  0.00    -0.289 OA
HETATM   16  H13 UNL     1      25.983   3.728  48.587  1.00  0.00     0.160 HD
ENDROOT
BRANCH  10  17
HETATM   17  N2  UNL     1      24.853   2.863  50.330  1.00  0.00    -0.339 N 
HETATM   18  H14 UNL     1      24.909   2.316  49.452  1.00  0.00     0.167 HD
BRANCH  17  19
HETATM   19  C13 UNL     1      25.002   1.878  51.338  1.00  0.00     0.035 A 
HETATM   20  C14 UNL     1      26.264   1.496  51.727  1.00  0.00     0.029 A 
HETATM   21  C15 UNL     1      26.476   0.561  52.716  1.00  0.00     0.004 A 
HETATM   22  C16 UNL     1      25.443  -0.051  53.375  1.00  0.00     0.019 A 
HETATM   23  C17 UNL     1      24.165   0.298  53.020  1.00  0.00     0.013 A 
HETATM   24 BR1  UNL     1      22.642  -0.479  53.859  1.00  0.00    -0.051 Br
HETATM   25  C18 UNL     1      23.998   1.233  52.032  1.00  0.00     0.048 A 
ENDBRANCH  17  19
ENDBRANCH  10  17
BRANCH   1  26
HETATM   26  C2  UNL     1      30.181   5.478  47.727  1.00  0.00     0.206 C 
BRANCH  26  27
HETATM   27  O1  UNL     1      31.092   5.099  48.725  1.00  0.00    -0.391 OA
HETATM   28  C1  UNL     1      32.354   5.097  48.099  1.00  0.00     0.201 C 
ENDBRANCH  26  27
ENDBRANCH   1  26
BRANCH   3  29
HETATM   29  O2  UNL     1      29.713  10.266  48.549  1.00  0.00    -0.356 OA
HETATM   30  C6  UNL     1      29.654  11.110  47.441  1.00  0.00     0.210 C 
ENDBRANCH   3  29
TORSDOF 5
ENDMDL
MODEL 8
REMARK VINA RESULT:      -8.1      4.155      8.851
REMARK  5 active torsions:
REMARK  status: ('A' for Active; 'I' for Inactive)
REMARK    1  A    between atoms: O1_2  and  C2_3 
REMARK    2  A    between atoms: C2_3  and  C3_4 
REMARK    3  A    between atoms: C5_6  and  O2_7 
REMARK    4  A    between atoms: C12_15  and  N2_16 
REMARK    5  A    between atoms: N2_16  and  C13_17 
ROOT
HETATM    1  C3  UNL     1      24.363   5.000  49.887  1.00  0.00    -0.021 A 
HETATM    2  C4  UNL     1      25.488   5.251  49.094  1.00  0.00     0.046 A 
HETATM    3  C5  UNL     1      26.674   4.550  49.158  1.00  0.00     0.071 A 
HETATM    4  C7  UNL     1      26.771   3.522  50.071  1.00  0.00     0.074 A 
HETATM    5  C8  UNL     1      25.666   3.260  50.863  1.00  0.00     0.089 A 
HETATM    6  C9  UNL     1      24.459   3.967  50.803  1.00  0.00     0.002 A 
HETATM    7  C10 UNL     1      23.198   3.869  51.523  1.00  0.00     0.162 C 
HETATM    8  N1  UNL     1      23.102   2.840  52.517  1.00  0.00    -0.379 N 
HETATM    9  C11 UNL     1      23.752   1.586  52.705  1.00  0.00     0.129 A 
HETATM   10  C12 UNL     1      22.940   0.671  53.311  1.00  0.00     0.160 A 
HETATM   11  N3  UNL     1      23.527  -0.498  53.515  1.00  0.00    -0.222 NA
HETATM   12  C19 UNL     1      24.778  -0.837  53.193  1.00  0.00     0.238 A 
HETATM   13  N4  UNL     1      25.568   0.096  52.588  1.00  0.00    -0.215 NA
HETATM   14  C20 UNL     1      25.065   1.340  52.328  1.00  0.00     0.202 A 
HETATM   15  O3  UNL     1      26.000   2.188  51.700  1.00  0.00    -0.289 OA
HETATM   16  H13 UNL     1      22.406   3.011  53.307  1.00  0.00     0.160 HD
ENDROOT
BRANCH  10  17
HETATM   17  N2  UNL     1      21.609   0.940  53.675  1.00  0.00    -0.339 N 
HETATM   18  H14 UNL     1      21.221   1.529  54.433  1.00  0.00     0.167 HD
BRANCH  17  19
HETATM   19  C13 UNL     1      20.452   0.443  53.023  1.00  0.00     0.035 A 
HETATM   20  C14 UNL     1      20.068   0.990  51.821  1.00  0.00     0.029 A 
HETATM   21  C15 UNL     1      18.967   0.537  51.128  1.00  0.00     0.004 A 
HETATM   22  C16 UNL     1      18.183  -0.486  51.591  1.00  0.00     0.019 A 
HETATM   23  C17 UNL     1      18.528  -1.062  52.787  1.00  0.00     0.013 A 
HETATM   24 BR1  UNL     1      17.520  -2.492  53.541  1.00  0.00    -0.051 Br
HETATM   25  C18 UNL     1      19.630  -0.582  53.445  1.00  0.00     0.048 A 
ENDBRANCH  17  19
ENDBRANCH  10  17
BRANCH   1  26
HETATM   26  C2  UNL     1      23.159   5.827  49.711  1.00  0.00     0.206 C 
BRANCH  26  27
HETATM   27  O1  UNL     1      23.479   7.056  49.116  1.00  0.00    -0.391 OA
HETATM   28  C1  UNL     1      23.217   8.030  50.100  1.00  0.00     0.201 C 
ENDBRANCH  26  27
ENDBRANCH   1  26
BRANCH   3  29
HETATM   29  O2  UNL     1      27.742   4.869  48.331  1.00  0.00    -0.356 OA
HETATM   30  C6  UNL     1      28.306   6.141  48.250  1.00  0.00     0.210 C 
ENDBRANCH   3  29
TORSDOF 5
ENDMDL
MODEL 9
REMARK VINA RESULT:      -7.9      3.709      7.906
REMARK  5 active torsions:
REMARK  status: ('A' for Active; 'I' for Inactive)
REMARK    1  A    between atoms: O1_2  and  C2_3 
REMARK    2  A    between atoms: C2_3  and  C3_4 
REMARK    3  A    between atoms: C5_6  and  O2_7 
REMARK    4  A    between atoms: C12_15  and  N2_16 
REMARK    5  A    between atoms: N2_16  and  C13_17 
ROOT
HETATM    1  C3  UNL     1      28.134   6.290  48.426  1.00  0.00    -0.021 A 
HETATM    2  C4  UNL     1      28.246   7.680  48.303  1.00  0.00     0.046 A 
HETATM    3  C5  UNL     1      27.304   8.591  48.730  1.00  0.00     0.071 A 
HETATM    4  C7  UNL     1      26.157   8.109  49.323  1.00  0.00     0.074 A 
HETATM    5  C8  UNL     1      26.031   6.735  49.453  1.00  0.00     0.089 A 
HETATM    6  C9  UNL     1      26.984   5.805  49.023  1.00  0.00     0.002 A 
HETATM    7  C10 UNL     1      27.058   4.352  49.055  1.00  0.00     0.162 C 
HETATM    8  N1  UNL     1      25.951   3.663  49.651  1.00  0.00    -0.379 N 
HETATM    9  C11 UNL     1      24.976   4.021  50.627  1.00  0.00     0.129 A 
HETATM   10  C12 UNL     1      24.580   2.951  51.376  1.00  0.00     0.160 A 
HETATM   11  N3  UNL     1      23.659   3.253  52.278  1.00  0.00    -0.222 NA
HETATM   12  C19 UNL     1      23.118   4.453  52.503  1.00  0.00     0.238 A 
HETATM   13  N4  UNL     1      23.531   5.505  51.741  1.00  0.00    -0.215 NA
HETATM   14  C20 UNL     1      24.480   5.308  50.777  1.00  0.00     0.202 A 
HETATM   15  O3  UNL     1      24.801   6.490  50.077  1.00  0.00    -0.289 OA
HETATM   16  H13 UNL     1      25.783   2.664  49.319  1.00  0.00     0.160 HD
ENDROOT
BRANCH  10  17
HETATM   17  N2  UNL     1      25.104   1.656  51.213  1.00  0.00    -0.339 N 
HETATM   18  H14 UNL     1      24.893   0.925  50.511  1.00  0.00     0.167 HD
BRANCH  17  19
HETATM   19  C13 UNL     1      26.109   1.059  52.014  1.00  0.00     0.035 A 
HETATM   20  C14 UNL     1      26.116  -0.305  52.185  1.00  0.00     0.029 A 
HETATM   21  C15 UNL     1      27.077  -0.947  52.933  1.00  0.00     0.004 A 
HETATM   22  C16 UNL     1      28.089  -0.268  53.558  1.00  0.00     0.019 A 
HETATM   23  C17 UNL     1      28.123   1.096  53.418  1.00  0.00     0.013 A 
HETATM   24 BR1  UNL     1      29.476   2.157  54.237  1.00  0.00    -0.051 Br
HETATM   25  C18 UNL     1      27.148   1.695  52.665  1.00  0.00     0.048 A 
ENDBRANCH  17  19
ENDBRANCH  10  17
BRANCH   1  26
HETATM   26  C2  UNL     1      29.221   5.433  47.928  1.00  0.00     0.206 C 
BRANCH  26  27
HETATM   27  O1  UNL     1      30.380   6.185  47.685  1.00  0.00    -0.391 OA
HETATM   28  C1  UNL     1      31.391   5.576  48.455  1.00  0.00     0.201 C 
ENDBRANCH  26  27
ENDBRANCH   1  26
BRANCH   3  29
HETATM   29  O2  UNL     1      27.499   9.955  48.566  1.00  0.00    -0.356 OA
HETATM   30  C6  UNL     1      27.963  10.535  47.387  1.00  0.00     0.210 C 
ENDBRANCH   3  29
TORSDOF 5
ENDMDL
