MODEL 1
REMARK VINA RESULT:      -8.4      0.000      0.000
REMARK  5 active torsions:
REMARK  status: ('A' for Active; 'I' for Inactive)
REMARK    1  A    between atoms: O1_2  and  C2_3 
REMARK    2  A    between atoms: C8_11  and  N3_12 
REMARK    3  A    between atoms: N3_12  and  C9_13 
REMARK    4  A    between atoms: C17_22  and  N4_23 
REMARK    5  A    between atoms: N4_23  and  C18_24 
ROOT
HETATM    1  C2  UNL     1      26.407   0.134  54.088  1.00  0.00     0.097 A 
HETATM    2  C3  UNL     1      25.293  -0.648  53.907  1.00  0.00     0.071 A 
HETATM    3  C4  UNL     1      24.103  -0.125  53.443  1.00  0.00     0.071 A 
HETATM    4  N1  UNL     1      23.059  -0.946  53.291  1.00  0.00    -0.259 NA
HETATM    5  C5  UNL     1      21.874  -0.473  52.837  1.00  0.00     0.142 A 
HETATM    6  C6  UNL     1      21.764   0.875  52.534  1.00  0.00     0.089 A 
HETATM    7  C7  UNL     1      20.505   1.391  52.050  1.00  0.00     0.103 C 
HETATM    8  N2  UNL     1      19.493   1.802  51.662  1.00  0.00    -0.191 NA
HETATM    9  C8  UNL     1      22.830   1.766  52.679  1.00  0.00     0.067 A 
HETATM   10  C15 UNL     1      24.010   1.220  53.145  1.00  0.00     0.023 A 
HETATM   11  C16 UNL     1      25.127   2.041  53.320  1.00  0.00     0.048 A 
HETATM   12  C17 UNL     1      26.316   1.493  53.789  1.00  0.00     0.069 A 
ENDROOT
BRANCH   9  13
HETATM   13  N3  UNL     1      22.702   3.148  52.364  1.00  0.00    -0.354 N 
HETATM   14  H6  UNL     1      22.167   3.660  53.099  1.00  0.00     0.166 HD
BRANCH  13  15
HETATM   15  C9  UNL     1      23.237   3.752  51.192  1.00  0.00     0.033 A 
HETATM   16  C10 UNL     1      23.112   3.052  50.010  1.00  0.00     0.029 A 
HETATM   17  C11 UNL     1      23.651   3.682  48.889  1.00  0.00     0.004 A 
HETATM   18  C12 UNL     1      24.260   4.923  48.997  1.00  0.00     0.019 A 
HETATM   19  C13 UNL     1      24.358   5.583  50.215  1.00  0.00     0.013 A 
HETATM   20 BR1  UNL     1      25.182   7.284  50.425  1.00  0.00    -0.051 Br
HETATM   21  C14 UNL     1      23.833   4.986  51.359  1.00  0.00     0.048 A 
ENDBRANCH  13  15
ENDBRANCH   9  13
BRANCH  12  22
HETATM   22  N4  UNL     1      27.363   2.439  53.918  1.00  0.00    -0.332 N 
HETATM   23  H12 UNL     1      26.789   3.276  54.230  1.00  0.00     0.168 HD
BRANCH  22  24
HETATM   24  C18 UNL     1      28.773   2.493  53.746  1.00  0.00     0.353 C 
HETATM   25  O2  UNL     1      29.581   2.402  54.706  1.00  0.00    -0.283 OA
ENDBRANCH  22  24
ENDBRANCH  12  22
BRANCH   1  26
HETATM   26  O1  UNL     1      27.644  -0.295  54.549  1.00  0.00    -0.354 OA
HETATM   27  C1  UNL     1      28.600  -0.961  53.745  1.00  0.00     0.210 C 
ENDBRANCH   1  26
TORSDOF 5
ENDMDL
MODEL 2
REMARK VINA RESULT:      -7.9      2.903      4.801
REMARK  5 active torsions:
REMARK  status: ('A' for Active; 'I' for Inactive)
REMARK    1  A    between atoms: O1_2  and  C2_3 
REMARK    2  A    between atoms: C8_11  and  N3_12 
REMARK    3  A    between atoms: N3_12  and  C9_13 
REMARK    4  A    between atoms: C17_22  and  N4_23 
REMARK    5  A    between atoms: N4_23  and  C18_24 
ROOT
HETATM    1  C2  UNL     1      26.643   0.901  53.959  1.00  0.00     0.097 A 
HETATM    2  C3  UNL     1      26.169   2.189  53.913  1.00  0.00     0.071 A 
HETATM    3  C4  UNL     1      24.982   2.507  53.284  1.00  0.00     0.071 A 
HETATM    4  N1  UNL     1      24.582   3.783  53.279  1.00  0.00    -0.259 NA
HETATM    5  C5  UNL     1      23.423   4.136  52.673  1.00  0.00     0.142 A 
HETATM    6  C6  UNL     1      22.662   3.154  52.061  1.00  0.00     0.089 A 
HETATM    7  C7  UNL     1      21.425   3.519  51.412  1.00  0.00     0.103 C 
HETATM    8  N2  UNL     1      20.433   3.815  50.891  1.00  0.00    -0.191 NA
HETATM    9  C8  UNL     1      23.044   1.810  52.044  1.00  0.00     0.067 A 
HETATM   10  C15 UNL     1      24.235   1.517  52.679  1.00  0.00     0.023 A 
HETATM   11  C16 UNL     1      24.692   0.196  52.710  1.00  0.00     0.048 A 
HETATM   12  C17 UNL     1      25.890  -0.101  53.348  1.00  0.00     0.069 A 
ENDROOT
BRANCH   9  13
HETATM   13  N3  UNL     1      22.251   0.812  51.411  1.00  0.00    -0.354 N 
HETATM   14  H6  UNL     1      22.655   0.528  50.491  1.00  0.00     0.166 HD
BRANCH  13  15
HETATM   15  C9  UNL     1      21.058   0.270  51.965  1.00  0.00     0.033 A 
HETATM   16  C10 UNL     1      21.148  -0.292  53.222  1.00  0.00     0.029 A 
HETATM   17  C11 UNL     1      19.955  -0.811  53.725  1.00  0.00     0.004 A 
HETATM   18  C12 UNL     1      18.785  -0.746  52.984  1.00  0.00     0.019 A 
HETATM   19  C13 UNL     1      18.753  -0.167  51.722  1.00  0.00     0.013 A 
HETATM   20 BR1  UNL     1      17.181  -0.050  50.659  1.00  0.00    -0.051 Br
HETATM   21  C14 UNL     1      19.925   0.361  51.183  1.00  0.00     0.048 A 
ENDBRANCH  13  15
ENDBRANCH   9  13
BRANCH  12  22
HETATM   22  N4  UNL     1      26.231  -1.476  53.301  1.00  0.00    -0.332 N 
HETATM   23  H12 UNL     1      25.580  -1.831  54.062  1.00  0.00     0.168 HD
BRANCH  22  24
HETATM   24  C18 UNL     1      27.107  -2.330  52.577  1.00  0.00     0.353 C 
HETATM   25  O2  UNL     1      28.212  -2.720  53.034  1.00  0.00    -0.283 OA
ENDBRANCH  22  24
ENDBRANCH  12  22
BRANCH   1  26
HETATM   26  O1  UNL     1      27.820   0.482  54.564  1.00  0.00    -0.354 OA
HETATM   27  C1  UNL     1      29.112   0.844  54.115  1.00  0.00     0.210 C 
ENDBRANCH   1  26
TORSDOF 5
ENDMDL
MODEL 3
REMARK VINA RESULT:      -7.9      3.358      5.792
REMARK  5 active torsions:
REMARK  status: ('A' for Active; 'I' for Inactive)
REMARK    1  A    between atoms: O1_2  and  C2_3 
REMARK    2  A    between atoms: C8_11  and  N3_12 
REMARK    3  A    between atoms: N3_12  and  C9_13 
REMARK    4  A    between atoms: C17_22  and  N4_23 
REMARK    5  A    between atoms: N4_23  and  C18_24 
ROOT
HETATM    1  C2  UNL     1      19.795  -0.853  53.461  1.00  0.00     0.097 A 
HETATM    2  C3  UNL     1      20.622  -1.325  54.450  1.00  0.00     0.071 A 
HETATM    3  C4  UNL     1      21.980  -1.073  54.448  1.00  0.00     0.071 A 
HETATM    4  N1  UNL     1      22.724  -1.565  55.444  1.00  0.00    -0.259 NA
HETATM    5  C5  UNL     1      24.058  -1.339  55.479  1.00  0.00     0.142 A 
HETATM    6  C6  UNL     1      24.638  -0.591  54.466  1.00  0.00     0.089 A 
HETATM    7  C7  UNL     1      26.060  -0.345  54.494  1.00  0.00     0.103 C 
HETATM    8  N2  UNL     1      27.202  -0.149  54.518  1.00  0.00    -0.191 NA
HETATM    9  C8  UNL     1      23.895  -0.060  53.409  1.00  0.00     0.067 A 
HETATM   10  C15 UNL     1      22.541  -0.325  53.432  1.00  0.00     0.023 A 
HETATM   11  C16 UNL     1      21.724   0.168  52.411  1.00  0.00     0.048 A 
HETATM   12  C17 UNL     1      20.360  -0.098  52.433  1.00  0.00     0.069 A 
ENDROOT
BRANCH   9  13
HETATM   13  N3  UNL     1      24.505   0.707  52.376  1.00  0.00    -0.354 N 
HETATM   14  H6  UNL     1      25.220   0.151  51.858  1.00  0.00     0.166 HD
BRANCH  13  15
HETATM   15  C9  UNL     1      24.176   2.061  52.087  1.00  0.00     0.033 A 
HETATM   16  C10 UNL     1      24.209   2.953  53.139  1.00  0.00     0.029 A 
HETATM   17  C11 UNL     1      23.880   4.268  52.810  1.00  0.00     0.004 A 
HETATM   18  C12 UNL     1      23.551   4.612  51.508  1.00  0.00     0.019 A 
HETATM   19  C13 UNL     1      23.535   3.671  50.487  1.00  0.00     0.013 A 
HETATM   20 BR1  UNL     1      23.091   4.083  48.684  1.00  0.00    -0.051 Br
HETATM   21  C14 UNL     1      23.856   2.346  50.775  1.00  0.00     0.048 A 
ENDBRANCH  13  15
ENDBRANCH   9  13
BRANCH  12  22
HETATM   22  N4  UNL     1      19.656   0.463  51.338  1.00  0.00    -0.332 N 
HETATM   23  H12 UNL     1      18.718  -0.012  51.488  1.00  0.00     0.168 HD
BRANCH  22  24
HETATM   24  C18 UNL     1      19.899   1.368  50.270  1.00  0.00     0.353 C 
HETATM   25  O2  UNL     1      20.601   1.071  49.269  1.00  0.00    -0.283 OA
ENDBRANCH  22  24
ENDBRANCH  12  22
BRANCH   1  26
HETATM   26  O1  UNL     1      18.425  -1.052  53.373  1.00  0.00    -0.354 OA
HETATM   27  C1  UNL     1      17.797  -2.311  53.523  1.00  0.00     0.210 C 
ENDBRANCH   1  26
TORSDOF 5
ENDMDL
MODEL 4
REMARK VINA RESULT:      -7.7      2.214      3.111
REMARK  5 active torsions:
REMARK  status: ('A' for Active; 'I' for Inactive)
REMARK    1  A    between atoms: O1_2  and  C2_3 
REMARK    2  A    between atoms: C8_11  and  N3_12 
REMARK    3  A    between atoms: N3_12  and  C9_13 
REMARK    4  A    between atoms: C17_22  and  N4_23 
REMARK    5  A    between atoms: N4_23  and  C18_24 
ROOT
HETATM    1  C2  UNL     1      27.093   0.696  53.664  1.00  0.00     0.097 A 
HETATM    2  C3  UNL     1      26.466  -0.064  54.620  1.00  0.00     0.071 A 
HETATM    3  C4  UNL     1      25.137  -0.420  54.512  1.00  0.00     0.071 A 
HETATM    4  N1  UNL     1      24.591  -1.162  55.481  1.00  0.00    -0.259 NA
HETATM    5  C5  UNL     1      23.291  -1.533  55.412  1.00  0.00     0.142 A 
HETATM    6  C6  UNL     1      22.537  -1.131  54.321  1.00  0.00     0.089 A 
HETATM    7  C7  UNL     1      21.150  -1.521  54.237  1.00  0.00     0.103 C 
HETATM    8  N2  UNL     1      20.036  -1.835  54.173  1.00  0.00    -0.191 NA
HETATM    9  C8  UNL     1      23.069  -0.356  53.287  1.00  0.00     0.067 A 
HETATM   10  C15 UNL     1      24.400  -0.012  53.418  1.00  0.00     0.023 A 
HETATM   11  C16 UNL     1      25.012   0.763  52.429  1.00  0.00     0.048 A 
HETATM   12  C17 UNL     1      26.351   1.110  52.558  1.00  0.00     0.069 A 
ENDROOT
BRANCH   9  13
HETATM   13  N3  UNL     1      22.282   0.049  52.172  1.00  0.00    -0.354 N 
HETATM   14  H6  UNL     1      22.050  -0.759  51.554  1.00  0.00     0.166 HD
BRANCH  13  15
HETATM   15  C9  UNL     1      21.866   1.388  51.934  1.00  0.00     0.033 A 
HETATM   16  C10 UNL     1      20.918   1.913  52.787  1.00  0.00     0.029 A 
HETATM   17  C11 UNL     1      20.539   3.228  52.515  1.00  0.00     0.004 A 
HETATM   18  C12 UNL     1      21.101   3.922  51.455  1.00  0.00     0.019 A 
HETATM   19  C13 UNL     1      22.053   3.343  50.627  1.00  0.00     0.013 A 
HETATM   20 BR1  UNL     1      22.857   4.245  49.159  1.00  0.00    -0.051 Br
HETATM   21  C14 UNL     1      22.457   2.031  50.865  1.00  0.00     0.048 A 
ENDBRANCH  13  15
ENDBRANCH   9  13
BRANCH  12  22
HETATM   22  N4  UNL     1      26.839   1.896  51.484  1.00  0.00    -0.332 N 
HETATM   23  H12 UNL     1      27.782   1.426  51.355  1.00  0.00     0.168 HD
BRANCH  22  24
HETATM   24  C18 UNL     1      26.406   2.988  50.685  1.00  0.00     0.353 C 
HETATM   25  O2  UNL     1      27.153   3.561  49.850  1.00  0.00    -0.283 OA
ENDBRANCH  22  24
ENDBRANCH  12  22
BRANCH   1  26
HETATM   26  O1  UNL     1      28.419   1.106  53.681  1.00  0.00    -0.354 OA
HETATM   27  C1  UNL     1      29.520   0.218  53.719  1.00  0.00     0.210 C 
ENDBRANCH   1  26
TORSDOF 5
ENDMDL
MODEL 5
REMARK VINA RESULT:      -7.6      2.581      4.354
REMARK  5 active torsions:
REMARK  status: ('A' for Active; 'I' for Inactive)
REMARK    1  A    between atoms: O1_2  and  C2_3 
REMARK    2  A    between atoms: C8_11  and  N3_12 
REMARK    3  A    between atoms: N3_12  and  C9_13 
REMARK    4  A    between atoms: C17_22  and  N4_23 
REMARK    5  A    between atoms: N4_23  and  C18_24 
ROOT
HETATM    1  C2  UNL     1      26.999  -0.324  53.268  1.00  0.00     0.097 A 
HETATM    2  C3  UNL     1      27.334   0.629  52.337  1.00  0.00     0.071 A 
HETATM    3  C4  UNL     1      26.429   1.579  51.909  1.00  0.00     0.071 A 
HETATM    4  N1  UNL     1      26.825   2.476  50.999  1.00  0.00    -0.259 NA
HETATM    5  C5  UNL     1      25.968   3.425  50.553  1.00  0.00     0.142 A 
HETATM    6  C6  UNL     1      24.676   3.449  51.055  1.00  0.00     0.089 A 
HETATM    7  C7  UNL     1      23.754   4.456  50.586  1.00  0.00     0.103 C 
HETATM    8  N2  UNL     1      23.016   5.265  50.207  1.00  0.00    -0.191 NA
HETATM    9  C8  UNL     1      24.224   2.530  52.005  1.00  0.00     0.067 A 
HETATM   10  C15 UNL     1      25.146   1.590  52.418  1.00  0.00     0.023 A 
HETATM   11  C16 UNL     1      24.777   0.632  53.367  1.00  0.00     0.048 A 
HETATM   12  C17 UNL     1      25.704  -0.315  53.785  1.00  0.00     0.069 A 
ENDROOT
BRANCH   9  13
HETATM   13  N3  UNL     1      22.894   2.568  52.511  1.00  0.00    -0.354 N 
HETATM   14  H6  UNL     1      22.862   2.972  53.473  1.00  0.00     0.166 HD
BRANCH  13  15
HETATM   15  C9  UNL     1      21.753   2.112  51.793  1.00  0.00     0.033 A 
HETATM   16  C10 UNL     1      21.911   0.984  51.015  1.00  0.00     0.029 A 
HETATM   17  C11 UNL     1      20.767   0.574  50.329  1.00  0.00     0.004 A 
HETATM   18  C12 UNL     1      19.578   1.277  50.449  1.00  0.00     0.019 A 
HETATM   19  C13 UNL     1      19.478   2.408  51.248  1.00  0.00     0.013 A 
HETATM   20 BR1  UNL     1      17.876   3.413  51.451  1.00  0.00    -0.051 Br
HETATM   21  C14 UNL     1      20.598   2.850  51.949  1.00  0.00     0.048 A 
ENDBRANCH  13  15
ENDBRANCH   9  13
BRANCH  12  22
HETATM   22  N4  UNL     1      25.193  -1.221  54.747  1.00  0.00    -0.332 N 
HETATM   23  H12 UNL     1      25.761  -2.078  54.480  1.00  0.00     0.168 HD
BRANCH  22  24
HETATM   24  C18 UNL     1      24.248  -1.224  55.808  1.00  0.00     0.353 C 
HETATM   25  O2  UNL     1      23.062  -1.619  55.665  1.00  0.00    -0.283 OA
ENDBRANCH  22  24
ENDBRANCH  12  22
BRANCH   1  26
HETATM   26  O1  UNL     1      27.833  -1.317  53.762  1.00  0.00    -0.354 OA
HETATM   27  C1  UNL     1      29.219  -1.394  53.487  1.00  0.00     0.210 C 
ENDBRANCH   1  26
TORSDOF 5
ENDMDL
MODEL 6
REMARK VINA RESULT:      -7.5      1.923      2.869
REMARK  5 active torsions:
REMARK  status: ('A' for Active; 'I' for Inactive)
REMARK    1  A    between atoms: O1_2  and  C2_3 
REMARK    2  A    between atoms: C8_11  and  N3_12 
REMARK    3  A    between atoms: N3_12  and  C9_13 
REMARK    4  A    between atoms: C17_22  and  N4_23 
REMARK    5  A    between atoms: N4_23  and  C18_24 
ROOT
HETATM    1  C2  UNL     1      24.972   0.845  53.262  1.00  0.00     0.097 A 
HETATM    2  C3  UNL     1      23.761   0.776  52.617  1.00  0.00     0.071 A 
HETATM    3  C4  UNL     1      23.107   1.909  52.173  1.00  0.00     0.071 A 
HETATM    4  N1  UNL     1      21.931   1.766  51.552  1.00  0.00    -0.259 NA
HETATM    5  C5  UNL     1      21.258   2.851  51.101  1.00  0.00     0.142 A 
HETATM    6  C6  UNL     1      21.808   4.108  51.295  1.00  0.00     0.089 A 
HETATM    7  C7  UNL     1      21.098   5.272  50.819  1.00  0.00     0.103 C 
HETATM    8  N2  UNL     1      20.526   6.204  50.436  1.00  0.00    -0.191 NA
HETATM    9  C8  UNL     1      23.033   4.299  51.939  1.00  0.00     0.067 A 
HETATM   10  C15 UNL     1      23.668   3.153  52.373  1.00  0.00     0.023 A 
HETATM   11  C16 UNL     1      24.899   3.254  53.028  1.00  0.00     0.048 A 
HETATM   12  C17 UNL     1      25.541   2.101  53.467  1.00  0.00     0.069 A 
ENDROOT
BRANCH   9  13
HETATM   13  N3  UNL     1      23.585   5.597  52.130  1.00  0.00    -0.354 N 
HETATM   14  H6  UNL     1      23.436   5.937  53.106  1.00  0.00     0.166 HD
BRANCH  13  15
HETATM   15  C9  UNL     1      24.257   6.337  51.117  1.00  0.00     0.033 A 
HETATM   16  C10 UNL     1      23.835   7.632  50.900  1.00  0.00     0.029 A 
HETATM   17  C11 UNL     1      24.521   8.318  49.898  1.00  0.00     0.004 A 
HETATM   18  C12 UNL     1      25.547   7.706  49.195  1.00  0.00     0.019 A 
HETATM   19  C13 UNL     1      25.930   6.398  49.456  1.00  0.00     0.013 A 
HETATM   20 BR1  UNL     1      27.328   5.506  48.524  1.00  0.00    -0.051 Br
HETATM   21  C14 UNL     1      25.269   5.678  50.449  1.00  0.00     0.048 A 
ENDBRANCH  13  15
ENDBRANCH   9  13
BRANCH  12  22
HETATM   22  N4  UNL     1      26.777   2.352  54.112  1.00  0.00    -0.332 N 
HETATM   23  H12 UNL     1      26.408   2.626  55.069  1.00  0.00     0.168 HD
BRANCH  22  24
HETATM   24  C18 UNL     1      28.164   2.320  53.802  1.00  0.00     0.353 C 
HETATM   25  O2  UNL     1      29.034   1.904  54.609  1.00  0.00    -0.283 OA
ENDBRANCH  22  24
ENDBRANCH  12  22
BRANCH   1  26
HETATM   26  O1  UNL     1      25.705  -0.230  53.745  1.00  0.00    -0.354 OA
HETATM   27  C1  UNL     1      26.541  -1.041  52.941  1.00  0.00     0.210 C 
ENDBRANCH   1  26
TORSDOF 5
ENDMDL
MODEL 7
REMARK VINA RESULT:      -7.5      3.179      5.543
REMARK  5 active torsions:
REMARK  status: ('A' for Active; 'I' for Inactive)
REMARK    1  A    between atoms: O1_2  and  C2_3 
REMARK    2  A    between atoms: C8_11  and  N3_12 
REMARK    3  A    between atoms: N3_12  and  C9_13 
REMARK    4  A    between atoms: C17_22  and  N4_23 
REMARK    5  A    between atoms: N4_23  and  C18_24 
ROOT
HETATM    1  C2  UNL     1      20.650   0.532  51.711  1.00  0.00     0.097 A 
HETATM    2  C3  UNL     1      21.609  -0.206  52.362  1.00  0.00     0.071 A 
HETATM    3  C4  UNL     1      22.831   0.332  52.710  1.00  0.00     0.071 A 
HETATM    4  N1  UNL     1      23.717  -0.446  53.342  1.00  0.00    -0.259 NA
HETATM    5  C5  UNL     1      24.927   0.044  53.701  1.00  0.00     0.142 A 
HETATM    6  C6  UNL     1      25.230   1.363  53.403  1.00  0.00     0.089 A 
HETATM    7  C7  UNL     1      26.518   1.896  53.781  1.00  0.00     0.103 C 
HETATM    8  N2  UNL     1      27.552   2.320  54.085  1.00  0.00    -0.191 NA
HETATM    9  C8  UNL     1      24.334   2.208  52.744  1.00  0.00     0.067 A 
HETATM   10  C15 UNL     1      23.118   1.648  52.406  1.00  0.00     0.023 A 
HETATM   11  C16 UNL     1      22.162   2.423  51.744  1.00  0.00     0.048 A 
HETATM   12  C17 UNL     1      20.938   1.861  51.402  1.00  0.00     0.069 A 
ENDROOT
BRANCH   9  13
HETATM   13  N3  UNL     1      24.660   3.561  52.444  1.00  0.00    -0.354 N 
HETATM   14  H6  UNL     1      24.456   4.191  53.251  1.00  0.00     0.166 HD
BRANCH  13  15
HETATM   15  C9  UNL     1      25.197   3.996  51.201  1.00  0.00     0.033 A 
HETATM   16  C10 UNL     1      26.231   3.253  50.669  1.00  0.00     0.029 A 
HETATM   17  C11 UNL     1      26.727   3.716  49.450  1.00  0.00     0.004 A 
HETATM   18  C12 UNL     1      26.191   4.845  48.850  1.00  0.00     0.019 A 
HETATM   19  C13 UNL     1      25.148   5.554  49.432  1.00  0.00     0.013 A 
HETATM   20 BR1  UNL     1      24.374   7.109  48.656  1.00  0.00    -0.051 Br
HETATM   21  C14 UNL     1      24.626   5.125  50.650  1.00  0.00     0.048 A 
ENDBRANCH  13  15
ENDBRANCH   9  13
BRANCH  12  22
HETATM   22  N4  UNL     1      20.068   2.760  50.737  1.00  0.00    -0.332 N 
HETATM   23  H12 UNL     1      20.348   2.546  49.735  1.00  0.00     0.168 HD
BRANCH  22  24
HETATM   24  C18 UNL     1      19.074   3.720  51.070  1.00  0.00     0.353 C 
HETATM   25  O2  UNL     1      18.279   3.573  52.033  1.00  0.00    -0.283 OA
ENDBRANCH  22  24
ENDBRANCH  12  22
BRANCH   1  26
HETATM   26  O1  UNL     1      19.397   0.084  51.319  1.00  0.00    -0.354 OA
HETATM   27  C1  UNL     1      18.388  -0.330  52.221  1.00  0.00     0.210 C 
ENDBRANCH   1  26
TORSDOF 5
ENDMDL
MODEL 8
REMARK VINA RESULT:      -7.5      2.937      5.616
REMARK  5 active torsions:
REMARK  status: ('A' for Active; 'I' for Inactive)
REMARK    1  A    between atoms: O1_2  and  C2_3 
REMARK    2  A    between atoms: C8_11  and  N3_12 
REMARK    3  A    between atoms: N3_12  and  C9_13 
REMARK    4  A    between atoms: C17_22  and  N4_23 
REMARK    5  A    between atoms: N4_23  and  C18_24 
ROOT
HETATM    1  C2  UNL     1      23.372   5.192  51.329  1.00  0.00     0.097 A 
HETATM    2  C3  UNL     1      22.018   5.112  51.547  1.00  0.00     0.071 A 
HETATM    3  C4  UNL     1      21.386   3.906  51.772  1.00  0.00     0.071 A 
HETATM    4  N1  UNL     1      20.065   3.904  51.977  1.00  0.00    -0.259 NA
HETATM    5  C5  UNL     1      19.407   2.742  52.202  1.00  0.00     0.142 A 
HETATM    6  C6  UNL     1      20.126   1.557  52.217  1.00  0.00     0.089 A 
HETATM    7  C7  UNL     1      19.435   0.313  52.457  1.00  0.00     0.103 C 
HETATM    8  N2  UNL     1      18.878  -0.685  52.648  1.00  0.00    -0.191 NA
HETATM    9  C8  UNL     1      21.507   1.517  52.009  1.00  0.00     0.067 A 
HETATM   10  C15 UNL     1      22.117   2.735  51.785  1.00  0.00     0.023 A 
HETATM   11  C16 UNL     1      23.497   2.785  51.566  1.00  0.00     0.048 A 
HETATM   12  C17 UNL     1      24.113   4.010  51.341  1.00  0.00     0.069 A 
ENDROOT
BRANCH   9  13
HETATM   13  N3  UNL     1      22.233   0.292  52.027  1.00  0.00    -0.354 N 
HETATM   14  H6  UNL     1      22.165  -0.207  51.113  1.00  0.00     0.166 HD
BRANCH  13  15
HETATM   15  C9  UNL     1      22.960  -0.188  53.153  1.00  0.00     0.033 A 
HETATM   16  C10 UNL     1      22.239  -0.831  54.138  1.00  0.00     0.029 A 
HETATM   17  C11 UNL     1      22.992  -1.284  55.221  1.00  0.00     0.004 A 
HETATM   18  C12 UNL     1      24.363  -1.083  55.265  1.00  0.00     0.019 A 
HETATM   19  C13 UNL     1      25.037  -0.428  54.243  1.00  0.00     0.013 A 
HETATM   20 BR1  UNL     1      26.914  -0.122  54.249  1.00  0.00    -0.051 Br
HETATM   21  C14 UNL     1      24.320   0.041  53.144  1.00  0.00     0.048 A 
ENDBRANCH  13  15
ENDBRANCH   9  13
BRANCH  12  22
HETATM   22  N4  UNL     1      25.512   3.911  51.135  1.00  0.00    -0.332 N 
HETATM   23  H12 UNL     1      25.764   4.937  51.244  1.00  0.00     0.168 HD
BRANCH  22  24
HETATM   24  C18 UNL     1      26.477   2.905  50.861  1.00  0.00     0.353 C 
HETATM   25  O2  UNL     1      27.341   2.541  51.700  1.00  0.00    -0.283 OA
ENDBRANCH  22  24
ENDBRANCH  12  22
BRANCH   1  26
HETATM   26  O1  UNL     1      24.098   6.351  51.094  1.00  0.00    -0.354 OA
HETATM   27  C1  UNL     1      23.512   7.600  50.781  1.00  0.00     0.210 C 
ENDBRANCH   1  26
TORSDOF 5
ENDMDL
MODEL 9
REMARK VINA RESULT:      -7.3      3.885      5.993
REMARK  5 active torsions:
REMARK  status: ('A' for Active; 'I' for Inactive)
REMARK    1  A    between atoms: O1_2  and  C2_3 
REMARK    2  A    between atoms: C8_11  and  N3_12 
REMARK    3  A    between atoms: N3_12  and  C9_13 
REMARK    4  A    between atoms: C17_22  and  N4_23 
REMARK    5  A    between atoms: N4_23  and  C18_24 
ROOT
HETATM    1  C2  UNL     1      24.708   3.508  50.640  1.00  0.00     0.097 A 
HETATM    2  C3  UNL     1      25.332   2.400  51.160  1.00  0.00     0.071 A 
HETATM    3  C4  UNL     1      24.681   1.529  52.010  1.00  0.00     0.071 A 
HETATM    4  N1  UNL     1      25.351   0.471  52.479  1.00  0.00    -0.259 NA
HETATM    5  C5  UNL     1      24.749  -0.408  53.314  1.00  0.00     0.142 A 
HETATM    6  C6  UNL     1      23.428  -0.191  53.674  1.00  0.00     0.089 A 
HETATM    7  C7  UNL     1      22.776  -1.122  54.564  1.00  0.00     0.103 C 
HETATM    8  N2  UNL     1      22.255  -1.870  55.280  1.00  0.00    -0.191 NA
HETATM    9  C8  UNL     1      22.693   0.901  53.206  1.00  0.00     0.067 A 
HETATM   10  C15 UNL     1      23.365   1.758  52.358  1.00  0.00     0.023 A 
HETATM   11  C16 UNL     1      22.704   2.878  51.844  1.00  0.00     0.048 A 
HETATM   12  C17 UNL     1      23.379   3.742  50.990  1.00  0.00     0.069 A 
ENDROOT
BRANCH   9  13
HETATM   13  N3  UNL     1      21.337   1.110  53.584  1.00  0.00    -0.354 N 
HETATM   14  H6  UNL     1      21.266   1.690  54.450  1.00  0.00     0.166 HD
BRANCH  13  15
HETATM   15  C9  UNL     1      20.220   0.593  52.870  1.00  0.00     0.033 A 
HETATM   16  C10 UNL     1      19.891   1.215  51.684  1.00  0.00     0.029 A 
HETATM   17  C11 UNL     1      18.790   0.675  51.018  1.00  0.00     0.004 A 
HETATM   18  C12 UNL     1      18.104  -0.409  51.545  1.00  0.00     0.019 A 
HETATM   19  C13 UNL     1      18.481  -0.995  52.746  1.00  0.00     0.013 A 
HETATM   20 BR1  UNL     1      17.580  -2.482  53.517  1.00  0.00    -0.051 Br
HETATM   21  C14 UNL     1      19.575  -0.485  53.442  1.00  0.00     0.048 A 
ENDBRANCH  13  15
ENDBRANCH   9  13
BRANCH  12  22
HETATM   22  N4  UNL     1      22.588   4.832  50.547  1.00  0.00    -0.332 N 
HETATM   23  H12 UNL     1      22.186   4.393  49.668  1.00  0.00     0.168 HD
BRANCH  22  24
HETATM   24  C18 UNL     1      22.277   6.156  50.959  1.00  0.00     0.353 C 
HETATM   25  O2  UNL     1      22.996   7.147  50.674  1.00  0.00    -0.283 OA
ENDBRANCH  22  24
ENDBRANCH  12  22
BRANCH   1  26
HETATM   26  O1  UNL     1      25.274   4.440  49.781  1.00  0.00    -0.354 OA
HETATM   27  C1  UNL     1      26.610   4.381  49.320  1.00  0.00     0.210 C 
ENDBRANCH   1  26
TORSDOF 5
ENDMDL
