MODEL 1
REMARK VINA RESULT:      -9.8      0.000      0.000
REMARK  1 active torsions:
REMARK  status: ('A' for Active; 'I' for Inactive)
REMARK    1  A    between atoms: C7_9  and  O2_10 
ROOT
HETATM    1  N1  UNL     1      28.574   2.510  54.157  1.00  0.00    -0.196 NA
HETATM    2  C1  UNL     1      27.926   1.660  53.699  1.00  0.00     0.077 C 
HETATM    3  C2  UNL     1      27.084   0.587  53.127  1.00  0.00     0.207 C 
HETATM    4  C3  UNL     1      26.542  -0.265  54.201  1.00  0.00    -0.002 C 
HETATM    5  C4  UNL     1      25.445  -0.742  54.725  1.00  0.00    -0.019 C 
HETATM    6  C5  UNL     1      24.049  -1.033  54.963  1.00  0.00     0.051 A 
HETATM    7  C6  UNL     1      22.741  -1.065  54.840  1.00  0.00    -0.036 A 
HETATM    8  O1  UNL     1      23.195  -1.785  55.969  1.00  0.00     0.000 OA
HETATM    9  C7  UNL     1      21.628  -0.613  54.001  1.00  0.00     0.072 C 
HETATM   10  C8  UNL     1      22.298   0.013  53.061  1.00  0.00     0.147 C 
HETATM   11  C9  UNL     1      22.181   0.768  51.832  1.00  0.00    -0.042 A 
HETATM   12  C10 UNL     1      21.415   0.377  50.708  1.00  0.00     0.008 A 
HETATM   13  C11 UNL     1      21.256   1.032  49.476  1.00  0.00     0.001 A 
HETATM   14  C12 UNL     1      21.976   2.195  49.450  1.00  0.00     0.001 A 
HETATM   15  C13 UNL     1      22.736   2.620  50.513  1.00  0.00     0.009 A 
HETATM   16  C14 UNL     1      22.876   1.941  51.736  1.00  0.00    -0.034 A 
HETATM   17  C15 UNL     1      23.778   2.683  52.622  1.00  0.00     0.161 C 
HETATM   18  N2  UNL     1      24.940   1.954  53.093  1.00  0.00    -0.355 N 
HETATM   19  C16 UNL     1      25.951   1.223  52.350  1.00  0.00     0.239 C 
HETATM   20  O3  UNL     1      25.110   1.663  51.522  1.00  0.00    -0.272 OA
HETATM   21  H5  UNL     1      22.529  -2.261  56.589  1.00  0.00     0.000 HD
HETATM   22  H14 UNL     1      25.105   1.938  54.151  1.00  0.00     0.162 HD
ENDROOT
BRANCH   9  23
HETATM   23  O2  UNL     1      20.743  -1.213  54.878  1.00  0.00    -0.390 OA
HETATM   24  H6  UNL     1      20.331  -0.608  55.598  1.00  0.00     0.210 HD
ENDBRANCH   9  23
TORSDOF 1
ENDMDL
MODEL 2
REMARK VINA RESULT:      -8.6      2.136      4.448
REMARK  1 active torsions:
REMARK  status: ('A' for Active; 'I' for Inactive)
REMARK    1  A    between atoms: C7_9  and  O2_10 
ROOT
HETATM    1  N1  UNL     1      29.788  -0.760  54.070  1.00  0.00    -0.196 NA
HETATM    2  C1  UNL     1      28.958   0.048  54.159  1.00  0.00     0.077 C 
HETATM    3  C2  UNL     1      27.892   1.070  54.254  1.00  0.00     0.207 C 
HETATM    4  C3  UNL     1      27.916   1.945  53.068  1.00  0.00    -0.002 C 
HETATM    5  C4  UNL     1      27.203   2.406  52.075  1.00  0.00    -0.019 C 
HETATM    6  C5  UNL     1      26.098   2.659  51.177  1.00  0.00     0.051 A 
HETATM    7  C6  UNL     1      24.902   2.643  50.633  1.00  0.00    -0.036 A 
HETATM    8  O1  UNL     1      25.822   3.422  49.894  1.00  0.00     0.000 OA
HETATM    9  C7  UNL     1      23.543   2.121  50.797  1.00  0.00     0.072 C 
HETATM   10  C8  UNL     1      23.686   1.480  51.934  1.00  0.00     0.147 C 
HETATM   11  C9  UNL     1      23.010   0.674  52.927  1.00  0.00    -0.042 A 
HETATM   12  C10 UNL     1      21.769   0.993  53.526  1.00  0.00     0.008 A 
HETATM   13  C11 UNL     1      21.050   0.285  54.503  1.00  0.00     0.001 A 
HETATM   14  C12 UNL     1      21.718  -0.854  54.863  1.00  0.00     0.001 A 
HETATM   15  C13 UNL     1      22.925  -1.210  54.313  1.00  0.00     0.009 A 
HETATM   16  C14 UNL     1      23.622  -0.479  53.335  1.00  0.00    -0.034 A 
HETATM   17  C15 UNL     1      24.880  -1.154  53.004  1.00  0.00     0.161 C 
HETATM   18  N2  UNL     1      26.085  -0.369  53.189  1.00  0.00    -0.355 N 
HETATM   19  C16 UNL     1      26.555   0.366  54.350  1.00  0.00     0.239 C 
HETATM   20  O3  UNL     1      25.437  -0.135  54.640  1.00  0.00    -0.272 OA
HETATM   21  H5  UNL     1      25.531   3.900  49.033  1.00  0.00     0.000 HD
HETATM   22  H14 UNL     1      26.754  -0.305  52.355  1.00  0.00     0.162 HD
ENDROOT
BRANCH   9  23
HETATM   23  O2  UNL     1      23.184   2.725  49.606  1.00  0.00    -0.390 OA
HETATM   24  H6  UNL     1      23.935   2.874  48.922  1.00  0.00     0.210 HD
ENDBRANCH   9  23
TORSDOF 1
ENDMDL
MODEL 3
REMARK VINA RESULT:      -8.6      2.608      4.964
REMARK  1 active torsions:
REMARK  status: ('A' for Active; 'I' for Inactive)
REMARK    1  A    between atoms: C7_9  and  O2_10 
ROOT
HETATM    1  N1  UNL     1      23.404   5.725  48.614  1.00  0.00    -0.196 NA
HETATM    2  C1  UNL     1      23.804   4.654  48.822  1.00  0.00     0.077 C 
HETATM    3  C2  UNL     1      24.317   3.296  49.108  1.00  0.00     0.207 C 
HETATM    4  C3  UNL     1      25.698   3.367  49.615  1.00  0.00    -0.002 C 
HETATM    5  C4  UNL     1      26.484   3.035  50.605  1.00  0.00    -0.019 C 
HETATM    6  C5  UNL     1      26.966   2.484  51.853  1.00  0.00     0.051 A 
HETATM    7  C6  UNL     1      27.011   1.856  53.005  1.00  0.00    -0.036 A 
HETATM    8  O1  UNL     1      28.252   2.438  52.658  1.00  0.00     0.000 OA
HETATM    9  C7  UNL     1      26.212   1.066  53.946  1.00  0.00     0.072 C 
HETATM   10  C8  UNL     1      25.078   1.014  53.286  1.00  0.00     0.147 C 
HETATM   11  C9  UNL     1      23.720   0.514  53.310  1.00  0.00    -0.042 A 
HETATM   12  C10 UNL     1      23.351  -0.821  53.597  1.00  0.00     0.008 A 
HETATM   13  C11 UNL     1      22.071  -1.398  53.627  1.00  0.00     0.001 A 
HETATM   14  C12 UNL     1      21.114  -0.466  53.325  1.00  0.00     0.001 A 
HETATM   15  C13 UNL     1      21.419   0.842  53.039  1.00  0.00     0.009 A 
HETATM   16  C14 UNL     1      22.713   1.391  53.016  1.00  0.00    -0.034 A 
HETATM   17  C15 UNL     1      22.651   2.809  52.653  1.00  0.00     0.161 C 
HETATM   18  N2  UNL     1      23.419   3.196  51.485  1.00  0.00    -0.355 N 
HETATM   19  C16 UNL     1      23.419   2.648  50.141  1.00  0.00     0.239 C 
HETATM   20  O3  UNL     1      22.615   1.969  50.832  1.00  0.00    -0.272 OA
HETATM   21  H5  UNL     1      29.065   2.348  53.279  1.00  0.00     0.000 HD
HETATM   22  H14 UNL     1      24.101   4.013  51.604  1.00  0.00     0.162 HD
ENDROOT
BRANCH   9  23
HETATM   23  O2  UNL     1      27.301   1.003  54.795  1.00  0.00    -0.390 OA
HETATM   24  H6  UNL     1      28.208   1.278  54.399  1.00  0.00     0.210 HD
ENDBRANCH   9  23
TORSDOF 1
ENDMDL
MODEL 4
REMARK VINA RESULT:      -8.6      3.106      5.994
REMARK  1 active torsions:
REMARK  status: ('A' for Active; 'I' for Inactive)
REMARK    1  A    between atoms: C7_9  and  O2_10 
ROOT
HETATM    1  N1  UNL     1      19.521   3.214  47.589  1.00  0.00    -0.196 NA
HETATM    2  C1  UNL     1      20.383   2.535  47.974  1.00  0.00     0.077 C 
HETATM    3  C2  UNL     1      21.482   1.685  48.481  1.00  0.00     0.207 C 
HETATM    4  C3  UNL     1      22.723   2.471  48.600  1.00  0.00    -0.002 C 
HETATM    5  C4  UNL     1      23.668   2.845  49.420  1.00  0.00    -0.019 C 
HETATM    6  C5  UNL     1      24.469   3.003  50.614  1.00  0.00     0.051 A 
HETATM    7  C6  UNL     1      24.909   2.889  51.847  1.00  0.00    -0.036 A 
HETATM    8  O1  UNL     1      25.708   3.755  51.065  1.00  0.00     0.000 OA
HETATM    9  C7  UNL     1      24.654   2.230  53.130  1.00  0.00     0.072 C 
HETATM   10  C8  UNL     1      23.608   1.506  52.804  1.00  0.00     0.147 C 
HETATM   11  C9  UNL     1      22.636   0.551  53.291  1.00  0.00    -0.042 A 
HETATM   12  C10 UNL     1      22.945  -0.629  54.007  1.00  0.00     0.008 A 
HETATM   13  C11 UNL     1      22.076  -1.616  54.502  1.00  0.00     0.001 A 
HETATM   14  C12 UNL     1      20.777  -1.310  54.202  1.00  0.00     0.001 A 
HETATM   15  C13 UNL     1      20.423  -0.178  53.509  1.00  0.00     0.009 A 
HETATM   16  C14 UNL     1      21.317   0.794  53.026  1.00  0.00    -0.034 A 
HETATM   17  C15 UNL     1      20.582   1.847  52.321  1.00  0.00     0.161 C 
HETATM   18  N2  UNL     1      20.969   2.073  50.942  1.00  0.00    -0.355 N 
HETATM   19  C16 UNL     1      21.084   1.139  49.837  1.00  0.00     0.239 C 
HETATM   20  O3  UNL     1      20.750   0.484  50.859  1.00  0.00    -0.272 OA
HETATM   21  H5  UNL     1      26.531   4.217  51.470  1.00  0.00     0.000 HD
HETATM   22  H14 UNL     1      21.214   3.079  50.667  1.00  0.00     0.162 HD
ENDROOT
BRANCH   9  23
HETATM   23  O2  UNL     1      25.732   2.904  53.673  1.00  0.00    -0.390 OA
HETATM   24  H6  UNL     1      26.577   2.349  53.855  1.00  0.00     0.210 HD
ENDBRANCH   9  23
TORSDOF 1
ENDMDL
MODEL 5
REMARK VINA RESULT:      -8.1      2.572      6.585
REMARK  1 active torsions:
REMARK  status: ('A' for Active; 'I' for Inactive)
REMARK    1  A    between atoms: C7_9  and  O2_10 
ROOT
HETATM    1  N1  UNL     1      19.137   3.285  51.975  1.00  0.00    -0.196 NA
HETATM    2  C1  UNL     1      19.974   2.811  51.323  1.00  0.00     0.077 C 
HETATM    3  C2  UNL     1      21.055   2.220  50.504  1.00  0.00     0.207 C 
HETATM    4  C3  UNL     1      21.700   3.259  49.682  1.00  0.00    -0.002 C 
HETATM    5  C4  UNL     1      22.840   3.826  49.390  1.00  0.00    -0.019 C 
HETATM    6  C5  UNL     1      24.251   4.147  49.370  1.00  0.00     0.051 A 
HETATM    7  C6  UNL     1      25.540   4.122  49.617  1.00  0.00    -0.036 A 
HETATM    8  O1  UNL     1      25.183   5.150  48.715  1.00  0.00     0.000 OA
HETATM    9  C7  UNL     1      26.581   3.411  50.365  1.00  0.00     0.072 C 
HETATM   10  C8  UNL     1      25.850   2.477  50.929  1.00  0.00     0.147 C 
HETATM   11  C9  UNL     1      25.878   1.326  51.806  1.00  0.00    -0.042 A 
HETATM   12  C10 UNL     1      26.773   0.237  51.690  1.00  0.00     0.008 A 
HETATM   13  C11 UNL     1      26.863  -0.922  52.479  1.00  0.00     0.001 A 
HETATM   14  C12 UNL     1      25.917  -0.907  53.468  1.00  0.00     0.001 A 
HETATM   15  C13 UNL     1      25.024   0.125  53.624  1.00  0.00     0.009 A 
HETATM   16  C14 UNL     1      24.958   1.274  52.817  1.00  0.00    -0.034 A 
HETATM   17  C15 UNL     1      23.871   2.145  53.270  1.00  0.00     0.161 C 
HETATM   18  N2  UNL     1      22.861   2.463  52.278  1.00  0.00    -0.355 N 
HETATM   19  C16 UNL     1      22.073   1.587  51.430  1.00  0.00     0.239 C 
HETATM   20  O3  UNL     1      22.849   0.866  52.110  1.00  0.00    -0.272 OA
HETATM   21  H5  UNL     1      25.896   5.779  48.327  1.00  0.00     0.000 HD
HETATM   22  H14 UNL     1      22.642   3.500  52.127  1.00  0.00     0.162 HD
ENDROOT
BRANCH   9  23
HETATM   23  O2  UNL     1      27.519   4.302  49.878  1.00  0.00    -0.390 OA
HETATM   24  H6  UNL     1      27.193   4.970  49.169  1.00  0.00     0.210 HD
ENDBRANCH   9  23
TORSDOF 1
ENDMDL
MODEL 6
REMARK VINA RESULT:      -7.8      3.044      6.557
REMARK  1 active torsions:
REMARK  status: ('A' for Active; 'I' for Inactive)
REMARK    1  A    between atoms: C7_9  and  O2_10 
ROOT
HETATM    1  N1  UNL     1      17.503   0.665  50.582  1.00  0.00    -0.196 NA
HETATM    2  C1  UNL     1      18.560   1.032  50.269  1.00  0.00     0.077 C 
HETATM    3  C2  UNL     1      19.909   1.507  49.889  1.00  0.00     0.207 C 
HETATM    4  C3  UNL     1      19.978   2.977  49.985  1.00  0.00    -0.002 C 
HETATM    5  C4  UNL     1      20.621   3.976  50.527  1.00  0.00    -0.019 C 
HETATM    6  C5  UNL     1      21.573   4.738  51.305  1.00  0.00     0.051 A 
HETATM    7  C6  UNL     1      22.578   5.050  52.091  1.00  0.00    -0.036 A 
HETATM    8  O1  UNL     1      21.863   6.188  51.649  1.00  0.00     0.000 OA
HETATM    9  C7  UNL     1      23.686   4.483  52.864  1.00  0.00     0.072 C 
HETATM   10  C8  UNL     1      23.534   3.212  52.571  1.00  0.00     0.147 C 
HETATM   11  C9  UNL     1      24.058   1.880  52.787  1.00  0.00    -0.042 A 
HETATM   12  C10 UNL     1      25.418   1.512  52.661  1.00  0.00     0.008 A 
HETATM   13  C11 UNL     1      26.012   0.251  52.833  1.00  0.00     0.001 A 
HETATM   14  C12 UNL     1      25.070  -0.685  53.167  1.00  0.00     0.001 A 
HETATM   15  C13 UNL     1      23.738  -0.380  53.302  1.00  0.00     0.009 A 
HETATM   16  C14 UNL     1      23.172   0.894  53.122  1.00  0.00    -0.034 A 
HETATM   17  C15 UNL     1      21.723   0.834  53.330  1.00  0.00     0.161 C 
HETATM   18  N2  UNL     1      20.906   1.282  52.218  1.00  0.00    -0.355 N 
HETATM   19  C16 UNL     1      20.923   0.880  50.823  1.00  0.00     0.239 C 
HETATM   20  O3  UNL     1      21.837   0.249  51.415  1.00  0.00    -0.272 OA
HETATM   21  H5  UNL     1      22.145   7.131  51.944  1.00  0.00     0.000 HD
HETATM   22  H14 UNL     1      20.165   2.025  52.430  1.00  0.00     0.162 HD
ENDROOT
BRANCH   9  23
HETATM   23  O2  UNL     1      24.016   5.755  53.295  1.00  0.00    -0.390 OA
HETATM   24  H6  UNL     1      23.253   6.320  53.684  1.00  0.00     0.210 HD
ENDBRANCH   9  23
TORSDOF 1
ENDMDL
MODEL 7
REMARK VINA RESULT:      -7.5      3.453      6.546
REMARK  1 active torsions:
REMARK  status: ('A' for Active; 'I' for Inactive)
REMARK    1  A    between atoms: C7_9  and  O2_10 
ROOT
HETATM    1  N1  UNL     1      19.784   3.300  46.575  1.00  0.00    -0.196 NA
HETATM    2  C1  UNL     1      20.826   3.221  47.084  1.00  0.00     0.077 C 
HETATM    3  C2  UNL     1      22.143   3.129  47.751  1.00  0.00     0.207 C 
HETATM    4  C3  UNL     1      22.584   4.463  48.198  1.00  0.00    -0.002 C 
HETATM    5  C4  UNL     1      22.973   5.161  49.231  1.00  0.00    -0.019 C 
HETATM    6  C5  UNL     1      23.342   5.532  50.580  1.00  0.00     0.051 A 
HETATM    7  C6  UNL     1      23.602   5.467  51.865  1.00  0.00    -0.036 A 
HETATM    8  O1  UNL     1      23.763   6.773  51.346  1.00  0.00     0.000 OA
HETATM    9  C7  UNL     1      23.668   4.551  53.007  1.00  0.00     0.072 C 
HETATM   10  C8  UNL     1      23.363   3.424  52.406  1.00  0.00     0.147 C 
HETATM   11  C9  UNL     1      23.162   2.003  52.593  1.00  0.00    -0.042 A 
HETATM   12  C10 UNL     1      24.056   1.138  53.265  1.00  0.00     0.008 A 
HETATM   13  C11 UNL     1      23.954  -0.247  53.480  1.00  0.00     0.001 A 
HETATM   14  C12 UNL     1      22.801  -0.737  52.930  1.00  0.00     0.001 A 
HETATM   15  C13 UNL     1      21.899   0.060  52.267  1.00  0.00     0.009 A 
HETATM   16  C14 UNL     1      22.030   1.445  52.067  1.00  0.00    -0.034 A 
HETATM   17  C15 UNL     1      20.887   1.953  51.304  1.00  0.00     0.161 C 
HETATM   18  N2  UNL     1      21.208   2.634  50.064  1.00  0.00    -0.355 N 
HETATM   19  C16 UNL     1      22.019   2.200  48.941  1.00  0.00     0.239 C 
HETATM   20  O3  UNL     1      22.053   1.291  49.811  1.00  0.00    -0.272 OA
HETATM   21  H5  UNL     1      24.053   7.547  51.956  1.00  0.00     0.000 HD
HETATM   22  H14 UNL     1      20.794   3.612  49.928  1.00  0.00     0.162 HD
ENDROOT
BRANCH   9  23
HETATM   23  O2  UNL     1      24.003   5.616  53.823  1.00  0.00    -0.390 OA
HETATM   24  H6  UNL     1      24.688   5.428  54.565  1.00  0.00     0.210 HD
ENDBRANCH   9  23
TORSDOF 1
ENDMDL
MODEL 8
REMARK VINA RESULT:      -7.4     11.101     13.242
REMARK  1 active torsions:
REMARK  status: ('A' for Active; 'I' for Inactive)
REMARK    1  A    between atoms: C7_9  and  O2_10 
ROOT
HETATM    1  N1  UNL     1      35.719   5.918  42.624  1.00  0.00    -0.196 NA
HETATM    2  C1  UNL     1      34.677   6.033  43.126  1.00  0.00     0.077 C 
HETATM    3  C2  UNL     1      33.360   6.179  43.785  1.00  0.00     0.207 C 
HETATM    4  C3  UNL     1      33.094   5.021  44.657  1.00  0.00    -0.002 C 
HETATM    5  C4  UNL     1      32.800   4.657  45.877  1.00  0.00    -0.019 C 
HETATM    6  C5  UNL     1      32.485   4.705  47.288  1.00  0.00     0.051 A 
HETATM    7  C6  UNL     1      32.222   5.154  48.494  1.00  0.00    -0.036 A 
HETATM    8  O1  UNL     1      32.228   3.741  48.432  1.00  0.00     0.000 OA
HETATM    9  C7  UNL     1      32.043   6.377  49.280  1.00  0.00     0.072 C 
HETATM   10  C8  UNL     1      32.200   7.274  48.334  1.00  0.00     0.147 C 
HETATM   11  C9  UNL     1      32.219   8.692  48.043  1.00  0.00    -0.042 A 
HETATM   12  C10 UNL     1      31.223   9.616  48.438  1.00  0.00     0.008 A 
HETATM   13  C11 UNL     1      31.149  10.996  48.190  1.00  0.00     0.001 A 
HETATM   14  C12 UNL     1      32.229  11.414  47.460  1.00  0.00     0.001 A 
HETATM   15  C13 UNL     1      33.223  10.559  47.051  1.00  0.00     0.009 A 
HETATM   16  C14 UNL     1      33.269   9.179  47.316  1.00  0.00    -0.034 A 
HETATM   17  C15 UNL     1      34.466   8.591  46.708  1.00  0.00     0.161 C 
HETATM   18  N2  UNL     1      34.231   7.509  45.770  1.00  0.00    -0.355 N 
HETATM   19  C16 UNL     1      33.368   7.453  44.604  1.00  0.00     0.239 C 
HETATM   20  O3  UNL     1      33.221   8.585  45.134  1.00  0.00    -0.272 OA
HETATM   21  H5  UNL     1      32.040   3.179  49.271  1.00  0.00     0.000 HD
HETATM   22  H14 UNL     1      34.766   6.598  45.939  1.00  0.00     0.162 HD
ENDROOT
BRANCH   9  23
HETATM   23  O2  UNL     1      31.849   5.605  50.410  1.00  0.00    -0.390 OA
HETATM   24  H6  UNL     1      30.875   5.396  50.662  1.00  0.00     0.210 HD
ENDBRANCH   9  23
TORSDOF 1
ENDMDL
MODEL 9
REMARK VINA RESULT:      -7.3      3.663      6.365
REMARK  1 active torsions:
REMARK  status: ('A' for Active; 'I' for Inactive)
REMARK    1  A    between atoms: C7_9  and  O2_10 
ROOT
HETATM    1  N1  UNL     1      21.897   8.564  49.316  1.00  0.00    -0.196 NA
HETATM    2  C1  UNL     1      22.194   7.479  49.021  1.00  0.00     0.077 C 
HETATM    3  C2  UNL     1      22.584   6.098  48.664  1.00  0.00     0.207 C 
HETATM    4  C3  UNL     1      24.049   5.998  48.533  1.00  0.00    -0.002 C 
HETATM    5  C4  UNL     1      25.111   5.365  48.956  1.00  0.00    -0.019 C 
HETATM    6  C5  UNL     1      25.972   4.446  49.668  1.00  0.00     0.051 A 
HETATM    7  C6  UNL     1      26.388   3.486  50.461  1.00  0.00    -0.036 A 
HETATM    8  O1  UNL     1      27.453   4.142  49.801  1.00  0.00     0.000 OA
HETATM    9  C7  UNL     1      25.933   2.444  51.386  1.00  0.00     0.072 C 
HETATM   10  C8  UNL     1      24.634   2.610  51.285  1.00  0.00     0.147 C 
HETATM   11  C9  UNL     1      23.345   2.135  51.741  1.00  0.00    -0.042 A 
HETATM   12  C10 UNL     1      22.941   0.780  51.766  1.00  0.00     0.008 A 
HETATM   13  C11 UNL     1      21.714   0.230  52.172  1.00  0.00     0.001 A 
HETATM   14  C12 UNL     1      20.857   1.215  52.584  1.00  0.00     0.001 A 
HETATM   15  C13 UNL     1      21.199   2.545  52.579  1.00  0.00     0.009 A 
HETATM   16  C14 UNL     1      22.438   3.065  52.165  1.00  0.00    -0.034 A 
HETATM   17  C15 UNL     1      22.433   4.526  52.282  1.00  0.00     0.161 C 
HETATM   18  N2  UNL     1      22.713   5.258  51.061  1.00  0.00    -0.355 N 
HETATM   19  C16 UNL     1      22.096   5.162  49.750  1.00  0.00     0.239 C 
HETATM   20  O3  UNL     1      21.552   4.304  50.493  1.00  0.00    -0.272 OA
HETATM   21  H5  UNL     1      28.426   3.855  49.963  1.00  0.00     0.000 HD
HETATM   22  H14 UNL     1      23.491   5.992  51.104  1.00  0.00     0.162 HD
ENDROOT
BRANCH   9  23
HETATM   23  O2  UNL     1      27.251   2.110  51.635  1.00  0.00    -0.390 OA
HETATM   24  H6  UNL     1      27.966   2.713  51.209  1.00  0.00     0.210 HD
ENDBRANCH   9  23
TORSDOF 1
ENDMDL
