MODEL 1
REMARK VINA RESULT:      -7.1      0.000      0.000
REMARK  2 active torsions:
REMARK  status: ('A' for Active; 'I' for Inactive)
REMARK    1  A    between atoms: C2_2  and  N1_3 
REMARK    2  A    between atoms: N1_3  and  C3_4 
ROOT
HETATM    1  C3  UNL     1      23.798   3.750  50.479  1.00  0.00     0.108 A 
HETATM    2  C4  UNL     1      23.342   3.184  51.685  1.00  0.00     0.194 A 
HETATM    3  N2  UNL     1      23.153   3.798  52.853  1.00  0.00    -0.216 NA
HETATM    4  C5  UNL     1      23.430   5.113  52.920  1.00  0.00     0.236 A 
HETATM    5  N3  UNL     1      23.884   5.719  51.813  1.00  0.00    -0.242 NA
HETATM    6  C6  UNL     1      24.062   5.071  50.663  1.00  0.00     0.084 A 
HETATM    7  C7  UNL     1      24.884   5.726  49.603  1.00  0.00     0.061 A 
HETATM    8  C8  UNL     1      24.305   5.895  48.329  1.00  0.00    -0.005 A 
HETATM    9  C9  UNL     1      24.262   7.055  47.620  1.00  0.00    -0.003 A 
HETATM   10  C10 UNL     1      24.853   8.290  48.178  1.00  0.00    -0.004 A 
HETATM   11  C11 UNL     1      25.393   8.191  49.369  1.00  0.00    -0.025 A 
HETATM   12  C12 UNL     1      25.466   6.997  50.200  1.00  0.00     0.052 A 
HETATM   13  C13 UNL     1      26.101   4.765  49.581  1.00  0.00     0.007 C 
HETATM   14 BR1  UNL     1      27.615   5.341  48.588  1.00  0.00    -0.054 Br
HETATM   15  C14 UNL     1      26.487   3.552  50.065  1.00  0.00     0.014 C 
HETATM   16  C15 UNL     1      26.047   2.425  50.860  1.00  0.00     0.057 C 
HETATM   17  C16 UNL     1      25.549   1.395  51.625  1.00  0.00     0.066 C 
HETATM   18 CL1  UNL     1      26.725   0.074  51.934  1.00  0.00    -0.118 Cl
HETATM   19  C17 UNL     1      24.116   0.950  52.081  1.00  0.00     0.202 C 
HETATM   20  O1  UNL     1      23.148   1.860  51.482  1.00  0.00    -0.331 OA
ENDROOT
BRANCH   1  21
HETATM   21  N1  UNL     1      23.808   3.098  49.220  1.00  0.00    -0.385 N 
HETATM   22  H6  UNL     1      24.618   2.605  48.856  1.00  0.00     0.159 HD
BRANCH  21  23
HETATM   23  C2  UNL     1      22.806   2.911  48.206  1.00  0.00     0.115 C 
HETATM   24  C1  UNL     1      22.044   1.609  48.317  1.00  0.00     0.026 C 
ENDBRANCH  21  23
ENDBRANCH   1  21
TORSDOF 2
ENDMDL
MODEL 2
REMARK VINA RESULT:      -7.1      7.850      9.963
REMARK  2 active torsions:
REMARK  status: ('A' for Active; 'I' for Inactive)
REMARK    1  A    between atoms: C2_2  and  N1_3 
REMARK    2  A    between atoms: N1_3  and  C3_4 
ROOT
HETATM    1  C3  UNL     1      31.755   6.977  47.735  1.00  0.00     0.108 A 
HETATM    2  C4  UNL     1      30.565   7.654  48.064  1.00  0.00     0.194 A 
HETATM    3  N2  UNL     1      29.371   7.122  48.328  1.00  0.00    -0.216 NA
HETATM    4  C5  UNL     1      29.258   5.782  48.271  1.00  0.00     0.236 A 
HETATM    5  N3  UNL     1      30.347   5.070  47.948  1.00  0.00    -0.242 NA
HETATM    6  C6  UNL     1      31.524   5.637  47.690  1.00  0.00     0.084 A 
HETATM    7  C7  UNL     1      32.570   4.817  47.011  1.00  0.00     0.061 A 
HETATM    8  C8  UNL     1      33.828   4.702  47.637  1.00  0.00    -0.005 A 
HETATM    9  C9  UNL     1      34.490   3.540  47.887  1.00  0.00    -0.003 A 
HETATM   10  C10 UNL     1      33.894   2.245  47.498  1.00  0.00    -0.004 A 
HETATM   11  C11 UNL     1      32.716   2.295  46.923  1.00  0.00    -0.025 A 
HETATM   12  C12 UNL     1      31.934   3.489  46.635  1.00  0.00     0.052 A 
HETATM   13  C13 UNL     1      32.649   5.560  45.652  1.00  0.00     0.007 C 
HETATM   14 BR1  UNL     1      33.641   4.705  44.276  1.00  0.00    -0.054 Br
HETATM   15  C14 UNL     1      32.218   6.709  45.060  1.00  0.00     0.014 C 
HETATM   16  C15 UNL     1      31.460   7.921  45.290  1.00  0.00     0.057 C 
HETATM   17  C16 UNL     1      30.729   9.046  45.593  1.00  0.00     0.066 C 
HETATM   18 CL1  UNL     1      30.489  10.163  44.207  1.00  0.00    -0.118 Cl
HETATM   19  C17 UNL     1      30.268   9.740  46.922  1.00  0.00     0.202 C 
HETATM   20  O1  UNL     1      30.816   8.983  48.041  1.00  0.00    -0.331 OA
ENDROOT
BRANCH   1  21
HETATM   21  N1  UNL     1      33.039   7.573  47.645  1.00  0.00    -0.385 N 
HETATM   22  H6  UNL     1      33.488   7.791  46.760  1.00  0.00     0.159 HD
BRANCH  21  23
HETATM   23  C2  UNL     1      33.976   8.035  48.631  1.00  0.00     0.115 C 
HETATM   24  C1  UNL     1      35.415   8.043  48.165  1.00  0.00     0.026 C 
ENDBRANCH  21  23
ENDBRANCH   1  21
TORSDOF 2
ENDMDL
MODEL 3
REMARK VINA RESULT:      -6.8      8.112      9.786
REMARK  2 active torsions:
REMARK  status: ('A' for Active; 'I' for Inactive)
REMARK    1  A    between atoms: C2_2  and  N1_3 
REMARK    2  A    between atoms: N1_3  and  C3_4 
ROOT
HETATM    1  C3  UNL     1      33.389   6.048  46.590  1.00  0.00     0.108 A 
HETATM    2  C4  UNL     1      34.117   5.297  45.646  1.00  0.00     0.194 A 
HETATM    3  N2  UNL     1      34.058   5.381  44.317  1.00  0.00    -0.216 NA
HETATM    4  C5  UNL     1      33.204   6.273  43.785  1.00  0.00     0.236 A 
HETATM    5  N3  UNL     1      32.463   7.015  44.622  1.00  0.00    -0.242 NA
HETATM    6  C6  UNL     1      32.549   6.903  45.946  1.00  0.00     0.084 A 
HETATM    7  C7  UNL     1      31.463   7.499  46.778  1.00  0.00     0.061 A 
HETATM    8  C8  UNL     1      31.830   8.422  47.779  1.00  0.00    -0.005 A 
HETATM    9  C9  UNL     1      31.291   9.657  47.961  1.00  0.00    -0.003 A 
HETATM   10  C10 UNL     1      30.222  10.143  47.063  1.00  0.00    -0.004 A 
HETATM   11  C11 UNL     1      29.853   9.328  46.104  1.00  0.00    -0.025 A 
HETATM   12  C12 UNL     1      30.388   8.002  45.829  1.00  0.00     0.052 A 
HETATM   13  C13 UNL     1      30.836   6.208  47.361  1.00  0.00     0.007 C 
HETATM   14 BR1  UNL     1      29.179   6.408  48.270  1.00  0.00    -0.054 Br
HETATM   15  C14 UNL     1      31.085   4.872  47.456  1.00  0.00     0.014 C 
HETATM   16  C15 UNL     1      32.040   3.841  47.108  1.00  0.00     0.057 C 
HETATM   17  C16 UNL     1      32.999   2.925  46.741  1.00  0.00     0.066 C 
HETATM   18 CL1  UNL     1      32.592   1.227  47.158  1.00  0.00    -0.118 Cl
HETATM   19  C17 UNL     1      34.496   3.017  46.280  1.00  0.00     0.202 C 
HETATM   20  O1  UNL     1      34.896   4.418  46.319  1.00  0.00    -0.331 OA
ENDROOT
BRANCH   1  21
HETATM   21  N1  UNL     1      33.620   6.052  47.988  1.00  0.00    -0.385 N 
HETATM   22  H6  UNL     1      32.931   5.738  48.666  1.00  0.00     0.159 HD
BRANCH  21  23
HETATM   23  C2  UNL     1      34.756   6.410  48.793  1.00  0.00     0.115 C 
HETATM   24  C1  UNL     1      35.419   7.708  48.389  1.00  0.00     0.026 C 
ENDBRANCH  21  23
ENDBRANCH   1  21
TORSDOF 2
ENDMDL
MODEL 4
REMARK VINA RESULT:      -6.8      3.952      5.245
REMARK  2 active torsions:
REMARK  status: ('A' for Active; 'I' for Inactive)
REMARK    1  A    between atoms: C2_2  and  N1_3 
REMARK    2  A    between atoms: N1_3  and  C3_4 
ROOT
HETATM    1  C3  UNL     1      22.075   2.582  50.796  1.00  0.00     0.108 A 
HETATM    2  C4  UNL     1      21.003   3.492  50.725  1.00  0.00     0.194 A 
HETATM    3  N2  UNL     1      20.864   4.641  51.388  1.00  0.00    -0.216 NA
HETATM    4  C5  UNL     1      21.843   4.992  52.240  1.00  0.00     0.236 A 
HETATM    5  N3  UNL     1      22.891   4.166  52.374  1.00  0.00    -0.242 NA
HETATM    6  C6  UNL     1      22.995   3.025  51.695  1.00  0.00     0.084 A 
HETATM    7  C7  UNL     1      23.997   2.018  52.153  1.00  0.00     0.061 A 
HETATM    8  C8  UNL     1      24.950   1.564  51.220  1.00  0.00    -0.005 A 
HETATM    9  C9  UNL     1      26.297   1.525  51.409  1.00  0.00    -0.003 A 
HETATM   10  C10 UNL     1      26.883   1.991  52.684  1.00  0.00    -0.004 A 
HETATM   11  C11 UNL     1      26.039   2.438  53.584  1.00  0.00    -0.025 A 
HETATM   12  C12 UNL     1      24.592   2.530  53.456  1.00  0.00     0.052 A 
HETATM   13  C13 UNL     1      23.043   0.892  52.626  1.00  0.00     0.007 C 
HETATM   14 BR1  UNL     1      23.835  -0.530  53.607  1.00  0.00    -0.054 Br
HETATM   15  C14 UNL     1      21.728   0.542  52.574  1.00  0.00     0.014 C 
HETATM   16  C15 UNL     1      20.435   0.955  52.069  1.00  0.00     0.057 C 
HETATM   17  C16 UNL     1      19.247   1.418  51.553  1.00  0.00     0.066 C 
HETATM   18 CL1  UNL     1      17.820   0.414  51.975  1.00  0.00    -0.118 Cl
HETATM   19  C17 UNL     1      18.854   2.467  50.455  1.00  0.00     0.202 C 
HETATM   20  O1  UNL     1      20.082   2.991  49.870  1.00  0.00    -0.331 OA
ENDROOT
BRANCH   1  21
HETATM   21  N1  UNL     1      22.265   1.470  49.938  1.00  0.00    -0.385 N 
HETATM   22  H6  UNL     1      22.667   0.590  50.249  1.00  0.00     0.159 HD
BRANCH  21  23
HETATM   23  C2  UNL     1      21.958   1.237  48.553  1.00  0.00     0.115 C 
HETATM   24  C1  UNL     1      22.572   2.242  47.603  1.00  0.00     0.026 C 
ENDBRANCH  21  23
ENDBRANCH   1  21
TORSDOF 2
ENDMDL
MODEL 5
REMARK VINA RESULT:      -6.6      3.199      5.683
REMARK  2 active torsions:
REMARK  status: ('A' for Active; 'I' for Inactive)
REMARK    1  A    between atoms: C2_2  and  N1_3 
REMARK    2  A    between atoms: N1_3  and  C3_4 
ROOT
HETATM    1  C3  UNL     1      23.709   4.801  49.978  1.00  0.00     0.108 A 
HETATM    2  C4  UNL     1      23.560   6.194  49.840  1.00  0.00     0.194 A 
HETATM    3  N2  UNL     1      22.759   7.002  50.537  1.00  0.00    -0.216 NA
HETATM    4  C5  UNL     1      21.982   6.445  51.483  1.00  0.00     0.236 A 
HETATM    5  N3  UNL     1      22.056   5.118  51.662  1.00  0.00    -0.242 NA
HETATM    6  C6  UNL     1      22.869   4.343  50.945  1.00  0.00     0.084 A 
HETATM    7  C7  UNL     1      22.639   2.868  50.964  1.00  0.00     0.061 A 
HETATM    8  C8  UNL     1      23.715   2.037  51.335  1.00  0.00    -0.005 A 
HETATM    9  C9  UNL     1      23.677   1.055  52.276  1.00  0.00    -0.003 A 
HETATM   10  C10 UNL     1      22.427   0.783  53.018  1.00  0.00    -0.004 A 
HETATM   11  C11 UNL     1      21.397   1.539  52.720  1.00  0.00    -0.025 A 
HETATM   12  C12 UNL     1      21.358   2.619  51.744  1.00  0.00     0.052 A 
HETATM   13  C13 UNL     1      22.198   2.650  49.494  1.00  0.00     0.007 C 
HETATM   14 BR1  UNL     1      21.477   0.943  49.072  1.00  0.00    -0.054 Br
HETATM   15  C14 UNL     1      22.149   3.313  48.305  1.00  0.00     0.014 C 
HETATM   16  C15 UNL     1      22.462   4.573  47.665  1.00  0.00     0.057 C 
HETATM   17  C16 UNL     1      22.792   5.799  47.134  1.00  0.00     0.066 C 
HETATM   18 CL1  UNL     1      22.336   6.000  45.408  1.00  0.00    -0.118 Cl
HETATM   19  C17 UNL     1      23.714   6.986  47.584  1.00  0.00     0.202 C 
HETATM   20  O1  UNL     1      24.363   6.606  48.832  1.00  0.00    -0.331 OA
ENDROOT
BRANCH   1  21
HETATM   21  N1  UNL     1      24.704   4.016  49.343  1.00  0.00    -0.385 N 
HETATM   22  H6  UNL     1      24.548   3.520  48.470  1.00  0.00     0.159 HD
BRANCH  21  23
HETATM   23  C2  UNL     1      26.079   3.736  49.657  1.00  0.00     0.115 C 
HETATM   24  C1  UNL     1      27.073   4.624  48.942  1.00  0.00     0.026 C 
ENDBRANCH  21  23
ENDBRANCH   1  21
TORSDOF 2
ENDMDL
MODEL 6
REMARK VINA RESULT:      -6.6      5.931      8.118
REMARK  2 active torsions:
REMARK  status: ('A' for Active; 'I' for Inactive)
REMARK    1  A    between atoms: C2_2  and  N1_3 
REMARK    2  A    between atoms: N1_3  and  C3_4 
ROOT
HETATM    1  C3  UNL     1      28.882   7.591  48.318  1.00  0.00     0.108 A 
HETATM    2  C4  UNL     1      27.525   7.254  48.485  1.00  0.00     0.194 A 
HETATM    3  N2  UNL     1      26.996   6.036  48.607  1.00  0.00    -0.216 NA
HETATM    4  C5  UNL     1      27.833   4.984  48.559  1.00  0.00     0.236 A 
HETATM    5  N3  UNL     1      29.141   5.225  48.385  1.00  0.00    -0.242 NA
HETATM    6  C6  UNL     1      29.633   6.458  48.266  1.00  0.00     0.084 A 
HETATM    7  C7  UNL     1      31.019   6.617  47.735  1.00  0.00     0.061 A 
HETATM    8  C8  UNL     1      31.944   7.340  48.515  1.00  0.00    -0.005 A 
HETATM    9  C9  UNL     1      33.191   6.921  48.864  1.00  0.00    -0.003 A 
HETATM   10  C10 UNL     1      33.682   5.598  48.424  1.00  0.00    -0.004 A 
HETATM   11  C11 UNL     1      32.853   4.878  47.707  1.00  0.00    -0.025 A 
HETATM   12  C12 UNL     1      31.502   5.242  47.305  1.00  0.00     0.052 A 
HETATM   13  C13 UNL     1      30.707   7.313  46.385  1.00  0.00     0.007 C 
HETATM   14 BR1  UNL     1      32.149   7.462  45.158  1.00  0.00    -0.054 Br
HETATM   15  C14 UNL     1      29.672   7.904  45.725  1.00  0.00     0.014 C 
HETATM   16  C15 UNL     1      28.273   8.260  45.840  1.00  0.00     0.057 C 
HETATM   17  C16 UNL     1      26.945   8.564  46.032  1.00  0.00     0.066 C 
HETATM   18 CL1  UNL     1      26.151   9.320  44.609  1.00  0.00    -0.118 Cl
HETATM   19  C17 UNL     1      26.003   8.661  47.282  1.00  0.00     0.202 C 
HETATM   20  O1  UNL     1      26.803   8.398  48.472  1.00  0.00    -0.331 OA
ENDROOT
BRANCH   1  21
HETATM   21  N1  UNL     1      29.415   8.903  48.378  1.00  0.00    -0.385 N 
HETATM   22  H6  UNL     1      29.690   9.429  47.554  1.00  0.00     0.159 HD
BRANCH  21  23
HETATM   23  C2  UNL     1      29.667   9.809  49.465  1.00  0.00     0.115 C 
HETATM   24  C1  UNL     1      30.632  10.926  49.132  1.00  0.00     0.026 C 
ENDBRANCH  21  23
ENDBRANCH   1  21
TORSDOF 2
ENDMDL
MODEL 7
REMARK VINA RESULT:      -6.4      8.046      9.509
REMARK  2 active torsions:
REMARK  status: ('A' for Active; 'I' for Inactive)
REMARK    1  A    between atoms: C2_2  and  N1_3 
REMARK    2  A    between atoms: N1_3  and  C3_4 
ROOT
HETATM    1  C3  UNL     1      32.405   6.821  47.536  1.00  0.00     0.108 A 
HETATM    2  C4  UNL     1      33.539   5.990  47.608  1.00  0.00     0.194 A 
HETATM    3  N2  UNL     1      34.786   6.338  47.927  1.00  0.00    -0.216 NA
HETATM    4  C5  UNL     1      35.021   7.632  48.209  1.00  0.00     0.236 A 
HETATM    5  N3  UNL     1      33.991   8.489  48.146  1.00  0.00    -0.242 NA
HETATM    6  C6  UNL     1      32.757   8.104  47.822  1.00  0.00     0.084 A 
HETATM    7  C7  UNL     1      31.767   9.153  47.441  1.00  0.00     0.061 A 
HETATM    8  C8  UNL     1      30.550   9.201  48.151  1.00  0.00    -0.005 A 
HETATM    9  C9  UNL     1      30.008  10.306  48.730  1.00  0.00    -0.003 A 
HETATM   10  C10 UNL     1      30.707  11.607  48.650  1.00  0.00    -0.004 A 
HETATM   11  C11 UNL     1      31.852  11.614  48.012  1.00  0.00    -0.025 A 
HETATM   12  C12 UNL     1      32.509  10.478  47.381  1.00  0.00     0.052 A 
HETATM   13  C13 UNL     1      31.569   8.799  45.945  1.00  0.00     0.007 C 
HETATM   14 BR1  UNL     1      30.608  10.059  44.897  1.00  0.00    -0.054 Br
HETATM   15  C14 UNL     1      31.868   7.814  45.052  1.00  0.00     0.014 C 
HETATM   16  C15 UNL     1      32.519   6.527  44.918  1.00  0.00     0.057 C 
HETATM   17  C16 UNL     1      33.154   5.307  44.877  1.00  0.00     0.066 C 
HETATM   18 CL1  UNL     1      33.236   4.575  43.240  1.00  0.00    -0.118 Cl
HETATM   19  C17 UNL     1      33.598   4.257  45.954  1.00  0.00     0.202 C 
HETATM   20  O1  UNL     1      33.165   4.737  47.260  1.00  0.00    -0.331 OA
ENDROOT
BRANCH   1  21
HETATM   21  N1  UNL     1      31.069   6.374  47.374  1.00  0.00    -0.385 N 
HETATM   22  H6  UNL     1      30.535   6.518  46.522  1.00  0.00     0.159 HD
BRANCH  21  23
HETATM   23  C2  UNL     1      30.172   5.640  48.224  1.00  0.00     0.115 C 
HETATM   24  C1  UNL     1      28.718   6.028  48.074  1.00  0.00     0.026 C 
ENDBRANCH  21  23
ENDBRANCH   1  21
TORSDOF 2
ENDMDL
MODEL 8
REMARK VINA RESULT:      -6.2      7.662      9.654
REMARK  2 active torsions:
REMARK  status: ('A' for Active; 'I' for Inactive)
REMARK    1  A    between atoms: C2_2  and  N1_3 
REMARK    2  A    between atoms: N1_3  and  C3_4 
ROOT
HETATM    1  C3  UNL     1      30.592   7.545  46.505  1.00  0.00     0.108 A 
HETATM    2  C4  UNL     1      30.134   8.664  45.783  1.00  0.00     0.194 A 
HETATM    3  N2  UNL     1      30.578   9.115  44.609  1.00  0.00    -0.216 NA
HETATM    4  C5  UNL     1      31.590   8.448  44.027  1.00  0.00     0.236 A 
HETATM    5  N3  UNL     1      32.092   7.379  44.663  1.00  0.00    -0.242 NA
HETATM    6  C6  UNL     1      31.622   6.958  45.837  1.00  0.00     0.084 A 
HETATM    7  C7  UNL     1      32.448   5.997  46.625  1.00  0.00     0.061 A 
HETATM    8  C8  UNL     1      31.851   4.782  47.018  1.00  0.00    -0.005 A 
HETATM    9  C9  UNL     1      32.372   3.540  46.829  1.00  0.00    -0.003 A 
HETATM   10  C10 UNL     1      33.676   3.375  46.153  1.00  0.00    -0.004 A 
HETATM   11  C11 UNL     1      34.268   4.475  45.754  1.00  0.00    -0.025 A 
HETATM   12  C12 UNL     1      33.774   5.837  45.900  1.00  0.00     0.052 A 
HETATM   13  C13 UNL     1      32.819   6.895  47.833  1.00  0.00     0.007 C 
HETATM   14 BR1  UNL     1      34.150   6.223  49.010  1.00  0.00    -0.054 Br
HETATM   15  C14 UNL     1      32.490   8.096  48.386  1.00  0.00     0.014 C 
HETATM   16  C15 UNL     1      31.629   9.250  48.230  1.00  0.00     0.057 C 
HETATM   17  C16 UNL     1      30.775  10.306  48.011  1.00  0.00     0.066 C 
HETATM   18 CL1  UNL     1      30.964  11.659  49.176  1.00  0.00    -0.118 Cl
HETATM   19  C17 UNL     1      29.482  10.521  47.150  1.00  0.00     0.202 C 
HETATM   20  O1  UNL     1      29.154   9.257  46.503  1.00  0.00    -0.331 OA
ENDROOT
BRANCH   1  21
HETATM   21  N1  UNL     1      29.968   6.999  47.654  1.00  0.00    -0.385 N 
HETATM   22  H6  UNL     1      30.456   6.847  48.532  1.00  0.00     0.159 HD
BRANCH  21  23
HETATM   23  C2  UNL     1      28.622   6.578  47.932  1.00  0.00     0.115 C 
HETATM   24  C1  UNL     1      28.504   5.151  48.419  1.00  0.00     0.026 C 
ENDBRANCH  21  23
ENDBRANCH   1  21
TORSDOF 2
ENDMDL
MODEL 9
REMARK VINA RESULT:      -6.2      3.242      5.335
REMARK  2 active torsions:
REMARK  status: ('A' for Active; 'I' for Inactive)
REMARK    1  A    between atoms: C2_2  and  N1_3 
REMARK    2  A    between atoms: N1_3  and  C3_4 
ROOT
HETATM    1  C3  UNL     1      22.799   5.471  50.904  1.00  0.00     0.108 A 
HETATM    2  C4  UNL     1      23.165   6.830  50.895  1.00  0.00     0.194 A 
HETATM    3  N2  UNL     1      22.446   7.866  50.461  1.00  0.00    -0.216 NA
HETATM    4  C5  UNL     1      21.224   7.611  49.960  1.00  0.00     0.236 A 
HETATM    5  N3  UNL     1      20.811   6.335  49.921  1.00  0.00    -0.242 NA
HETATM    6  C6  UNL     1      21.559   5.326  50.363  1.00  0.00     0.084 A 
HETATM    7  C7  UNL     1      21.178   3.938  49.968  1.00  0.00     0.061 A 
HETATM    8  C8  UNL     1      20.972   2.993  50.994  1.00  0.00    -0.005 A 
HETATM    9  C9  UNL     1      19.882   2.191  51.133  1.00  0.00    -0.003 A 
HETATM   10  C10 UNL     1      18.774   2.266  50.157  1.00  0.00    -0.004 A 
HETATM   11  C11 UNL     1      18.909   3.141  49.189  1.00  0.00    -0.025 A 
HETATM   12  C12 UNL     1      20.029   4.046  48.978  1.00  0.00     0.052 A 
HETATM   13  C13 UNL     1      22.383   3.579  49.062  1.00  0.00     0.007 C 
HETATM   14 BR1  UNL     1      22.227   1.986  48.038  1.00  0.00    -0.054 Br
HETATM   15  C14 UNL     1      23.616   4.049  48.723  1.00  0.00     0.014 C 
HETATM   16  C15 UNL     1      24.560   5.119  48.972  1.00  0.00     0.057 C 
HETATM   17  C16 UNL     1      25.399   6.168  49.268  1.00  0.00     0.066 C 
HETATM   18 CL1  UNL     1      26.924   6.181  48.319  1.00  0.00    -0.118 Cl
HETATM   19  C17 UNL     1      25.482   7.224  50.425  1.00  0.00     0.202 C 
HETATM   20  O1  UNL     1      24.424   6.930  51.383  1.00  0.00    -0.331 OA
ENDROOT
BRANCH   1  21
HETATM   21  N1  UNL     1      23.521   4.431  51.542  1.00  0.00    -0.385 N 
HETATM   22  H6  UNL     1      24.079   3.750  51.035  1.00  0.00     0.159 HD
BRANCH  21  23
HETATM   23  C2  UNL     1      23.710   4.073  52.921  1.00  0.00     0.115 C 
HETATM   24  C1  UNL     1      24.320   2.704  53.130  1.00  0.00     0.026 C 
ENDBRANCH  21  23
ENDBRANCH   1  21
TORSDOF 2
ENDMDL
