MODEL 1
REMARK VINA RESULT:      -8.6      0.000      0.000
REMARK  8 active torsions:
REMARK  status: ('A' for Active; 'I' for Inactive)
REMARK    1  A    between atoms: C3_3  and  C4_4 
REMARK    2  A    between atoms: C5_5  and  N1_6 
REMARK    3  A    between atoms: N1_6  and  C6_7 
REMARK    4  A    between atoms: C10_12  and  C11_13 
REMARK    5  A    between atoms: C14_17  and  C15_18 
REMARK    6  A    between atoms: C15_18  and  N3_19 
REMARK       I    between atoms: N3_19  and  C16_20 
REMARK    7  A    between atoms: C16_20  and  C17_22 
REMARK    8  A    between atoms: C17_22  and  C18_23 
ROOT
HETATM    1  C6  UNL     1      25.064   5.217  49.180  1.00  0.00     0.135 C 
HETATM    2  N2  UNL     1      24.439   6.248  48.661  1.00  0.00    -0.243 NA
HETATM    3  C7  UNL     1      24.840   7.305  47.788  1.00  0.00     0.119 C 
HETATM    4  C8  UNL     1      25.962   7.838  47.334  1.00  0.00     0.020 C 
HETATM    5  C9  UNL     1      27.355   7.501  47.590  1.00  0.00     0.013 C 
HETATM    6  C10 UNL     1      27.988   6.479  48.130  1.00  0.00    -0.035 C 
HETATM    7  C13 UNL     1      27.515   5.232  48.704  1.00  0.00     0.024 C 
HETATM    8  C14 UNL     1      26.425   4.636  49.144  1.00  0.00     0.006 C 
ENDROOT
BRANCH   8   9
HETATM    9  C15 UNL     1      26.391   3.264  49.683  1.00  0.00     0.165 C 
BRANCH   9  10
HETATM   10  N3  UNL     1      27.029   3.110  50.971  1.00  0.00    -0.356 N 
HETATM   11  C16 UNL     1      26.200   2.345  51.835  1.00  0.00     0.222 C 
HETATM   12  O1  UNL     1      25.064   1.833  51.612  1.00  0.00    -0.273 OA
HETATM   13  H17 UNL     1      27.879   3.358  51.498  1.00  0.00     0.162 HD
BRANCH  11  14
HETATM   14  C17 UNL     1      26.507   1.973  53.240  1.00  0.00     0.141 C 
BRANCH  14  15
HETATM   15  C18 UNL     1      27.545   0.941  53.309  1.00  0.00    -0.050 A 
HETATM   16  C19 UNL     1      27.112  -0.351  53.065  1.00  0.00     0.007 A 
HETATM   17  C20 UNL     1      28.042  -1.385  53.114  1.00  0.00     0.001 A 
HETATM   18  C21 UNL     1      29.380  -1.184  53.394  1.00  0.00     0.000 A 
HETATM   19  C22 UNL     1      29.811   0.115  53.637  1.00  0.00     0.001 A 
HETATM   20  C23 UNL     1      28.870   1.138  53.587  1.00  0.00     0.007 A 
ENDBRANCH  14  15
ENDBRANCH  11  14
ENDBRANCH   9  10
ENDBRANCH   8   9
BRANCH   1  21
HETATM   21  N1  UNL     1      24.155   4.487  49.991  1.00  0.00    -0.350 N 
HETATM   22  H8  UNL     1      24.347   4.393  51.002  1.00  0.00     0.166 HD
BRANCH  21  23
HETATM   23  C5  UNL     1      22.966   3.866  49.454  1.00  0.00     0.090 C 
HETATM   24  C4  UNL     1      23.075   2.781  48.698  1.00  0.00     0.017 C 
BRANCH  24  25
HETATM   25  C3  UNL     1      21.869   2.169  48.167  1.00  0.00    -0.003 C 
HETATM   26  C2  UNL     1      21.192   1.256  48.839  1.00  0.00    -0.031 C 
HETATM   27  C1  UNL     1      21.466   0.681  50.179  1.00  0.00     0.036 C 
ENDBRANCH  24  25
ENDBRANCH  21  23
ENDBRANCH   1  21
BRANCH   6  28
HETATM   28  C11 UNL     1      29.427   6.575  48.180  1.00  0.00     0.019 C 
HETATM   29  C12 UNL     1      30.344   5.655  48.275  1.00  0.00     0.057 C 
HETATM   30 BR1  UNL     1      32.233   5.905  48.332  1.00  0.00    -0.064 Br
ENDBRANCH   6  28
TORSDOF 8
ENDMDL
MODEL 2
REMARK VINA RESULT:      -8.4      3.213      6.174
REMARK  8 active torsions:
REMARK  status: ('A' for Active; 'I' for Inactive)
REMARK    1  A    between atoms: C3_3  and  C4_4 
REMARK    2  A    between atoms: C5_5  and  N1_6 
REMARK    3  A    between atoms: N1_6  and  C6_7 
REMARK    4  A    between atoms: C10_12  and  C11_13 
REMARK    5  A    between atoms: C14_17  and  C15_18 
REMARK    6  A    between atoms: C15_18  and  N3_19 
REMARK       I    between atoms: N3_19  and  C16_20 
REMARK    7  A    between atoms: C16_20  and  C17_22 
REMARK    8  A    between atoms: C17_22  and  C18_23 
ROOT
HETATM    1  C6  UNL     1      23.937   2.989  49.750  1.00  0.00     0.135 C 
HETATM    2  N2  UNL     1      23.291   2.779  48.627  1.00  0.00    -0.243 NA
HETATM    3  C7  UNL     1      22.085   2.087  48.300  1.00  0.00     0.119 C 
HETATM    4  C8  UNL     1      21.265   1.214  48.860  1.00  0.00     0.020 C 
HETATM    5  C9  UNL     1      21.300   0.567  50.164  1.00  0.00     0.013 C 
HETATM    6  C10 UNL     1      21.962   0.758  51.288  1.00  0.00    -0.035 C 
HETATM    7  C13 UNL     1      22.958   1.739  51.677  1.00  0.00     0.024 C 
HETATM    8  C14 UNL     1      23.777   2.645  51.180  1.00  0.00     0.006 C 
ENDROOT
BRANCH   8   9
HETATM    9  C15 UNL     1      24.682   3.478  51.994  1.00  0.00     0.165 C 
BRANCH   9  10
HETATM   10  N3  UNL     1      25.345   2.771  53.067  1.00  0.00    -0.356 N 
HETATM   11  C16 UNL     1      26.661   2.410  52.670  1.00  0.00     0.222 C 
HETATM   12  O1  UNL     1      27.257   2.626  51.574  1.00  0.00    -0.273 OA
HETATM   13  H17 UNL     1      25.207   2.428  54.029  1.00  0.00     0.162 HD
BRANCH  11  14
HETATM   14  C17 UNL     1      27.653   1.674  53.496  1.00  0.00     0.141 C 
BRANCH  14  15
HETATM   15  C18 UNL     1      27.645   0.240  53.195  1.00  0.00    -0.050 A 
HETATM   16  C19 UNL     1      28.822  -0.431  53.477  1.00  0.00     0.007 A 
HETATM   17  C20 UNL     1      28.889  -1.797  53.217  1.00  0.00     0.001 A 
HETATM   18  C21 UNL     1      27.834  -2.517  52.691  1.00  0.00     0.000 A 
HETATM   19  C22 UNL     1      26.653  -1.840  52.410  1.00  0.00     0.001 A 
HETATM   20  C23 UNL     1      26.601  -0.475  52.674  1.00  0.00     0.007 A 
ENDBRANCH  14  15
ENDBRANCH  11  14
ENDBRANCH   9  10
ENDBRANCH   8   9
BRANCH   1  21
HETATM   21  N1  UNL     1      25.101   3.756  49.476  1.00  0.00    -0.350 N 
HETATM   22  H8  UNL     1      26.027   3.369  49.721  1.00  0.00     0.166 HD
BRANCH  21  23
HETATM   23  C5  UNL     1      25.040   5.065  48.867  1.00  0.00     0.090 C 
HETATM   24  C4  UNL     1      26.101   5.860  48.910  1.00  0.00     0.017 C 
BRANCH  24  25
HETATM   25  C3  UNL     1      26.024   7.172  48.292  1.00  0.00    -0.003 C 
HETATM   26  C2  UNL     1      25.393   8.181  48.865  1.00  0.00    -0.031 C 
HETATM   27  C1  UNL     1      24.672   8.223  50.162  1.00  0.00     0.036 C 
ENDBRANCH  24  25
ENDBRANCH  21  23
ENDBRANCH   1  21
BRANCH   6  28
HETATM   28  C11 UNL     1      21.668  -0.158  52.363  1.00  0.00     0.019 C 
HETATM   29  C12 UNL     1      22.339  -0.459  53.438  1.00  0.00     0.057 C 
HETATM   30 BR1  UNL     1      21.846  -1.698  54.801  1.00  0.00    -0.064 Br
ENDBRANCH   6  28
TORSDOF 8
ENDMDL
MODEL 3
REMARK VINA RESULT:      -8.4      3.662      8.378
REMARK  8 active torsions:
REMARK  status: ('A' for Active; 'I' for Inactive)
REMARK    1  A    between atoms: C3_3  and  C4_4 
REMARK    2  A    between atoms: C5_5  and  N1_6 
REMARK    3  A    between atoms: N1_6  and  C6_7 
REMARK    4  A    between atoms: C10_12  and  C11_13 
REMARK    5  A    between atoms: C14_17  and  C15_18 
REMARK    6  A    between atoms: C15_18  and  N3_19 
REMARK       I    between atoms: N3_19  and  C16_20 
REMARK    7  A    between atoms: C16_20  and  C17_22 
REMARK    8  A    between atoms: C17_22  and  C18_23 
ROOT
HETATM    1  C6  UNL     1      24.659   1.125  53.491  1.00  0.00     0.135 C 
HETATM    2  N2  UNL     1      24.523  -0.132  53.844  1.00  0.00    -0.243 NA
HETATM    3  C7  UNL     1      23.482  -1.095  53.673  1.00  0.00     0.119 C 
HETATM    4  C8  UNL     1      22.202  -1.117  53.339  1.00  0.00     0.020 C 
HETATM    5  C9  UNL     1      21.287  -0.042  52.983  1.00  0.00     0.013 C 
HETATM    6  C10 UNL     1      21.415   1.226  52.649  1.00  0.00    -0.035 C 
HETATM    7  C13 UNL     1      22.577   2.081  52.497  1.00  0.00     0.024 C 
HETATM    8  C14 UNL     1      23.864   2.148  52.776  1.00  0.00     0.006 C 
ENDROOT
BRANCH   8   9
HETATM    9  C15 UNL     1      24.733   3.283  52.411  1.00  0.00     0.165 C 
BRANCH   9  10
HETATM   10  N3  UNL     1      24.872   3.497  50.988  1.00  0.00    -0.356 N 
HETATM   11  C16 UNL     1      26.219   3.274  50.592  1.00  0.00     0.222 C 
HETATM   12  O1  UNL     1      27.217   2.938  51.295  1.00  0.00    -0.273 OA
HETATM   13  H17 UNL     1      24.341   3.758  50.144  1.00  0.00     0.162 HD
BRANCH  11  14
HETATM   14  C17 UNL     1      26.758   3.396  49.213  1.00  0.00     0.141 C 
BRANCH  14  15
HETATM   15  C18 UNL     1      27.008   4.794  48.854  1.00  0.00    -0.050 A 
HETATM   16  C19 UNL     1      28.301   5.079  48.451  1.00  0.00     0.007 A 
HETATM   17  C20 UNL     1      28.614   6.388  48.094  1.00  0.00     0.001 A 
HETATM   18  C21 UNL     1      27.694   7.418  48.122  1.00  0.00     0.000 A 
HETATM   19  C22 UNL     1      26.396   7.127  48.527  1.00  0.00     0.001 A 
HETATM   20  C23 UNL     1      26.098   5.815  48.881  1.00  0.00     0.007 A 
ENDBRANCH  14  15
ENDBRANCH  11  14
ENDBRANCH   9  10
ENDBRANCH   8   9
BRANCH   1  21
HETATM   21  N1  UNL     1      25.925   1.593  53.933  1.00  0.00    -0.350 N 
HETATM   22  H8  UNL     1      26.074   2.610  54.042  1.00  0.00     0.166 HD
BRANCH  21  23
HETATM   23  C5  UNL     1      27.019   0.700  54.236  1.00  0.00     0.090 C 
HETATM   24  C4  UNL     1      27.916   0.418  53.301  1.00  0.00     0.017 C 
BRANCH  24  25
HETATM   25  C3  UNL     1      29.010  -0.482  53.622  1.00  0.00    -0.003 C 
HETATM   26  C2  UNL     1      28.957  -1.774  53.354  1.00  0.00    -0.031 C 
HETATM   27  C1  UNL     1      27.870  -2.557  52.716  1.00  0.00     0.036 C 
ENDBRANCH  24  25
ENDBRANCH  21  23
ENDBRANCH   1  21
BRANCH   6  28
HETATM   28  C11 UNL     1      20.191   1.938  52.370  1.00  0.00     0.019 C 
HETATM   29  C12 UNL     1      19.104   1.565  51.758  1.00  0.00     0.057 C 
HETATM   30 BR1  UNL     1      17.536   2.604  51.447  1.00  0.00    -0.064 Br
ENDBRANCH   6  28
TORSDOF 8
ENDMDL
MODEL 4
REMARK VINA RESULT:      -8.3      3.707      8.419
REMARK  8 active torsions:
REMARK  status: ('A' for Active; 'I' for Inactive)
REMARK    1  A    between atoms: C3_3  and  C4_4 
REMARK    2  A    between atoms: C5_5  and  N1_6 
REMARK    3  A    between atoms: N1_6  and  C6_7 
REMARK    4  A    between atoms: C10_12  and  C11_13 
REMARK    5  A    between atoms: C14_17  and  C15_18 
REMARK    6  A    between atoms: C15_18  and  N3_19 
REMARK       I    between atoms: N3_19  and  C16_20 
REMARK    7  A    between atoms: C16_20  and  C17_22 
REMARK    8  A    between atoms: C17_22  and  C18_23 
ROOT
HETATM    1  C6  UNL     1      23.875   0.272  53.335  1.00  0.00     0.135 C 
HETATM    2  N2  UNL     1      23.413  -0.590  54.212  1.00  0.00    -0.243 NA
HETATM    3  C7  UNL     1      22.101  -1.047  54.544  1.00  0.00     0.119 C 
HETATM    4  C8  UNL     1      20.847  -0.686  54.333  1.00  0.00     0.020 C 
HETATM    5  C9  UNL     1      20.284   0.438  53.599  1.00  0.00     0.013 C 
HETATM    6  C10 UNL     1      20.747   1.320  52.736  1.00  0.00    -0.035 C 
HETATM    7  C13 UNL     1      22.062   1.516  52.153  1.00  0.00     0.024 C 
HETATM    8  C14 UNL     1      23.326   1.169  52.295  1.00  0.00     0.006 C 
ENDROOT
BRANCH   8   9
HETATM    9  C15 UNL     1      24.416   1.633  51.417  1.00  0.00     0.165 C 
BRANCH   9  10
HETATM   10  N3  UNL     1      24.575   3.069  51.368  1.00  0.00    -0.356 N 
HETATM   11  C16 UNL     1      24.275   3.547  50.063  1.00  0.00     0.222 C 
HETATM   12  O1  UNL     1      23.915   2.901  49.036  1.00  0.00    -0.273 OA
HETATM   13  H17 UNL     1      24.832   3.885  51.943  1.00  0.00     0.162 HD
BRANCH  11  14
HETATM   14  C17 UNL     1      24.323   4.963  49.616  1.00  0.00     0.141 C 
BRANCH  14  15
HETATM   15  C18 UNL     1      25.650   5.324  49.113  1.00  0.00    -0.050 A 
HETATM   16  C19 UNL     1      25.760   6.603  48.595  1.00  0.00     0.007 A 
HETATM   17  C20 UNL     1      26.992   7.016  48.097  1.00  0.00     0.001 A 
HETATM   18  C21 UNL     1      28.114   6.210  48.095  1.00  0.00     0.000 A 
HETATM   19  C22 UNL     1      28.000   4.926  48.616  1.00  0.00     0.001 A 
HETATM   20  C23 UNL     1      26.763   4.527  49.110  1.00  0.00     0.007 A 
ENDBRANCH  14  15
ENDBRANCH  11  14
ENDBRANCH   9  10
ENDBRANCH   8   9
BRANCH   1  21
HETATM   21  N1  UNL     1      25.290   0.330  53.449  1.00  0.00    -0.350 N 
HETATM   22  H8  UNL     1      25.757   1.252  53.437  1.00  0.00     0.166 HD
BRANCH  21  23
HETATM   23  C5  UNL     1      26.106  -0.854  53.580  1.00  0.00     0.090 C 
HETATM   24  C4  UNL     1      26.925  -1.200  52.595  1.00  0.00     0.017 C 
BRANCH  24  25
HETATM   25  C3  UNL     1      27.739  -2.394  52.742  1.00  0.00    -0.003 C 
HETATM   26  C2  UNL     1      28.990  -2.342  53.162  1.00  0.00    -0.031 C 
HETATM   27  C1  UNL     1      29.802  -1.163  53.552  1.00  0.00     0.036 C 
ENDBRANCH  24  25
ENDBRANCH  21  23
ENDBRANCH   1  21
BRANCH   6  28
HETATM   28  C11 UNL     1      19.799   2.293  52.249  1.00  0.00     0.019 C 
HETATM   29  C12 UNL     1      19.798   3.022  51.170  1.00  0.00     0.057 C 
HETATM   30 BR1  UNL     1      18.478   4.286  50.628  1.00  0.00    -0.064 Br
ENDBRANCH   6  28
TORSDOF 8
ENDMDL
MODEL 5
REMARK VINA RESULT:      -8.2      3.575      6.754
REMARK  8 active torsions:
REMARK  status: ('A' for Active; 'I' for Inactive)
REMARK    1  A    between atoms: C3_3  and  C4_4 
REMARK    2  A    between atoms: C5_5  and  N1_6 
REMARK    3  A    between atoms: N1_6  and  C6_7 
REMARK    4  A    between atoms: C10_12  and  C11_13 
REMARK    5  A    between atoms: C14_17  and  C15_18 
REMARK    6  A    between atoms: C15_18  and  N3_19 
REMARK       I    between atoms: N3_19  and  C16_20 
REMARK    7  A    between atoms: C16_20  and  C17_22 
REMARK    8  A    between atoms: C17_22  and  C18_23 
ROOT
HETATM    1  C6  UNL     1      23.302   2.787  49.876  1.00  0.00     0.135 C 
HETATM    2  N2  UNL     1      22.766   2.936  48.687  1.00  0.00    -0.243 NA
HETATM    3  C7  UNL     1      21.461   2.699  48.159  1.00  0.00     0.119 C 
HETATM    4  C8  UNL     1      20.358   2.055  48.503  1.00  0.00     0.020 C 
HETATM    5  C9  UNL     1      20.041   1.264  49.683  1.00  0.00     0.013 C 
HETATM    6  C10 UNL     1      20.585   1.092  50.871  1.00  0.00    -0.035 C 
HETATM    7  C13 UNL     1      21.768   1.658  51.492  1.00  0.00     0.024 C 
HETATM    8  C14 UNL     1      22.871   2.325  51.215  1.00  0.00     0.006 C 
ENDROOT
BRANCH   8   9
HETATM    9  C15 UNL     1      23.874   2.724  52.221  1.00  0.00     0.165 C 
BRANCH   9  10
HETATM   10  N3  UNL     1      24.106   1.743  53.257  1.00  0.00    -0.356 N 
HETATM   11  C16 UNL     1      25.044   0.775  52.808  1.00  0.00     0.222 C 
HETATM   12  O1  UNL     1      25.642   0.693  51.696  1.00  0.00    -0.273 OA
HETATM   13  H17 UNL     1      23.832   1.486  54.217  1.00  0.00     0.162 HD
BRANCH  11  14
HETATM   14  C17 UNL     1      25.539  -0.391  53.585  1.00  0.00     0.141 C 
BRANCH  14  15
HETATM   15  C18 UNL     1      27.002  -0.409  53.655  1.00  0.00    -0.050 A 
HETATM   16  C19 UNL     1      27.575   0.641  54.352  1.00  0.00     0.007 A 
HETATM   17  C20 UNL     1      28.961   0.691  54.461  1.00  0.00     0.001 A 
HETATM   18  C21 UNL     1      29.796  -0.261  53.907  1.00  0.00     0.000 A 
HETATM   19  C22 UNL     1      29.217  -1.314  53.208  1.00  0.00     0.001 A 
HETATM   20  C23 UNL     1      27.830  -1.350  53.107  1.00  0.00     0.007 A 
ENDBRANCH  14  15
ENDBRANCH  11  14
ENDBRANCH   9  10
ENDBRANCH   8   9
BRANCH   1  21
HETATM   21  N1  UNL     1      24.663   3.187  49.823  1.00  0.00    -0.350 N 
HETATM   22  H8  UNL     1      25.382   2.582  50.253  1.00  0.00     0.166 HD
BRANCH  21  23
HETATM   23  C5  UNL     1      25.085   4.415  49.189  1.00  0.00     0.090 C 
HETATM   24  C4  UNL     1      26.336   4.832  49.331  1.00  0.00     0.017 C 
BRANCH  24  25
HETATM   25  C3  UNL     1      26.745   6.068  48.686  1.00  0.00    -0.003 C 
HETATM   26  C2  UNL     1      27.966   6.244  48.217  1.00  0.00    -0.031 C 
HETATM   27  C1  UNL     1      29.120   5.311  48.228  1.00  0.00     0.036 C 
ENDBRANCH  24  25
ENDBRANCH  21  23
ENDBRANCH   1  21
BRANCH   6  28
HETATM   28  C11 UNL     1      19.905   0.178  51.757  1.00  0.00     0.019 C 
HETATM   29  C12 UNL     1      18.645  -0.129  51.868  1.00  0.00     0.057 C 
HETATM   30 BR1  UNL     1      17.857  -1.364  53.089  1.00  0.00    -0.064 Br
ENDBRANCH   6  28
TORSDOF 8
ENDMDL
MODEL 6
REMARK VINA RESULT:      -8.2      3.178      8.219
REMARK  8 active torsions:
REMARK  status: ('A' for Active; 'I' for Inactive)
REMARK    1  A    between atoms: C3_3  and  C4_4 
REMARK    2  A    between atoms: C5_5  and  N1_6 
REMARK    3  A    between atoms: N1_6  and  C6_7 
REMARK    4  A    between atoms: C10_12  and  C11_13 
REMARK    5  A    between atoms: C14_17  and  C15_18 
REMARK    6  A    between atoms: C15_18  and  N3_19 
REMARK       I    between atoms: N3_19  and  C16_20 
REMARK    7  A    between atoms: C16_20  and  C17_22 
REMARK    8  A    between atoms: C17_22  and  C18_23 
ROOT
HETATM    1  C6  UNL     1      25.452   1.010  53.440  1.00  0.00     0.135 C 
HETATM    2  N2  UNL     1      24.962   0.069  54.214  1.00  0.00    -0.243 NA
HETATM    3  C7  UNL     1      23.809  -0.770  54.133  1.00  0.00     0.119 C 
HETATM    4  C8  UNL     1      22.676  -0.828  53.454  1.00  0.00     0.020 C 
HETATM    5  C9  UNL     1      22.132   0.043  52.422  1.00  0.00     0.013 C 
HETATM    6  C10 UNL     1      22.612   1.004  51.657  1.00  0.00    -0.035 C 
HETATM    7  C13 UNL     1      23.935   1.589  51.543  1.00  0.00     0.024 C 
HETATM    8  C14 UNL     1      25.098   1.662  52.160  1.00  0.00     0.006 C 
ENDROOT
BRANCH   8   9
HETATM    9  C15 UNL     1      26.257   2.424  51.657  1.00  0.00     0.165 C 
BRANCH   9  10
HETATM   10  N3  UNL     1      25.947   3.767  51.222  1.00  0.00    -0.356 N 
HETATM   11  C16 UNL     1      26.426   3.972  49.899  1.00  0.00     0.222 C 
HETATM   12  O1  UNL     1      27.039   3.170  49.135  1.00  0.00    -0.273 OA
HETATM   13  H17 UNL     1      25.499   4.644  51.527  1.00  0.00     0.162 HD
BRANCH  11  14
HETATM   14  C17 UNL     1      26.300   5.222  49.106  1.00  0.00     0.141 C 
BRANCH  14  15
HETATM   15  C18 UNL     1      25.092   5.968  49.465  1.00  0.00    -0.050 A 
HETATM   16  C19 UNL     1      25.297   7.081  50.262  1.00  0.00     0.007 A 
HETATM   17  C20 UNL     1      24.195   7.839  50.644  1.00  0.00     0.001 A 
HETATM   18  C21 UNL     1      22.902   7.535  50.264  1.00  0.00     0.000 A 
HETATM   19  C22 UNL     1      22.699   6.417  49.463  1.00  0.00     0.001 A 
HETATM   20  C23 UNL     1      23.810   5.668  49.090  1.00  0.00     0.007 A 
ENDBRANCH  14  15
ENDBRANCH  11  14
ENDBRANCH   9  10
ENDBRANCH   8   9
BRANCH   1  21
HETATM   21  N1  UNL     1      26.644   1.514  54.026  1.00  0.00    -0.350 N 
HETATM   22  H8  UNL     1      26.717   2.525  54.223  1.00  0.00     0.166 HD
BRANCH  21  23
HETATM   23  C5  UNL     1      27.764   0.663  54.357  1.00  0.00     0.090 C 
HETATM   24  C4  UNL     1      28.712   0.444  53.455  1.00  0.00     0.017 C 
BRANCH  24  25
HETATM   25  C3  UNL     1      29.831  -0.413  53.804  1.00  0.00    -0.003 C 
HETATM   26  C2  UNL     1      29.805  -1.718  53.602  1.00  0.00    -0.031 C 
HETATM   27  C1  UNL     1      28.727  -2.557  53.024  1.00  0.00     0.036 C 
ENDBRANCH  24  25
ENDBRANCH  21  23
ENDBRANCH   1  21
BRANCH   6  28
HETATM   28  C11 UNL     1      21.679   1.616  50.743  1.00  0.00     0.019 C 
HETATM   29  C12 UNL     1      21.831   2.041  49.522  1.00  0.00     0.057 C 
HETATM   30 BR1  UNL     1      20.512   2.841  48.402  1.00  0.00    -0.064 Br
ENDBRANCH   6  28
TORSDOF 8
ENDMDL
MODEL 7
REMARK VINA RESULT:      -8.1      3.013      7.002
REMARK  8 active torsions:
REMARK  status: ('A' for Active; 'I' for Inactive)
REMARK    1  A    between atoms: C3_3  and  C4_4 
REMARK    2  A    between atoms: C5_5  and  N1_6 
REMARK    3  A    between atoms: N1_6  and  C6_7 
REMARK    4  A    between atoms: C10_12  and  C11_13 
REMARK    5  A    between atoms: C14_17  and  C15_18 
REMARK    6  A    between atoms: C15_18  and  N3_19 
REMARK       I    between atoms: N3_19  and  C16_20 
REMARK    7  A    between atoms: C16_20  and  C17_22 
REMARK    8  A    between atoms: C17_22  and  C18_23 
ROOT
HETATM    1  C6  UNL     1      21.919   2.121  52.406  1.00  0.00     0.135 C 
HETATM    2  N2  UNL     1      20.965   1.288  52.749  1.00  0.00    -0.243 NA
HETATM    3  C7  UNL     1      20.934   0.097  53.537  1.00  0.00     0.119 C 
HETATM    4  C8  UNL     1      21.790  -0.778  54.037  1.00  0.00     0.020 C 
HETATM    5  C9  UNL     1      23.242  -0.853  53.954  1.00  0.00     0.013 C 
HETATM    6  C10 UNL     1      24.204  -0.028  53.591  1.00  0.00    -0.035 C 
HETATM    7  C13 UNL     1      24.184   1.342  53.113  1.00  0.00     0.024 C 
HETATM    8  C14 UNL     1      23.374   2.266  52.636  1.00  0.00     0.006 C 
ENDROOT
BRANCH   8   9
HETATM    9  C15 UNL     1      23.802   3.623  52.248  1.00  0.00     0.165 C 
BRANCH   9  10
HETATM   10  N3  UNL     1      25.149   3.700  51.727  1.00  0.00    -0.356 N 
HETATM   11  C16 UNL     1      25.148   3.420  50.334  1.00  0.00     0.222 C 
HETATM   12  O1  UNL     1      24.177   3.136  49.573  1.00  0.00    -0.273 OA
HETATM   13  H17 UNL     1      26.124   3.887  52.004  1.00  0.00     0.162 HD
BRANCH  11  14
HETATM   14  C17 UNL     1      26.337   3.401  49.444  1.00  0.00     0.141 C 
BRANCH  14  15
HETATM   15  C18 UNL     1      26.687   4.748  48.985  1.00  0.00    -0.050 A 
HETATM   16  C19 UNL     1      27.995   4.908  48.561  1.00  0.00     0.007 A 
HETATM   17  C20 UNL     1      28.401   6.160  48.111  1.00  0.00     0.001 A 
HETATM   18  C21 UNL     1      27.559   7.255  48.065  1.00  0.00     0.000 A 
HETATM   19  C22 UNL     1      26.246   7.090  48.490  1.00  0.00     0.001 A 
HETATM   20  C23 UNL     1      25.855   5.832  48.939  1.00  0.00     0.007 A 
ENDBRANCH  14  15
ENDBRANCH  11  14
ENDBRANCH   9  10
ENDBRANCH   8   9
BRANCH   1  21
HETATM   21  N1  UNL     1      21.366   3.147  51.596  1.00  0.00    -0.350 N 
HETATM   22  H8  UNL     1      21.466   4.132  51.894  1.00  0.00     0.166 HD
BRANCH  21  23
HETATM   23  C5  UNL     1      20.662   2.868  50.365  1.00  0.00     0.090 C 
HETATM   24  C4  UNL     1      20.570   3.808  49.433  1.00  0.00     0.017 C 
BRANCH  24  25
HETATM   25  C3  UNL     1      19.860   3.510  48.201  1.00  0.00    -0.003 C 
HETATM   26  C2  UNL     1      20.490   3.322  47.056  1.00  0.00    -0.031 C 
HETATM   27  C1  UNL     1      21.945   3.362  46.767  1.00  0.00     0.036 C 
ENDBRANCH  24  25
ENDBRANCH  21  23
ENDBRANCH   1  21
BRANCH   6  28
HETATM   28  C11 UNL     1      25.549  -0.544  53.671  1.00  0.00     0.019 C 
HETATM   29  C12 UNL     1      26.671  -0.087  53.194  1.00  0.00     0.057 C 
HETATM   30 BR1  UNL     1      28.404  -0.863  53.365  1.00  0.00    -0.064 Br
ENDBRANCH   6  28
TORSDOF 8
ENDMDL
MODEL 8
REMARK VINA RESULT:      -8.1      3.713      5.979
REMARK  8 active torsions:
REMARK  status: ('A' for Active; 'I' for Inactive)
REMARK    1  A    between atoms: C3_3  and  C4_4 
REMARK    2  A    between atoms: C5_5  and  N1_6 
REMARK    3  A    between atoms: N1_6  and  C6_7 
REMARK    4  A    between atoms: C10_12  and  C11_13 
REMARK    5  A    between atoms: C14_17  and  C15_18 
REMARK    6  A    between atoms: C15_18  and  N3_19 
REMARK       I    between atoms: N3_19  and  C16_20 
REMARK    7  A    between atoms: C16_20  and  C17_22 
REMARK    8  A    between atoms: C17_22  and  C18_23 
ROOT
HETATM    1  C6  UNL     1      24.292   5.916  50.745  1.00  0.00     0.135 C 
HETATM    2  N2  UNL     1      25.261   6.265  49.931  1.00  0.00    -0.243 NA
HETATM    3  C7  UNL     1      26.253   5.531  49.211  1.00  0.00     0.119 C 
HETATM    4  C8  UNL     1      26.776   4.317  49.211  1.00  0.00     0.020 C 
HETATM    5  C9  UNL     1      26.497   3.153  50.040  1.00  0.00     0.013 C 
HETATM    6  C10 UNL     1      25.539   2.806  50.876  1.00  0.00    -0.035 C 
HETATM    7  C13 UNL     1      24.331   3.484  51.310  1.00  0.00     0.024 C 
HETATM    8  C14 UNL     1      23.745   4.665  51.316  1.00  0.00     0.006 C 
ENDROOT
BRANCH   8   9
HETATM    9  C15 UNL     1      22.421   4.930  51.908  1.00  0.00     0.165 C 
BRANCH   9  10
HETATM   10  N3  UNL     1      21.899   3.851  52.717  1.00  0.00    -0.356 N 
HETATM   11  C16 UNL     1      20.920   3.125  51.986  1.00  0.00     0.222 C 
HETATM   12  O1  UNL     1      20.498   3.310  50.808  1.00  0.00    -0.273 OA
HETATM   13  H17 UNL     1      21.981   3.412  53.646  1.00  0.00     0.162 HD
BRANCH  11  14
HETATM   14  C17 UNL     1      20.157   1.948  52.476  1.00  0.00     0.141 C 
BRANCH  14  15
HETATM   15  C18 UNL     1      21.045   0.924  53.033  1.00  0.00    -0.050 A 
HETATM   16  C19 UNL     1      20.691   0.451  54.285  1.00  0.00     0.007 A 
HETATM   17  C20 UNL     1      21.489  -0.523  54.878  1.00  0.00     0.001 A 
HETATM   18  C21 UNL     1      22.619  -1.042  54.277  1.00  0.00     0.000 A 
HETATM   19  C22 UNL     1      22.971  -0.564  53.020  1.00  0.00     0.001 A 
HETATM   20  C23 UNL     1      22.165   0.409  52.439  1.00  0.00     0.007 A 
ENDBRANCH  14  15
ENDBRANCH  11  14
ENDBRANCH   9  10
ENDBRANCH   8   9
BRANCH   1  21
HETATM   21  N1  UNL     1      23.607   7.084  51.173  1.00  0.00    -0.350 N 
HETATM   22  H8  UNL     1      23.400   7.205  52.178  1.00  0.00     0.166 HD
BRANCH  21  23
HETATM   23  C5  UNL     1      23.183   8.115  50.253  1.00  0.00     0.090 C 
HETATM   24  C4  UNL     1      21.899   8.230  49.941  1.00  0.00     0.017 C 
BRANCH  24  25
HETATM   25  C3  UNL     1      21.490   9.272  49.015  1.00  0.00    -0.003 C 
HETATM   26  C2  UNL     1      20.320   9.875  49.110  1.00  0.00    -0.031 C 
HETATM   27  C1  UNL     1      19.230   9.660  50.094  1.00  0.00     0.036 C 
ENDBRANCH  24  25
ENDBRANCH  21  23
ENDBRANCH   1  21
BRANCH   6  28
HETATM   28  C11 UNL     1      25.675   1.512  51.499  1.00  0.00     0.019 C 
HETATM   29  C12 UNL     1      26.721   0.892  51.966  1.00  0.00     0.057 C 
HETATM   30 BR1  UNL     1      26.780  -0.833  52.776  1.00  0.00    -0.064 Br
ENDBRANCH   6  28
TORSDOF 8
ENDMDL
MODEL 9
REMARK VINA RESULT:      -8.0      3.470      7.242
REMARK  8 active torsions:
REMARK  status: ('A' for Active; 'I' for Inactive)
REMARK    1  A    between atoms: C3_3  and  C4_4 
REMARK    2  A    between atoms: C5_5  and  N1_6 
REMARK    3  A    between atoms: N1_6  and  C6_7 
REMARK    4  A    between atoms: C10_12  and  C11_13 
REMARK    5  A    between atoms: C14_17  and  C15_18 
REMARK    6  A    between atoms: C15_18  and  N3_19 
REMARK       I    between atoms: N3_19  and  C16_20 
REMARK    7  A    between atoms: C16_20  and  C17_22 
REMARK    8  A    between atoms: C17_22  and  C18_23 
ROOT
HETATM    1  C6  UNL     1      21.997   1.882  52.541  1.00  0.00     0.135 C 
HETATM    2  N2  UNL     1      21.121   1.052  53.058  1.00  0.00    -0.243 NA
HETATM    3  C7  UNL     1      21.224  -0.054  53.956  1.00  0.00     0.119 C 
HETATM    4  C8  UNL     1      22.165  -0.843  54.446  1.00  0.00     0.020 C 
HETATM    5  C9  UNL     1      23.604  -0.873  54.222  1.00  0.00     0.013 C 
HETATM    6  C10 UNL     1      24.485  -0.053  53.685  1.00  0.00    -0.035 C 
HETATM    7  C13 UNL     1      24.354   1.260  53.082  1.00  0.00     0.024 C 
HETATM    8  C14 UNL     1      23.459   2.102  52.605  1.00  0.00     0.006 C 
ENDROOT
BRANCH   8   9
HETATM    9  C15 UNL     1      23.783   3.429  52.047  1.00  0.00     0.165 C 
BRANCH   9  10
HETATM   10  N3  UNL     1      25.163   3.589  51.648  1.00  0.00    -0.356 N 
HETATM   11  C16 UNL     1      25.295   3.362  50.251  1.00  0.00     0.222 C 
HETATM   12  O1  UNL     1      24.407   3.062  49.400  1.00  0.00    -0.273 OA
HETATM   13  H17 UNL     1      26.101   3.812  52.014  1.00  0.00     0.162 HD
BRANCH  11  14
HETATM   14  C17 UNL     1      26.555   3.434  49.467  1.00  0.00     0.141 C 
BRANCH  14  15
HETATM   15  C18 UNL     1      26.814   4.794  48.987  1.00  0.00    -0.050 A 
HETATM   16  C19 UNL     1      28.099   5.026  48.529  1.00  0.00     0.007 A 
HETATM   17  C20 UNL     1      28.419   6.295  48.058  1.00  0.00     0.001 A 
HETATM   18  C21 UNL     1      27.514   7.338  48.024  1.00  0.00     0.000 A 
HETATM   19  C22 UNL     1      26.223   7.101  48.485  1.00  0.00     0.001 A 
HETATM   20  C23 UNL     1      25.918   5.828  48.954  1.00  0.00     0.007 A 
ENDBRANCH  14  15
ENDBRANCH  11  14
ENDBRANCH   9  10
ENDBRANCH   8   9
BRANCH   1  21
HETATM   21  N1  UNL     1      21.319   2.801  51.697  1.00  0.00    -0.350 N 
HETATM   22  H8  UNL     1      21.776   3.113  50.825  1.00  0.00     0.166 HD
BRANCH  21  23
HETATM   23  C5  UNL     1      20.008   3.320  52.012  1.00  0.00     0.090 C 
HETATM   24  C4  UNL     1      19.090   3.409  51.059  1.00  0.00     0.017 C 
BRANCH  24  25
HETATM   25  C3  UNL     1      17.777   3.934  51.393  1.00  0.00    -0.003 C 
HETATM   26  C2  UNL     1      16.774   3.912  50.534  1.00  0.00    -0.031 C 
HETATM   27  C1  UNL     1      16.740   3.396  49.143  1.00  0.00     0.036 C 
ENDBRANCH  24  25
ENDBRANCH  21  23
ENDBRANCH   1  21
BRANCH   6  28
HETATM   28  C11 UNL     1      25.855  -0.509  53.675  1.00  0.00     0.019 C 
HETATM   29  C12 UNL     1      26.976   0.151  53.722  1.00  0.00     0.057 C 
HETATM   30 BR1  UNL     1      28.743  -0.567  53.702  1.00  0.00    -0.064 Br
ENDBRANCH   6  28
TORSDOF 8
ENDMDL
