MODEL 1
REMARK VINA RESULT:      -9.3      0.000      0.000
REMARK  4 active torsions:
REMARK  status: ('A' for Active; 'I' for Inactive)
REMARK    1  A    between atoms: N1_1  and  C1_2 
REMARK    2  A    between atoms: C5_7  and  N2_8 
REMARK    3  A    between atoms: N2_8  and  C6_9 
REMARK    4  A    between atoms: N3_14  and  C11_15 
ROOT
HETATM    1  C6  UNL     1      25.340   0.996  51.972  1.00  0.00     0.168 A 
HETATM    2  C7  UNL     1      24.982   2.276  51.304  1.00  0.00    -0.008 A 
HETATM    3  C8  UNL     1      26.153   2.416  50.741  1.00  0.00    -0.003 C 
HETATM    4  C9  UNL     1      26.449   3.304  49.887  1.00  0.00     0.004 C 
HETATM    5  C10 UNL     1      26.116   4.552  49.978  1.00  0.00     0.106 C 
HETATM    6  N3  UNL     1      24.808   4.985  50.314  1.00  0.00    -0.341 N 
HETATM    7  C12 UNL     1      23.519   4.343  50.584  1.00  0.00     0.170 C 
HETATM    8  C13 UNL     1      23.775   3.081  51.279  1.00  0.00    -0.014 A 
HETATM    9  C14 UNL     1      22.808   2.552  52.007  1.00  0.00     0.107 A 
HETATM   10  N4  UNL     1      22.965   1.329  52.721  1.00  0.00    -0.316 N 
HETATM   11  C15 UNL     1      21.990   0.776  53.467  1.00  0.00     0.213 A 
HETATM   12  N5  UNL     1      22.518  -0.353  53.973  1.00  0.00    -0.254 NA
HETATM   13  C16 UNL     1      23.795  -0.461  53.525  1.00  0.00     0.146 A 
HETATM   14  C17 UNL     1      24.099   0.605  52.723  1.00  0.00     0.061 A 
ENDROOT
BRANCH   1  15
HETATM   15  N2  UNL     1      26.458   1.224  52.863  1.00  0.00    -0.373 N 
HETATM   16  H5  UNL     1      26.440   2.098  53.438  1.00  0.00     0.161 HD
BRANCH  15  17
HETATM   17  C5  UNL     1      27.655   0.468  53.145  1.00  0.00     0.070 A 
HETATM   18  C4  UNL     1      28.880   1.024  53.498  1.00  0.00     0.142 A 
HETATM   19  C3  UNL     1      29.931   0.166  53.712  1.00  0.00     0.047 A 
HETATM   20  F1  UNL     1      28.938   2.368  53.605  1.00  0.00    -0.204 F 
HETATM   21  C2  UNL     1      29.866  -1.203  53.602  1.00  0.00     0.032 A 
HETATM   22  C1  UNL     1      28.647  -1.756  53.250  1.00  0.00     0.028 A 
HETATM   23  C18 UNL     1      27.596  -0.906  53.036  1.00  0.00     0.061 A 
BRANCH  22  24
HETATM   24  N1  UNL     1      28.610  -3.168  53.145  1.00  0.00    -0.399 N 
HETATM   25  H1  UNL     1      28.350  -3.782  53.959  1.00  0.00     0.156 HD
HETATM   26  H2  UNL     1      28.823  -3.722  52.294  1.00  0.00     0.156 HD
ENDBRANCH  22  24
ENDBRANCH  15  17
ENDBRANCH   1  15
BRANCH   6  27
HETATM   27  C11 UNL     1      24.728   6.422  50.414  1.00  0.00     0.476 C 
HETATM   28  O1  UNL     1      25.606   7.321  50.467  1.00  0.00    -0.392 OA
ENDBRANCH   6  27
TORSDOF 4
ENDMDL
MODEL 2
REMARK VINA RESULT:      -8.7      1.250      1.706
REMARK  4 active torsions:
REMARK  status: ('A' for Active; 'I' for Inactive)
REMARK    1  A    between atoms: N1_1  and  C1_2 
REMARK    2  A    between atoms: C5_7  and  N2_8 
REMARK    3  A    between atoms: N2_8  and  C6_9 
REMARK    4  A    between atoms: N3_14  and  C11_15 
ROOT
HETATM    1  C6  UNL     1      25.539   2.321  51.033  1.00  0.00     0.168 A 
HETATM    2  C7  UNL     1      25.458   3.595  50.269  1.00  0.00    -0.008 A 
HETATM    3  C8  UNL     1      26.676   3.502  49.806  1.00  0.00    -0.003 C 
HETATM    4  C9  UNL     1      27.186   4.270  48.936  1.00  0.00     0.004 C 
HETATM    5  C10 UNL     1      27.064   5.559  48.931  1.00  0.00     0.106 C 
HETATM    6  N3  UNL     1      25.827   6.224  49.126  1.00  0.00    -0.341 N 
HETATM    7  C12 UNL     1      24.429   5.822  49.313  1.00  0.00     0.170 C 
HETATM    8  C13 UNL     1      24.411   4.586  50.094  1.00  0.00    -0.014 A 
HETATM    9  C14 UNL     1      23.314   4.273  50.759  1.00  0.00     0.107 A 
HETATM   10  N4  UNL     1      23.203   3.092  51.548  1.00  0.00    -0.316 N 
HETATM   11  C15 UNL     1      22.093   2.759  52.233  1.00  0.00     0.213 A 
HETATM   12  N5  UNL     1      22.379   1.594  52.843  1.00  0.00    -0.254 NA
HETATM   13  C16 UNL     1      23.650   1.247  52.516  1.00  0.00     0.146 A 
HETATM   14  C17 UNL     1      24.193   2.193  51.690  1.00  0.00     0.061 A 
ENDROOT
BRANCH   1  15
HETATM   15  N2  UNL     1      26.605   2.421  52.007  1.00  0.00    -0.373 N 
HETATM   16  H5  UNL     1      26.864   3.380  52.335  1.00  0.00     0.161 HD
BRANCH  15  17
HETATM   17  C5  UNL     1      27.431   1.433  52.658  1.00  0.00     0.070 A 
HETATM   18  C4  UNL     1      28.573   1.717  53.400  1.00  0.00     0.142 A 
HETATM   19  C3  UNL     1      29.263   0.657  53.938  1.00  0.00     0.047 A 
HETATM   20  F1  UNL     1      28.912   3.015  53.534  1.00  0.00    -0.204 F 
HETATM   21  C2  UNL     1      28.912  -0.665  53.798  1.00  0.00     0.032 A 
HETATM   22  C1  UNL     1      27.777  -0.947  53.059  1.00  0.00     0.028 A 
HETATM   23  C18 UNL     1      27.085   0.104  52.521  1.00  0.00     0.061 A 
BRANCH  22  24
HETATM   24  N1  UNL     1      27.440  -2.317  52.931  1.00  0.00    -0.399 N 
HETATM   25  H1  UNL     1      26.448  -2.659  53.016  1.00  0.00     0.156 HD
HETATM   26  H2  UNL     1      28.103  -3.094  52.748  1.00  0.00     0.156 HD
ENDBRANCH  22  24
ENDBRANCH  15  17
ENDBRANCH   1  15
BRANCH   6  27
HETATM   27  C11 UNL     1      25.985   7.657  49.142  1.00  0.00     0.476 C 
HETATM   28  O1  UNL     1      26.746   8.422  49.789  1.00  0.00    -0.392 OA
ENDBRANCH   6  27
TORSDOF 4
ENDMDL
MODEL 3
REMARK VINA RESULT:      -8.6      2.212      2.699
REMARK  4 active torsions:
REMARK  status: ('A' for Active; 'I' for Inactive)
REMARK    1  A    between atoms: N1_1  and  C1_2 
REMARK    2  A    between atoms: C5_7  and  N2_8 
REMARK    3  A    between atoms: N2_8  and  C6_9 
REMARK    4  A    between atoms: N3_14  and  C11_15 
ROOT
HETATM    1  C6  UNL     1      23.971   0.568  52.586  1.00  0.00     0.168 A 
HETATM    2  C7  UNL     1      23.143   1.648  51.984  1.00  0.00    -0.008 A 
HETATM    3  C8  UNL     1      24.093   2.057  51.185  1.00  0.00    -0.003 C 
HETATM    4  C9  UNL     1      23.953   2.924  50.271  1.00  0.00     0.004 C 
HETATM    5  C10 UNL     1      23.308   4.038  50.407  1.00  0.00     0.106 C 
HETATM    6  N3  UNL     1      22.024   4.125  51.003  1.00  0.00    -0.341 N 
HETATM    7  C12 UNL     1      21.046   3.180  51.550  1.00  0.00     0.170 C 
HETATM    8  C13 UNL     1      21.778   2.092  52.199  1.00  0.00    -0.014 A 
HETATM    9  C14 UNL     1      21.162   1.378  53.124  1.00  0.00     0.107 A 
HETATM   10  N4  UNL     1      21.793   0.302  53.812  1.00  0.00    -0.316 N 
HETATM   11  C15 UNL     1      21.180  -0.435  54.757  1.00  0.00     0.213 A 
HETATM   12  N5  UNL     1      22.093  -1.337  55.161  1.00  0.00    -0.254 NA
HETATM   13  C16 UNL     1      23.235  -1.129  54.456  1.00  0.00     0.146 A 
HETATM   14  C17 UNL     1      23.062  -0.085  53.589  1.00  0.00     0.061 A 
ENDROOT
BRANCH   1  15
HETATM   15  N2  UNL     1      25.132   1.159  53.218  1.00  0.00    -0.373 N 
HETATM   16  H5  UNL     1      25.001   2.082  53.691  1.00  0.00     0.161 HD
BRANCH  15  17
HETATM   17  C5  UNL     1      26.504   0.727  53.342  1.00  0.00     0.070 A 
HETATM   18  C4  UNL     1      26.964  -0.549  53.033  1.00  0.00     0.142 A 
HETATM   19  C3  UNL     1      28.299  -0.809  53.229  1.00  0.00     0.047 A 
HETATM   20  F1  UNL     1      26.060  -1.432  52.561  1.00  0.00    -0.204 F 
HETATM   21  C2  UNL     1      29.216   0.096  53.711  1.00  0.00     0.032 A 
HETATM   22  C1  UNL     1      28.757   1.364  54.019  1.00  0.00     0.028 A 
HETATM   23  C18 UNL     1      27.429   1.630  53.825  1.00  0.00     0.061 A 
BRANCH  22  24
HETATM   24  N1  UNL     1      29.724   2.275  54.513  1.00  0.00    -0.399 N 
HETATM   25  H1  UNL     1      30.718   2.277  54.165  1.00  0.00     0.156 HD
HETATM   26  H2  UNL     1      29.563   3.004  55.234  1.00  0.00     0.156 HD
ENDBRANCH  22  24
ENDBRANCH  15  17
ENDBRANCH   1  15
BRANCH   6  27
HETATM   27  C11 UNL     1      21.564   5.490  51.090  1.00  0.00     0.476 C 
HETATM   28  O1  UNL     1      22.164   6.594  51.041  1.00  0.00    -0.392 OA
ENDBRANCH   6  27
TORSDOF 4
ENDMDL
MODEL 4
REMARK VINA RESULT:      -8.4      2.870      6.162
REMARK  4 active torsions:
REMARK  status: ('A' for Active; 'I' for Inactive)
REMARK    1  A    between atoms: N1_1  and  C1_2 
REMARK    2  A    between atoms: C5_7  and  N2_8 
REMARK    3  A    between atoms: N2_8  and  C6_9 
REMARK    4  A    between atoms: N3_14  and  C11_15 
ROOT
HETATM    1  C6  UNL     1      24.198   3.075  52.268  1.00  0.00     0.168 A 
HETATM    2  C7  UNL     1      24.828   1.797  52.696  1.00  0.00    -0.008 A 
HETATM    3  C8  UNL     1      26.047   2.230  52.514  1.00  0.00    -0.003 C 
HETATM    4  C9  UNL     1      27.099   1.607  52.848  1.00  0.00     0.004 C 
HETATM    5  C10 UNL     1      27.300   0.343  52.648  1.00  0.00     0.106 C 
HETATM    6  N3  UNL     1      26.338  -0.654  52.951  1.00  0.00    -0.341 N 
HETATM    7  C12 UNL     1      25.003  -0.686  53.555  1.00  0.00     0.170 C 
HETATM    8  C13 UNL     1      24.291   0.528  53.153  1.00  0.00    -0.014 A 
HETATM    9  C14 UNL     1      22.971   0.528  53.186  1.00  0.00     0.107 A 
HETATM   10  N4  UNL     1      22.193   1.661  52.812  1.00  0.00    -0.316 N 
HETATM   11  C15 UNL     1      20.847   1.678  52.840  1.00  0.00     0.213 A 
HETATM   12  N5  UNL     1      20.492   2.906  52.420  1.00  0.00    -0.254 NA
HETATM   13  C16 UNL     1      21.624   3.605  52.148  1.00  0.00     0.146 A 
HETATM   14  C17 UNL     1      22.722   2.825  52.392  1.00  0.00     0.061 A 
ENDROOT
BRANCH   1  15
HETATM   15  N2  UNL     1      24.583   3.356  50.901  1.00  0.00    -0.373 N 
HETATM   16  H5  UNL     1      24.364   2.627  50.184  1.00  0.00     0.161 HD
BRANCH  15  17
HETATM   17  C5  UNL     1      25.235   4.485  50.281  1.00  0.00     0.070 A 
HETATM   18  C4  UNL     1      26.285   4.393  49.373  1.00  0.00     0.142 A 
HETATM   19  C3  UNL     1      26.813   5.566  48.890  1.00  0.00     0.047 A 
HETATM   20  F1  UNL     1      26.702   3.155  49.037  1.00  0.00    -0.204 F 
HETATM   21  C2  UNL     1      26.384   6.826  49.236  1.00  0.00     0.032 A 
HETATM   22  C1  UNL     1      25.340   6.916  50.140  1.00  0.00     0.028 A 
HETATM   23  C18 UNL     1      24.809   5.752  50.624  1.00  0.00     0.061 A 
BRANCH  22  24
HETATM   24  N1  UNL     1      24.919   8.226  50.478  1.00  0.00    -0.399 N 
HETATM   25  H1  UNL     1      24.065   8.403  51.068  1.00  0.00     0.156 HD
HETATM   26  H2  UNL     1      25.385   9.109  50.195  1.00  0.00     0.156 HD
ENDBRANCH  22  24
ENDBRANCH  15  17
ENDBRANCH   1  15
BRANCH   6  27
HETATM   27  C11 UNL     1      26.790  -1.969  52.567  1.00  0.00     0.476 C 
HETATM   28  O1  UNL     1      27.743  -2.689  52.961  1.00  0.00    -0.392 OA
ENDBRANCH   6  27
TORSDOF 4
ENDMDL
MODEL 5
REMARK VINA RESULT:      -8.1      2.779      6.177
REMARK  4 active torsions:
REMARK  status: ('A' for Active; 'I' for Inactive)
REMARK    1  A    between atoms: N1_1  and  C1_2 
REMARK    2  A    between atoms: C5_7  and  N2_8 
REMARK    3  A    between atoms: N2_8  and  C6_9 
REMARK    4  A    between atoms: N3_14  and  C11_15 
ROOT
HETATM    1  C6  UNL     1      24.924   2.404  52.733  1.00  0.00     0.168 A 
HETATM    2  C7  UNL     1      25.985   1.518  53.282  1.00  0.00    -0.008 A 
HETATM    3  C8  UNL     1      26.939   2.390  53.096  1.00  0.00    -0.003 C 
HETATM    4  C9  UNL     1      28.131   2.266  53.507  1.00  0.00     0.004 C 
HETATM    5  C10 UNL     1      28.829   1.179  53.419  1.00  0.00     0.106 C 
HETATM    6  N3  UNL     1      28.328  -0.098  53.779  1.00  0.00    -0.341 N 
HETATM    7  C12 UNL     1      27.084  -0.623  54.350  1.00  0.00     0.170 C 
HETATM    8  C13 UNL     1      25.973   0.173  53.829  1.00  0.00    -0.014 A 
HETATM    9  C14 UNL     1      24.762  -0.354  53.830  1.00  0.00     0.107 A 
HETATM   10  N4  UNL     1      23.620   0.344  53.342  1.00  0.00    -0.316 N 
HETATM   11  C15 UNL     1      22.379  -0.179  53.334  1.00  0.00     0.213 A 
HETATM   12  N5  UNL     1      21.589   0.773  52.804  1.00  0.00    -0.254 NA
HETATM   13  C16 UNL     1      22.363   1.847  52.503  1.00  0.00     0.146 A 
HETATM   14  C17 UNL     1      23.664   1.591  52.840  1.00  0.00     0.061 A 
ENDROOT
BRANCH   1  15
HETATM   15  N2  UNL     1      25.241   2.724  51.357  1.00  0.00    -0.373 N 
HETATM   16  H5  UNL     1      25.529   1.933  50.737  1.00  0.00     0.161 HD
BRANCH  15  17
HETATM   17  C5  UNL     1      25.246   3.964  50.617  1.00  0.00     0.070 A 
HETATM   18  C4  UNL     1      26.066   4.233  49.526  1.00  0.00     0.142 A 
HETATM   19  C3  UNL     1      25.964   5.474  48.945  1.00  0.00     0.047 A 
HETATM   20  F1  UNL     1      26.897   3.250  49.124  1.00  0.00    -0.204 F 
HETATM   21  C2  UNL     1      25.114   6.473  49.360  1.00  0.00     0.032 A 
HETATM   22  C1  UNL     1      24.300   6.204  50.446  1.00  0.00     0.028 A 
HETATM   23  C18 UNL     1      24.396   4.970  51.029  1.00  0.00     0.061 A 
BRANCH  22  24
HETATM   24  N1  UNL     1      23.435   7.250  50.851  1.00  0.00    -0.399 N 
HETATM   25  H1  UNL     1      22.531   7.453  50.351  1.00  0.00     0.156 HD
HETATM   26  H2  UNL     1      23.592   7.898  51.647  1.00  0.00     0.156 HD
ENDBRANCH  22  24
ENDBRANCH  15  17
ENDBRANCH   1  15
BRANCH   6  27
HETATM   27  C11 UNL     1      29.287  -1.144  53.519  1.00  0.00     0.476 C 
HETATM   28  O1  UNL     1      29.184  -2.395  53.449  1.00  0.00    -0.392 OA
ENDBRANCH   6  27
TORSDOF 4
ENDMDL
MODEL 6
REMARK VINA RESULT:      -8.1      3.251      6.483
REMARK  4 active torsions:
REMARK  status: ('A' for Active; 'I' for Inactive)
REMARK    1  A    between atoms: N1_1  and  C1_2 
REMARK    2  A    between atoms: C5_7  and  N2_8 
REMARK    3  A    between atoms: N2_8  and  C6_9 
REMARK    4  A    between atoms: N3_14  and  C11_15 
ROOT
HETATM    1  C6  UNL     1      24.581   1.685  51.715  1.00  0.00     0.168 A 
HETATM    2  C7  UNL     1      23.425   0.813  52.059  1.00  0.00    -0.008 A 
HETATM    3  C8  UNL     1      22.708   1.206  51.041  1.00  0.00    -0.003 C 
HETATM    4  C9  UNL     1      21.599   0.700  50.692  1.00  0.00     0.004 C 
HETATM    5  C10 UNL     1      20.643   0.391  51.508  1.00  0.00     0.106 C 
HETATM    6  N3  UNL     1      20.851  -0.325  52.715  1.00  0.00    -0.341 N 
HETATM    7  C12 UNL     1      21.993  -0.951  53.388  1.00  0.00     0.170 C 
HETATM    8  C13 UNL     1      23.178  -0.132  53.132  1.00  0.00    -0.014 A 
HETATM    9  C14 UNL     1      24.201  -0.222  53.963  1.00  0.00     0.107 A 
HETATM   10  N4  UNL     1      25.395   0.536  53.797  1.00  0.00    -0.316 N 
HETATM   11  C15 UNL     1      26.446   0.458  54.634  1.00  0.00     0.213 A 
HETATM   12  N5  UNL     1      27.363   1.314  54.147  1.00  0.00    -0.254 NA
HETATM   13  C16 UNL     1      26.850   1.890  53.030  1.00  0.00     0.146 A 
HETATM   14  C17 UNL     1      25.593   1.406  52.790  1.00  0.00     0.061 A 
ENDROOT
BRANCH   1  15
HETATM   15  N2  UNL     1      24.150   3.067  51.728  1.00  0.00    -0.373 N 
HETATM   16  H5  UNL     1      23.346   3.311  52.350  1.00  0.00     0.161 HD
BRANCH  15  17
HETATM   17  C5  UNL     1      24.615   4.243  51.031  1.00  0.00     0.070 A 
HETATM   18  C4  UNL     1      25.540   4.235  49.992  1.00  0.00     0.142 A 
HETATM   19  C3  UNL     1      25.896   5.445  49.448  1.00  0.00     0.047 A 
HETATM   20  F1  UNL     1      26.013   3.035  49.598  1.00  0.00    -0.204 F 
HETATM   21  C2  UNL     1      25.410   6.666  49.853  1.00  0.00     0.032 A 
HETATM   22  C1  UNL     1      24.491   6.673  50.888  1.00  0.00     0.028 A 
HETATM   23  C18 UNL     1      24.131   5.471  51.433  1.00  0.00     0.061 A 
BRANCH  22  24
HETATM   24  N1  UNL     1      24.007   7.944  51.284  1.00  0.00    -0.399 N 
HETATM   25  H1  UNL     1      24.516   8.835  51.045  1.00  0.00     0.156 HD
HETATM   26  H2  UNL     1      23.140   8.126  51.825  1.00  0.00     0.156 HD
ENDBRANCH  22  24
ENDBRANCH  15  17
ENDBRANCH   1  15
BRANCH   6  27
HETATM   27  C11 UNL     1      19.630  -0.475  53.467  1.00  0.00     0.476 C 
HETATM   28  O1  UNL     1      18.514  -0.980  53.185  1.00  0.00    -0.392 OA
ENDBRANCH   6  27
TORSDOF 4
ENDMDL
MODEL 7
REMARK VINA RESULT:      -8.0      3.342      6.578
REMARK  4 active torsions:
REMARK  status: ('A' for Active; 'I' for Inactive)
REMARK    1  A    between atoms: N1_1  and  C1_2 
REMARK    2  A    between atoms: C5_7  and  N2_8 
REMARK    3  A    between atoms: N2_8  and  C6_9 
REMARK    4  A    between atoms: N3_14  and  C11_15 
ROOT
HETATM    1  C6  UNL     1      23.002   1.472  52.210  1.00  0.00     0.168 A 
HETATM    2  C7  UNL     1      24.287   0.957  52.753  1.00  0.00    -0.008 A 
HETATM    3  C8  UNL     1      25.021   1.768  52.039  1.00  0.00    -0.003 C 
HETATM    4  C9  UNL     1      26.275   1.911  52.156  1.00  0.00     0.004 C 
HETATM    5  C10 UNL     1      27.117   0.936  52.286  1.00  0.00     0.106 C 
HETATM    6  N3  UNL     1      26.925  -0.142  53.187  1.00  0.00    -0.341 N 
HETATM    7  C12 UNL     1      25.928  -0.511  54.197  1.00  0.00     0.170 C 
HETATM    8  C13 UNL     1      24.616  -0.071  53.724  1.00  0.00    -0.014 A 
HETATM    9  C14 UNL     1      23.538  -0.658  54.212  1.00  0.00     0.107 A 
HETATM   10  N4  UNL     1      22.219  -0.299  53.811  1.00  0.00    -0.316 N 
HETATM   11  C15 UNL     1      21.110  -0.887  54.298  1.00  0.00     0.213 A 
HETATM   12  N5  UNL     1      20.078  -0.282  53.682  1.00  0.00    -0.254 NA
HETATM   13  C16 UNL     1      20.581   0.656  52.839  1.00  0.00     0.146 A 
HETATM   14  C17 UNL     1      21.948   0.660  52.907  1.00  0.00     0.061 A 
ENDROOT
BRANCH   1  15
HETATM   15  N2  UNL     1      22.978   1.266  50.776  1.00  0.00    -0.373 N 
HETATM   16  H5  UNL     1      23.468   0.419  50.408  1.00  0.00     0.161 HD
BRANCH  15  17
HETATM   17  C5  UNL     1      22.394   2.015  49.690  1.00  0.00     0.070 A 
HETATM   18  C4  UNL     1      23.074   2.948  48.914  1.00  0.00     0.142 A 
HETATM   19  C3  UNL     1      22.366   3.594  47.930  1.00  0.00     0.047 A 
HETATM   20  F1  UNL     1      24.380   3.142  49.189  1.00  0.00    -0.204 F 
HETATM   21  C2  UNL     1      21.034   3.392  47.653  1.00  0.00     0.032 A 
HETATM   22  C1  UNL     1      20.358   2.464  48.426  1.00  0.00     0.028 A 
HETATM   23  C18 UNL     1      21.058   1.816  49.408  1.00  0.00     0.061 A 
BRANCH  22  24
HETATM   24  N1  UNL     1      18.988   2.276  48.119  1.00  0.00    -0.399 N 
HETATM   25  H1  UNL     1      18.669   1.931  47.177  1.00  0.00     0.156 HD
HETATM   26  H2  UNL     1      18.190   2.449  48.760  1.00  0.00     0.156 HD
ENDBRANCH  22  24
ENDBRANCH  15  17
ENDBRANCH   1  15
BRANCH   6  27
HETATM   27  C11 UNL     1      27.977  -1.123  53.082  1.00  0.00     0.476 C 
HETATM   28  O1  UNL     1      27.976  -2.379  53.127  1.00  0.00    -0.392 OA
ENDBRANCH   6  27
TORSDOF 4
ENDMDL
MODEL 8
REMARK VINA RESULT:      -7.7      3.503      6.748
REMARK  4 active torsions:
REMARK  status: ('A' for Active; 'I' for Inactive)
REMARK    1  A    between atoms: N1_1  and  C1_2 
REMARK    2  A    between atoms: C5_7  and  N2_8 
REMARK    3  A    between atoms: N2_8  and  C6_9 
REMARK    4  A    between atoms: N3_14  and  C11_15 
ROOT
HETATM    1  C6  UNL     1      21.781   0.924  53.056  1.00  0.00     0.168 A 
HETATM    2  C7  UNL     1      23.037   1.598  52.630  1.00  0.00    -0.008 A 
HETATM    3  C8  UNL     1      22.423   2.457  51.861  1.00  0.00    -0.003 C 
HETATM    4  C9  UNL     1      22.973   3.443  51.284  1.00  0.00     0.004 C 
HETATM    5  C10 UNL     1      24.109   3.391  50.665  1.00  0.00     0.106 C 
HETATM    6  N3  UNL     1      25.263   2.771  51.209  1.00  0.00    -0.341 N 
HETATM    7  C12 UNL     1      25.614   2.113  52.471  1.00  0.00     0.170 C 
HETATM    8  C13 UNL     1      24.437   1.387  52.949  1.00  0.00    -0.014 A 
HETATM    9  C14 UNL     1      24.610   0.384  53.791  1.00  0.00     0.107 A 
HETATM   10  N4  UNL     1      23.526  -0.382  54.308  1.00  0.00    -0.316 N 
HETATM   11  C15 UNL     1      23.685  -1.406  55.166  1.00  0.00     0.213 A 
HETATM   12  N5  UNL     1      22.445  -1.867  55.415  1.00  0.00    -0.254 NA
HETATM   13  C16 UNL     1      21.565  -1.114  54.706  1.00  0.00     0.146 A 
HETATM   14  C17 UNL     1      22.237  -0.160  53.992  1.00  0.00     0.061 A 
ENDROOT
BRANCH   1  15
HETATM   15  N2  UNL     1      21.117   0.381  51.889  1.00  0.00    -0.373 N 
HETATM   16  H5  UNL     1      21.725   0.012  51.122  1.00  0.00     0.161 HD
BRANCH  15  17
HETATM   17  C5  UNL     1      19.725   0.231  51.537  1.00  0.00     0.070 A 
HETATM   18  C4  UNL     1      19.160   0.655  50.339  1.00  0.00     0.142 A 
HETATM   19  C3  UNL     1      17.811   0.458  50.167  1.00  0.00     0.047 A 
HETATM   20  F1  UNL     1      19.985   1.225  49.437  1.00  0.00    -0.204 F 
HETATM   21  C2  UNL     1      16.975  -0.124  51.090  1.00  0.00     0.032 A 
HETATM   22  C1  UNL     1      17.537  -0.545  52.282  1.00  0.00     0.028 A 
HETATM   23  C18 UNL     1      18.881  -0.352  52.459  1.00  0.00     0.061 A 
BRANCH  22  24
HETATM   24  N1  UNL     1      16.653  -1.141  53.213  1.00  0.00    -0.399 N 
HETATM   25  H1  UNL     1      15.817  -0.628  53.597  1.00  0.00     0.156 HD
HETATM   26  H2  UNL     1      16.728  -2.102  53.598  1.00  0.00     0.156 HD
ENDBRANCH  22  24
ENDBRANCH  15  17
ENDBRANCH   1  15
BRANCH   6  27
HETATM   27  C11 UNL     1      26.371   2.796  50.286  1.00  0.00     0.476 C 
HETATM   28  O1  UNL     1      26.662   3.556  49.327  1.00  0.00    -0.392 OA
ENDBRANCH   6  27
TORSDOF 4
ENDMDL
MODEL 9
REMARK VINA RESULT:      -7.5      3.531      4.863
REMARK  4 active torsions:
REMARK  status: ('A' for Active; 'I' for Inactive)
REMARK    1  A    between atoms: N1_1  and  C1_2 
REMARK    2  A    between atoms: C5_7  and  N2_8 
REMARK    3  A    between atoms: N2_8  and  C6_9 
REMARK    4  A    between atoms: N3_14  and  C11_15 
ROOT
HETATM    1  C6  UNL     1      22.396   0.297  51.655  1.00  0.00     0.168 A 
HETATM    2  C7  UNL     1      21.179   0.653  50.876  1.00  0.00    -0.008 A 
HETATM    3  C8  UNL     1      21.853   1.170  49.884  1.00  0.00    -0.003 C 
HETATM    4  C9  UNL     1      21.352   1.555  48.785  1.00  0.00     0.004 C 
HETATM    5  C10 UNL     1      20.264   2.248  48.675  1.00  0.00     0.106 C 
HETATM    6  N3  UNL     1      19.070   1.936  49.374  1.00  0.00    -0.341 N 
HETATM    7  C12 UNL     1      18.624   0.876  50.283  1.00  0.00     0.170 C 
HETATM    8  C13 UNL     1      19.758   0.488  51.121  1.00  0.00    -0.014 A 
HETATM    9  C14 UNL     1      19.517  -0.100  52.279  1.00  0.00     0.107 A 
HETATM   10  N4  UNL     1      20.555  -0.513  53.163  1.00  0.00    -0.316 N 
HETATM   11  C15 UNL     1      20.328  -1.112  54.346  1.00  0.00     0.213 A 
HETATM   12  N5  UNL     1      21.543  -1.341  54.877  1.00  0.00    -0.254 NA
HETATM   13  C16 UNL     1      22.478  -0.877  54.007  1.00  0.00     0.146 A 
HETATM   14  C17 UNL     1      21.865  -0.344  52.906  1.00  0.00     0.061 A 
ENDROOT
BRANCH   1  15
HETATM   15  N2  UNL     1      23.141   1.505  51.945  1.00  0.00    -0.373 N 
HETATM   16  H5  UNL     1      22.590   2.383  52.089  1.00  0.00     0.161 HD
BRANCH  15  17
HETATM   17  C5  UNL     1      24.552   1.774  52.086  1.00  0.00     0.070 A 
HETATM   18  C4  UNL     1      25.344   2.381  51.117  1.00  0.00     0.142 A 
HETATM   19  C3  UNL     1      26.679   2.545  51.398  1.00  0.00     0.047 A 
HETATM   20  F1  UNL     1      24.736   2.763  49.976  1.00  0.00    -0.204 F 
HETATM   21  C2  UNL     1      27.294   2.152  52.564  1.00  0.00     0.032 A 
HETATM   22  C1  UNL     1      26.505   1.548  53.527  1.00  0.00     0.028 A 
HETATM   23  C18 UNL     1      25.175   1.382  53.253  1.00  0.00     0.061 A 
BRANCH  22  24
HETATM   24  N1  UNL     1      27.165   1.155  54.717  1.00  0.00    -0.399 N 
HETATM   25  H1  UNL     1      26.884   0.293  55.253  1.00  0.00     0.156 HD
HETATM   26  H2  UNL     1      27.959   1.649  55.166  1.00  0.00     0.156 HD
ENDBRANCH  22  24
ENDBRANCH  15  17
ENDBRANCH   1  15
BRANCH   6  27
HETATM   27  C11 UNL     1      18.033   2.907  49.124  1.00  0.00     0.476 C 
HETATM   28  O1  UNL     1      16.790   2.802  48.963  1.00  0.00    -0.392 OA
ENDBRANCH   6  27
TORSDOF 4
ENDMDL
