MODEL 1
REMARK VINA RESULT:      -7.1      0.000      0.000
REMARK  7 active torsions:
REMARK  status: ('A' for Active; 'I' for Inactive)
REMARK    1  A    between atoms: C2_2  and  C3_3 
REMARK    2  A    between atoms: C4_4  and  S1_5 
REMARK    3  A    between atoms: S1_5  and  C5_6 
REMARK       I    between atoms: C5_6  and  N1_8 
REMARK    4  A    between atoms: C6_10  and  N3_11 
REMARK    5  A    between atoms: C9_14  and  S2_15 
REMARK    6  A    between atoms: S2_15  and  N4_16 
REMARK    7  A    between atoms: C12_22  and  N6_23 
ROOT
HETATM    1  C5  UNL     1      19.621   0.163  51.824  1.00  0.00     0.327 C 
HETATM    2  O1  UNL     1      18.571  -0.465  52.194  1.00  0.00    -0.257 OA
HETATM    3  N1  UNL     1      20.839  -0.045  52.558  1.00  0.00    -0.001 N 
HETATM    4  N2  UNL     1      22.030   0.525  52.314  1.00  0.00     0.045 NA
HETATM    5  C6  UNL     1      22.934   0.086  53.213  1.00  0.00     0.762 A 
HETATM    6  N5  UNL     1      22.276  -0.777  54.028  1.00  0.00     0.132 NA
HETATM    7  C12 UNL     1      20.994  -0.856  53.626  1.00  0.00     0.741 A 
ENDROOT
BRANCH   5   8
HETATM    8  N3  UNL     1      24.314   0.400  53.360  1.00  0.00    -0.184 N 
HETATM    9  C7  UNL     1      25.163  -0.311  54.271  1.00  0.00     0.111 A 
HETATM   10  C8  UNL     1      26.437  -0.015  54.402  1.00  0.00     0.042 A 
HETATM   11  C9  UNL     1      27.060   1.041  53.641  1.00  0.00     0.073 A 
HETATM   12  C10 UNL     1      26.270   1.693  52.804  1.00  0.00     0.018 A 
HETATM   13  C11 UNL     1      24.838   1.482  52.545  1.00  0.00     0.176 A 
BRANCH  11  14
HETATM   14  S2  UNL     1      28.746   1.427  53.820  1.00  0.00     0.239 S 
HETATM   15  O2  UNL     1      29.071   1.503  55.293  1.00  0.00    -0.206 OA
HETATM   16  O3  UNL     1      29.576   0.301  53.267  1.00  0.00    -0.206 OA
BRANCH  14  17
HETATM   17  N4  UNL     1      29.065   2.905  53.026  1.00  0.00    -0.225 NA
HETATM   18  H10 UNL     1      28.269   3.564  53.187  1.00  0.00     0.136 HD
HETATM   19  H11 UNL     1      29.891   3.338  53.507  1.00  0.00     0.136 HD
ENDBRANCH  14  17
ENDBRANCH  11  14
ENDBRANCH   5   8
BRANCH   7  20
HETATM   20  N6  UNL     1      19.947  -1.654  54.209  1.00  0.00    -0.230 N 
HETATM   21  H15 UNL     1      18.914  -1.432  54.309  1.00  0.00     0.174 HD
HETATM   22  H16 UNL     1      19.958  -2.607  54.657  1.00  0.00     0.174 HD
ENDBRANCH   7  20
BRANCH   1  23
HETATM   23  S1  UNL     1      19.646   1.286  50.436  1.00  0.00    -0.039 SA
BRANCH  23  24
HETATM   24  C4  UNL     1      20.140   2.894  51.047  1.00  0.00     0.051 C 
HETATM   25  C3  UNL     1      21.206   3.688  51.025  1.00  0.00    -0.020 C 
BRANCH  25  26
HETATM   26  C2  UNL     1      21.660   5.025  51.516  1.00  0.00     0.023 C 
HETATM   27  C1  UNL     1      22.873   4.796  52.392  1.00  0.00     0.009 C 
ENDBRANCH  25  26
ENDBRANCH  23  24
ENDBRANCH   1  23
TORSDOF 7
ENDMDL
MODEL 2
REMARK VINA RESULT:      -7.0      5.041      6.656
REMARK  7 active torsions:
REMARK  status: ('A' for Active; 'I' for Inactive)
REMARK    1  A    between atoms: C2_2  and  C3_3 
REMARK    2  A    between atoms: C4_4  and  S1_5 
REMARK    3  A    between atoms: S1_5  and  C5_6 
REMARK       I    between atoms: C5_6  and  N1_8 
REMARK    4  A    between atoms: C6_10  and  N3_11 
REMARK    5  A    between atoms: C9_14  and  S2_15 
REMARK    6  A    between atoms: S2_15  and  N4_16 
REMARK    7  A    between atoms: C12_22  and  N6_23 
ROOT
HETATM    1  C5  UNL     1      22.385   1.044  51.326  1.00  0.00     0.327 C 
HETATM    2  O1  UNL     1      21.583   0.203  50.796  1.00  0.00    -0.257 OA
HETATM    3  N1  UNL     1      22.877   2.127  50.519  1.00  0.00    -0.001 N 
HETATM    4  N2  UNL     1      23.721   3.097  50.907  1.00  0.00     0.045 NA
HETATM    5  C6  UNL     1      23.952   3.933  49.875  1.00  0.00     0.762 A 
HETATM    6  N5  UNL     1      23.228   3.460  48.828  1.00  0.00     0.132 NA
HETATM    7  C12 UNL     1      22.571   2.355  49.225  1.00  0.00     0.741 A 
ENDROOT
BRANCH   5   8
HETATM    8  N3  UNL     1      24.767   5.097  49.797  1.00  0.00    -0.184 N 
HETATM    9  C7  UNL     1      25.919   5.163  48.946  1.00  0.00     0.111 A 
HETATM   10  C8  UNL     1      26.667   6.242  48.880  1.00  0.00     0.042 A 
HETATM   11  C9  UNL     1      26.378   7.424  49.655  1.00  0.00     0.073 A 
HETATM   12  C10 UNL     1      25.314   7.354  50.438  1.00  0.00     0.018 A 
HETATM   13  C11 UNL     1      24.384   6.230  50.622  1.00  0.00     0.176 A 
BRANCH  11  14
HETATM   14  S2  UNL     1      27.373   8.847  49.562  1.00  0.00     0.239 S 
HETATM   15  O2  UNL     1      28.695   8.473  48.935  1.00  0.00    -0.206 OA
HETATM   16  O3  UNL     1      26.735   9.840  48.630  1.00  0.00    -0.206 OA
BRANCH  14  17
HETATM   17  N4  UNL     1      27.578   9.485  51.133  1.00  0.00    -0.225 NA
HETATM   18  H10 UNL     1      28.592   9.453  51.391  1.00  0.00     0.136 HD
HETATM   19  H11 UNL     1      27.331  10.504  51.084  1.00  0.00     0.136 HD
ENDBRANCH  14  17
ENDBRANCH  11  14
ENDBRANCH   5   8
BRANCH   7  20
HETATM   20  N6  UNL     1      21.690   1.536  48.434  1.00  0.00    -0.230 N 
HETATM   21  H15 UNL     1      20.673   1.285  48.607  1.00  0.00     0.174 HD
HETATM   22  H16 UNL     1      21.840   1.010  47.534  1.00  0.00     0.174 HD
ENDBRANCH   7  20
BRANCH   1  23
HETATM   23  S1  UNL     1      22.924   0.937  53.026  1.00  0.00    -0.039 SA
BRANCH  23  24
HETATM   24  C4  UNL     1      24.500   0.088  53.044  1.00  0.00     0.051 C 
HETATM   25  C3  UNL     1      25.744   0.280  52.619  1.00  0.00    -0.020 C 
BRANCH  25  26
HETATM   26  C2  UNL     1      27.079  -0.394  52.612  1.00  0.00     0.023 C 
HETATM   27  C1  UNL     1      26.834  -1.878  52.441  1.00  0.00     0.009 C 
ENDBRANCH  25  26
ENDBRANCH  23  24
ENDBRANCH   1  23
TORSDOF 7
ENDMDL
MODEL 3
REMARK VINA RESULT:      -7.0      2.566      7.446
REMARK  7 active torsions:
REMARK  status: ('A' for Active; 'I' for Inactive)
REMARK    1  A    between atoms: C2_2  and  C3_3 
REMARK    2  A    between atoms: C4_4  and  S1_5 
REMARK    3  A    between atoms: S1_5  and  C5_6 
REMARK       I    between atoms: C5_6  and  N1_8 
REMARK    4  A    between atoms: C6_10  and  N3_11 
REMARK    5  A    between atoms: C9_14  and  S2_15 
REMARK    6  A    between atoms: S2_15  and  N4_16 
REMARK    7  A    between atoms: C12_22  and  N6_23 
ROOT
HETATM    1  C5  UNL     1      26.242  -0.547  53.621  1.00  0.00     0.327 C 
HETATM    2  O1  UNL     1      27.037  -0.789  54.590  1.00  0.00    -0.257 OA
HETATM    3  N1  UNL     1      24.826  -0.621  53.859  1.00  0.00    -0.001 N 
HETATM    4  N2  UNL     1      23.849  -0.399  52.965  1.00  0.00     0.045 NA
HETATM    5  C6  UNL     1      22.649  -0.562  53.557  1.00  0.00     0.762 A 
HETATM    6  N5  UNL     1      22.900  -0.894  54.849  1.00  0.00     0.132 NA
HETATM    7  C12 UNL     1      24.233  -0.929  55.032  1.00  0.00     0.741 A 
ENDROOT
BRANCH   5   8
HETATM    8  N3  UNL     1      21.335  -0.437  53.026  1.00  0.00    -0.184 N 
HETATM    9  C7  UNL     1      21.075   0.255  51.797  1.00  0.00     0.111 A 
HETATM   10  C8  UNL     1      19.858   0.368  51.312  1.00  0.00     0.042 A 
HETATM   11  C9  UNL     1      18.711  -0.196  51.982  1.00  0.00     0.073 A 
HETATM   12  C10 UNL     1      18.960  -0.832  53.116  1.00  0.00     0.018 A 
HETATM   13  C11 UNL     1      20.253  -1.041  53.783  1.00  0.00     0.176 A 
BRANCH  11  14
HETATM   14  S2  UNL     1      17.105  -0.043  51.335  1.00  0.00     0.239 S 
HETATM   15  O2  UNL     1      16.236  -1.124  51.934  1.00  0.00    -0.206 OA
HETATM   16  O3  UNL     1      16.510   1.264  51.783  1.00  0.00    -0.206 OA
BRANCH  14  17
HETATM   17  N4  UNL     1      17.178  -0.162  49.633  1.00  0.00    -0.225 NA
HETATM   18  H10 UNL     1      18.021   0.349  49.285  1.00  0.00     0.136 HD
HETATM   19  H11 UNL     1      17.346  -1.173  49.405  1.00  0.00     0.136 HD
ENDBRANCH  14  17
ENDBRANCH  11  14
ENDBRANCH   5   8
BRANCH   7  20
HETATM   20  N6  UNL     1      24.937  -1.237  56.249  1.00  0.00    -0.230 N 
HETATM   21  H15 UNL     1      24.558  -1.330  57.237  1.00  0.00     0.174 HD
HETATM   22  H16 UNL     1      25.954  -1.434  56.442  1.00  0.00     0.174 HD
ENDBRANCH   7  20
BRANCH   1  23
HETATM   23  S1  UNL     1      26.806  -0.118  51.982  1.00  0.00    -0.039 SA
BRANCH  23  24
HETATM   24  C4  UNL     1      26.363   1.591  51.683  1.00  0.00     0.051 C 
HETATM   25  C3  UNL     1      26.392   2.472  50.690  1.00  0.00    -0.020 C 
BRANCH  25  26
HETATM   26  C2  UNL     1      26.037   3.895  50.398  1.00  0.00     0.023 C 
HETATM   27  C1  UNL     1      26.825   4.316  49.176  1.00  0.00     0.009 C 
ENDBRANCH  25  26
ENDBRANCH  23  24
ENDBRANCH   1  23
TORSDOF 7
ENDMDL
MODEL 4
REMARK VINA RESULT:      -6.9      1.583      2.426
REMARK  7 active torsions:
REMARK  status: ('A' for Active; 'I' for Inactive)
REMARK    1  A    between atoms: C2_2  and  C3_3 
REMARK    2  A    between atoms: C4_4  and  S1_5 
REMARK    3  A    between atoms: S1_5  and  C5_6 
REMARK       I    between atoms: C5_6  and  N1_8 
REMARK    4  A    between atoms: C6_10  and  N3_11 
REMARK    5  A    between atoms: C9_14  and  S2_15 
REMARK    6  A    between atoms: S2_15  and  N4_16 
REMARK    7  A    between atoms: C12_22  and  N6_23 
ROOT
HETATM    1  C5  UNL     1      19.530   0.262  52.000  1.00  0.00     0.327 C 
HETATM    2  O1  UNL     1      18.494  -0.391  52.362  1.00  0.00    -0.257 OA
HETATM    3  N1  UNL     1      20.770   0.019  52.686  1.00  0.00    -0.001 N 
HETATM    4  N2  UNL     1      21.951   0.609  52.441  1.00  0.00     0.045 NA
HETATM    5  C6  UNL     1      22.882   0.124  53.288  1.00  0.00     0.762 A 
HETATM    6  N5  UNL     1      22.251  -0.787  54.072  1.00  0.00     0.132 NA
HETATM    7  C12 UNL     1      20.958  -0.850  53.702  1.00  0.00     0.741 A 
ENDROOT
BRANCH   5   8
HETATM    8  N3  UNL     1      24.264   0.437  53.414  1.00  0.00    -0.184 N 
HETATM    9  C7  UNL     1      24.756   1.778  53.281  1.00  0.00     0.111 A 
HETATM   10  C8  UNL     1      26.035   2.059  53.399  1.00  0.00     0.042 A 
HETATM   11  C9  UNL     1      27.021   1.041  53.669  1.00  0.00     0.073 A 
HETATM   12  C10 UNL     1      26.559  -0.193  53.789  1.00  0.00     0.018 A 
HETATM   13  C11 UNL     1      25.171  -0.665  53.686  1.00  0.00     0.176 A 
BRANCH  11  14
HETATM   14  S2  UNL     1      28.711   1.421  53.822  1.00  0.00     0.239 S 
HETATM   15  O2  UNL     1      29.053   1.521  55.290  1.00  0.00    -0.206 OA
HETATM   16  O3  UNL     1      29.529   0.281  53.280  1.00  0.00    -0.206 OA
BRANCH  14  17
HETATM   17  N4  UNL     1      29.029   2.884  53.000  1.00  0.00    -0.225 NA
HETATM   18  H10 UNL     1      30.060   3.056  52.983  1.00  0.00     0.136 HD
HETATM   19  H11 UNL     1      28.751   2.737  51.998  1.00  0.00     0.136 HD
ENDBRANCH  14  17
ENDBRANCH  11  14
ENDBRANCH   5   8
BRANCH   7  20
HETATM   20  N6  UNL     1      19.931  -1.685  54.267  1.00  0.00    -0.230 N 
HETATM   21  H15 UNL     1      20.026  -2.505  54.933  1.00  0.00     0.174 HD
HETATM   22  H16 UNL     1      18.883  -1.680  54.157  1.00  0.00     0.174 HD
ENDBRANCH   7  20
BRANCH   1  23
HETATM   23  S1  UNL     1      19.512   1.462  50.678  1.00  0.00    -0.039 SA
BRANCH  23  24
HETATM   24  C4  UNL     1      17.986   2.389  50.805  1.00  0.00     0.051 C 
HETATM   25  C3  UNL     1      17.462   3.355  51.552  1.00  0.00    -0.020 C 
BRANCH  25  26
HETATM   26  C2  UNL     1      16.205   4.152  51.694  1.00  0.00     0.023 C 
HETATM   27  C1  UNL     1      15.168   3.525  50.786  1.00  0.00     0.009 C 
ENDBRANCH  25  26
ENDBRANCH  23  24
ENDBRANCH   1  23
TORSDOF 7
ENDMDL
MODEL 5
REMARK VINA RESULT:      -6.7      3.088      8.354
REMARK  7 active torsions:
REMARK  status: ('A' for Active; 'I' for Inactive)
REMARK    1  A    between atoms: C2_2  and  C3_3 
REMARK    2  A    between atoms: C4_4  and  S1_5 
REMARK    3  A    between atoms: S1_5  and  C5_6 
REMARK       I    between atoms: C5_6  and  N1_8 
REMARK    4  A    between atoms: C6_10  and  N3_11 
REMARK    5  A    between atoms: C9_14  and  S2_15 
REMARK    6  A    between atoms: S2_15  and  N4_16 
REMARK    7  A    between atoms: C12_22  and  N6_23 
ROOT
HETATM    1  C5  UNL     1      24.808  -0.278  53.869  1.00  0.00     0.327 C 
HETATM    2  O1  UNL     1      25.491  -0.746  54.842  1.00  0.00    -0.257 OA
HETATM    3  N1  UNL     1      23.390  -0.511  53.850  1.00  0.00    -0.001 N 
HETATM    4  N2  UNL     1      22.521  -0.096  52.914  1.00  0.00     0.045 NA
HETATM    5  C6  UNL     1      21.278  -0.506  53.238  1.00  0.00     0.762 A 
HETATM    6  N5  UNL     1      21.392  -1.190  54.405  1.00  0.00     0.132 NA
HETATM    7  C12 UNL     1      22.685  -1.192  54.778  1.00  0.00     0.741 A 
ENDROOT
BRANCH   5   8
HETATM    8  N3  UNL     1      20.040  -0.313  52.564  1.00  0.00    -0.184 N 
HETATM    9  C7  UNL     1      19.954   0.392  51.318  1.00  0.00     0.111 A 
HETATM   10  C8  UNL     1      18.806   0.566  50.701  1.00  0.00     0.042 A 
HETATM   11  C9  UNL     1      17.564   0.062  51.236  1.00  0.00     0.073 A 
HETATM   12  C10 UNL     1      17.652  -0.585  52.386  1.00  0.00     0.018 A 
HETATM   13  C11 UNL     1      18.851  -0.861  53.192  1.00  0.00     0.176 A 
BRANCH  11  14
HETATM   14  S2  UNL     1      16.050   0.298  50.415  1.00  0.00     0.239 S 
HETATM   15  O2  UNL     1      15.117  -0.829  50.788  1.00  0.00    -0.206 OA
HETATM   16  O3  UNL     1      15.403   1.559  50.917  1.00  0.00    -0.206 OA
BRANCH  14  17
HETATM   17  N4  UNL     1      16.334   0.351  48.731  1.00  0.00    -0.225 NA
HETATM   18  H10 UNL     1      17.205  -0.183  48.509  1.00  0.00     0.136 HD
HETATM   19  H11 UNL     1      15.553  -0.180  48.273  1.00  0.00     0.136 HD
ENDBRANCH  14  17
ENDBRANCH  11  14
ENDBRANCH   5   8
BRANCH   7  20
HETATM   20  N6  UNL     1      23.250  -1.802  55.952  1.00  0.00    -0.230 N 
HETATM   21  H15 UNL     1      22.791  -2.447  56.659  1.00  0.00     0.174 HD
HETATM   22  H16 UNL     1      24.216  -1.754  56.372  1.00  0.00     0.174 HD
ENDBRANCH   7  20
BRANCH   1  23
HETATM   23  S1  UNL     1      25.534   0.656  52.531  1.00  0.00    -0.039 SA
BRANCH  23  24
HETATM   24  C4  UNL     1      27.301   0.374  52.566  1.00  0.00     0.051 C 
HETATM   25  C3  UNL     1      28.288   0.321  53.455  1.00  0.00    -0.020 C 
BRANCH  25  26
HETATM   26  C2  UNL     1      29.763   0.092  53.529  1.00  0.00     0.023 C 
HETATM   27  C1  UNL     1      29.983  -1.401  53.648  1.00  0.00     0.009 C 
ENDBRANCH  25  26
ENDBRANCH  23  24
ENDBRANCH   1  23
TORSDOF 7
ENDMDL
MODEL 6
REMARK VINA RESULT:      -6.7      3.263      7.911
REMARK  7 active torsions:
REMARK  status: ('A' for Active; 'I' for Inactive)
REMARK    1  A    between atoms: C2_2  and  C3_3 
REMARK    2  A    between atoms: C4_4  and  S1_5 
REMARK    3  A    between atoms: S1_5  and  C5_6 
REMARK       I    between atoms: C5_6  and  N1_8 
REMARK    4  A    between atoms: C6_10  and  N3_11 
REMARK    5  A    between atoms: C9_14  and  S2_15 
REMARK    6  A    between atoms: S2_15  and  N4_16 
REMARK    7  A    between atoms: C12_22  and  N6_23 
ROOT
HETATM    1  C5  UNL     1      25.031   1.821  51.754  1.00  0.00     0.327 C 
HETATM    2  O1  UNL     1      26.184   1.651  52.275  1.00  0.00    -0.257 OA
HETATM    3  N1  UNL     1      23.929   1.045  52.254  1.00  0.00    -0.001 N 
HETATM    4  N2  UNL     1      22.656   1.092  51.829  1.00  0.00     0.045 NA
HETATM    5  C6  UNL     1      21.912   0.219  52.536  1.00  0.00     0.762 A 
HETATM    6  N5  UNL     1      22.754  -0.377  53.418  1.00  0.00     0.132 NA
HETATM    7  C12 UNL     1      23.988   0.130  53.244  1.00  0.00     0.741 A 
ENDROOT
BRANCH   5   8
HETATM    8  N3  UNL     1      20.524  -0.087  52.453  1.00  0.00    -0.184 N 
HETATM    9  C7  UNL     1      19.719   0.329  51.342  1.00  0.00     0.111 A 
HETATM   10  C8  UNL     1      18.438   0.043  51.272  1.00  0.00     0.042 A 
HETATM   11  C9  UNL     1      17.763  -0.707  52.304  1.00  0.00     0.073 A 
HETATM   12  C10 UNL     1      18.513  -1.086  53.326  1.00  0.00     0.018 A 
HETATM   13  C11 UNL     1      19.947  -0.846  53.548  1.00  0.00     0.176 A 
BRANCH  11  14
HETATM   14  S2  UNL     1      16.068  -1.081  52.205  1.00  0.00     0.239 S 
HETATM   15  O2  UNL     1      15.607  -0.866  50.783  1.00  0.00    -0.206 OA
HETATM   16  O3  UNL     1      15.864  -2.543  52.493  1.00  0.00    -0.206 OA
BRANCH  14  17
HETATM   17  N4  UNL     1      15.214  -0.088  53.301  1.00  0.00    -0.225 NA
HETATM   18  H10 UNL     1      15.762  -0.000  54.188  1.00  0.00     0.136 HD
HETATM   19  H11 UNL     1      15.192   0.875  52.887  1.00  0.00     0.136 HD
ENDBRANCH  14  17
ENDBRANCH  11  14
ENDBRANCH   5   8
BRANCH   7  20
HETATM   20  N6  UNL     1      25.182  -0.220  53.967  1.00  0.00    -0.230 N 
HETATM   21  H15 UNL     1      26.179   0.112  53.814  1.00  0.00     0.174 HD
HETATM   22  H16 UNL     1      25.344  -0.863  54.786  1.00  0.00     0.174 HD
ENDBRANCH   7  20
BRANCH   1  23
HETATM   23  S1  UNL     1      24.722   2.981  50.431  1.00  0.00    -0.039 SA
BRANCH  23  24
HETATM   24  C4  UNL     1      26.282   3.748  50.004  1.00  0.00     0.051 C 
HETATM   25  C3  UNL     1      26.836   4.384  48.978  1.00  0.00    -0.020 C 
BRANCH  25  26
HETATM   26  C2  UNL     1      28.122   5.034  48.580  1.00  0.00     0.023 C 
HETATM   27  C1  UNL     1      27.819   6.486  48.277  1.00  0.00     0.009 C 
ENDBRANCH  25  26
ENDBRANCH  23  24
ENDBRANCH   1  23
TORSDOF 7
ENDMDL
MODEL 7
REMARK VINA RESULT:      -6.7      2.422      3.262
REMARK  7 active torsions:
REMARK  status: ('A' for Active; 'I' for Inactive)
REMARK    1  A    between atoms: C2_2  and  C3_3 
REMARK    2  A    between atoms: C4_4  and  S1_5 
REMARK    3  A    between atoms: S1_5  and  C5_6 
REMARK       I    between atoms: C5_6  and  N1_8 
REMARK    4  A    between atoms: C6_10  and  N3_11 
REMARK    5  A    between atoms: C9_14  and  S2_15 
REMARK    6  A    between atoms: S2_15  and  N4_16 
REMARK    7  A    between atoms: C12_22  and  N6_23 
ROOT
HETATM    1  C5  UNL     1      17.766  -0.125  51.534  1.00  0.00     0.327 C 
HETATM    2  O1  UNL     1      16.669  -0.675  51.888  1.00  0.00    -0.257 OA
HETATM    3  N1  UNL     1      18.943  -0.368  52.324  1.00  0.00    -0.001 N 
HETATM    4  N2  UNL     1      20.173   0.123  52.103  1.00  0.00     0.045 NA
HETATM    5  C6  UNL     1      21.016  -0.326  53.055  1.00  0.00     0.762 A 
HETATM    6  N5  UNL     1      20.279  -1.114  53.879  1.00  0.00     0.132 NA
HETATM    7  C12 UNL     1      19.010  -1.139  53.430  1.00  0.00     0.741 A 
ENDROOT
BRANCH   5   8
HETATM    8  N3  UNL     1      22.405  -0.084  53.243  1.00  0.00    -0.184 N 
HETATM    9  C7  UNL     1      23.087   0.989  52.579  1.00  0.00     0.111 A 
HETATM   10  C8  UNL     1      24.371   1.206  52.758  1.00  0.00     0.042 A 
HETATM   11  C9  UNL     1      25.173   0.384  53.631  1.00  0.00     0.073 A 
HETATM   12  C10 UNL     1      24.537  -0.604  54.239  1.00  0.00     0.018 A 
HETATM   13  C11 UNL     1      23.117  -0.974  54.144  1.00  0.00     0.176 A 
BRANCH  11  14
HETATM   14  S2  UNL     1      26.871   0.678  53.862  1.00  0.00     0.239 S 
HETATM   15  O2  UNL     1      27.351  -0.150  55.030  1.00  0.00    -0.206 OA
HETATM   16  O3  UNL     1      27.630   0.184  52.661  1.00  0.00    -0.206 OA
BRANCH  14  17
HETATM   17  N4  UNL     1      27.114   2.347  54.129  1.00  0.00    -0.225 NA
HETATM   18  H10 UNL     1      28.135   2.531  54.266  1.00  0.00     0.136 HD
HETATM   19  H11 UNL     1      26.856   2.840  53.239  1.00  0.00     0.136 HD
ENDBRANCH  14  17
ENDBRANCH  11  14
ENDBRANCH   5   8
BRANCH   7  20
HETATM   20  N6  UNL     1      17.898  -1.849  54.004  1.00  0.00    -0.230 N 
HETATM   21  H15 UNL     1      17.241  -1.548  54.782  1.00  0.00     0.174 HD
HETATM   22  H16 UNL     1      17.489  -2.798  53.798  1.00  0.00     0.174 HD
ENDBRANCH   7  20
BRANCH   1  23
HETATM   23  S1  UNL     1      17.908   0.932  50.102  1.00  0.00    -0.039 SA
BRANCH  23  24
HETATM   24  C4  UNL     1      16.939   2.404  50.414  1.00  0.00     0.051 C 
HETATM   25  C3  UNL     1      16.253   2.958  51.408  1.00  0.00    -0.020 C 
BRANCH  25  26
HETATM   26  C2  UNL     1      15.436   4.172  51.711  1.00  0.00     0.023 C 
HETATM   27  C1  UNL     1      14.676   3.898  52.991  1.00  0.00     0.009 C 
ENDBRANCH  25  26
ENDBRANCH  23  24
ENDBRANCH   1  23
TORSDOF 7
ENDMDL
MODEL 8
REMARK VINA RESULT:      -6.7      4.802      5.880
REMARK  7 active torsions:
REMARK  status: ('A' for Active; 'I' for Inactive)
REMARK    1  A    between atoms: C2_2  and  C3_3 
REMARK    2  A    between atoms: C4_4  and  S1_5 
REMARK    3  A    between atoms: S1_5  and  C5_6 
REMARK       I    between atoms: C5_6  and  N1_8 
REMARK    4  A    between atoms: C6_10  and  N3_11 
REMARK    5  A    between atoms: C9_14  and  S2_15 
REMARK    6  A    between atoms: S2_15  and  N4_16 
REMARK    7  A    between atoms: C12_22  and  N6_23 
ROOT
HETATM    1  C5  UNL     1      23.724   6.111  48.120  1.00  0.00     0.327 C 
HETATM    2  O1  UNL     1      22.845   6.238  47.201  1.00  0.00    -0.257 OA
HETATM    3  N1  UNL     1      23.834   4.847  48.795  1.00  0.00    -0.001 N 
HETATM    4  N2  UNL     1      24.694   4.534  49.777  1.00  0.00     0.045 NA
HETATM    5  C6  UNL     1      24.499   3.256  50.159  1.00  0.00     0.762 A 
HETATM    6  N5  UNL     1      23.491   2.775  49.387  1.00  0.00     0.132 NA
HETATM    7  C12 UNL     1      23.086   3.750  48.552  1.00  0.00     0.741 A 
ENDROOT
BRANCH   5   8
HETATM    8  N3  UNL     1      25.159   2.480  51.153  1.00  0.00    -0.184 N 
HETATM    9  C7  UNL     1      24.440   1.622  52.049  1.00  0.00     0.111 A 
HETATM   10  C8  UNL     1      25.057   0.909  52.965  1.00  0.00     0.042 A 
HETATM   11  C9  UNL     1      26.490   0.943  53.126  1.00  0.00     0.073 A 
HETATM   12  C10 UNL     1      27.146   1.737  52.295  1.00  0.00     0.018 A 
HETATM   13  C11 UNL     1      26.605   2.591  51.227  1.00  0.00     0.176 A 
BRANCH  11  14
HETATM   14  S2  UNL     1      27.298  -0.004  54.340  1.00  0.00     0.239 S 
HETATM   15  O2  UNL     1      26.291  -0.405  55.392  1.00  0.00    -0.206 OA
HETATM   16  O3  UNL     1      27.792  -1.285  53.726  1.00  0.00    -0.206 OA
BRANCH  14  17
HETATM   17  N4  UNL     1      28.572   0.918  55.006  1.00  0.00    -0.225 NA
HETATM   18  H10 UNL     1      28.228   1.425  55.853  1.00  0.00     0.136 HD
HETATM   19  H11 UNL     1      29.290   0.238  55.357  1.00  0.00     0.136 HD
ENDBRANCH  14  17
ENDBRANCH  11  14
ENDBRANCH   5   8
BRANCH   7  20
HETATM   20  N6  UNL     1      22.042   3.672  47.565  1.00  0.00    -0.230 N 
HETATM   21  H15 UNL     1      20.995   3.799  47.685  1.00  0.00     0.174 HD
HETATM   22  H16 UNL     1      22.068   3.476  46.530  1.00  0.00     0.174 HD
ENDBRANCH   7  20
BRANCH   1  23
HETATM   23  S1  UNL     1      24.824   7.432  48.604  1.00  0.00    -0.039 SA
BRANCH  23  24
HETATM   24  C4  UNL     1      26.484   6.957  48.135  1.00  0.00     0.051 C 
HETATM   25  C3  UNL     1      27.406   6.067  48.484  1.00  0.00    -0.020 C 
BRANCH  25  26
HETATM   26  C2  UNL     1      28.792   5.638  48.125  1.00  0.00     0.023 C 
HETATM   27  C1  UNL     1      29.552   6.877  47.702  1.00  0.00     0.009 C 
ENDBRANCH  25  26
ENDBRANCH  23  24
ENDBRANCH   1  23
TORSDOF 7
ENDMDL
MODEL 9
REMARK VINA RESULT:      -6.6      2.688      7.646
REMARK  7 active torsions:
REMARK  status: ('A' for Active; 'I' for Inactive)
REMARK    1  A    between atoms: C2_2  and  C3_3 
REMARK    2  A    between atoms: C4_4  and  S1_5 
REMARK    3  A    between atoms: S1_5  and  C5_6 
REMARK       I    between atoms: C5_6  and  N1_8 
REMARK    4  A    between atoms: C6_10  and  N3_11 
REMARK    5  A    between atoms: C9_14  and  S2_15 
REMARK    6  A    between atoms: S2_15  and  N4_16 
REMARK    7  A    between atoms: C12_22  and  N6_23 
ROOT
HETATM    1  C5  UNL     1      24.930  -0.197  53.781  1.00  0.00     0.327 C 
HETATM    2  O1  UNL     1      25.788  -0.560  54.655  1.00  0.00    -0.257 OA
HETATM    3  N1  UNL     1      23.548  -0.529  53.996  1.00  0.00    -0.001 N 
HETATM    4  N2  UNL     1      22.516  -0.230  53.190  1.00  0.00     0.045 NA
HETATM    5  C6  UNL     1      21.373  -0.706  53.724  1.00  0.00     0.762 A 
HETATM    6  N5  UNL     1      21.717  -1.312  54.889  1.00  0.00     0.132 NA
HETATM    7  C12 UNL     1      23.048  -1.203  55.054  1.00  0.00     0.741 A 
ENDROOT
BRANCH   5   8
HETATM    8  N3  UNL     1      20.035  -0.638  53.245  1.00  0.00    -0.184 N 
HETATM    9  C7  UNL     1      19.008  -1.511  53.735  1.00  0.00     0.111 A 
HETATM   10  C8  UNL     1      17.773  -1.443  53.287  1.00  0.00     0.042 A 
HETATM   11  C9  UNL     1      17.375  -0.489  52.280  1.00  0.00     0.073 A 
HETATM   12  C10 UNL     1      18.329   0.311  51.833  1.00  0.00     0.018 A 
HETATM   13  C11 UNL     1      19.744   0.358  52.230  1.00  0.00     0.176 A 
BRANCH  11  14
HETATM   14  S2  UNL     1      15.740  -0.406  51.693  1.00  0.00     0.239 S 
HETATM   15  O2  UNL     1      15.481   0.991  51.180  1.00  0.00    -0.206 OA
HETATM   16  O3  UNL     1      15.590  -1.319  50.508  1.00  0.00    -0.206 OA
BRANCH  14  17
HETATM   17  N4  UNL     1      14.673  -0.821  52.960  1.00  0.00    -0.225 NA
HETATM   18  H10 UNL     1      13.692  -0.604  52.672  1.00  0.00     0.136 HD
HETATM   19  H11 UNL     1      14.713  -1.865  53.063  1.00  0.00     0.136 HD
ENDBRANCH  14  17
ENDBRANCH  11  14
ENDBRANCH   5   8
BRANCH   7  20
HETATM   20  N6  UNL     1      23.833  -1.704  56.151  1.00  0.00    -0.230 N 
HETATM   21  H15 UNL     1      23.540  -2.337  56.951  1.00  0.00     0.174 HD
HETATM   22  H16 UNL     1      24.845  -1.565  56.412  1.00  0.00     0.174 HD
ENDBRANCH   7  20
BRANCH   1  23
HETATM   23  S1  UNL     1      25.368   0.706  52.303  1.00  0.00    -0.039 SA
BRANCH  23  24
HETATM   24  C4  UNL     1      24.945   2.424  52.570  1.00  0.00     0.051 C 
HETATM   25  C3  UNL     1      23.859   3.184  52.660  1.00  0.00    -0.020 C 
BRANCH  25  26
HETATM   26  C2  UNL     1      23.462   4.609  52.880  1.00  0.00     0.023 C 
HETATM   27  C1  UNL     1      23.505   5.302  51.535  1.00  0.00     0.009 C 
ENDBRANCH  25  26
ENDBRANCH  23  24
ENDBRANCH   1  23
TORSDOF 7
ENDMDL
