MODEL 1
REMARK VINA RESULT:      -7.7      0.000      0.000
REMARK  11 active torsions:
REMARK  status: ('A' for Active; 'I' for Inactive)
REMARK    1  A    between atoms: C2_2  and  N1_3 
REMARK    2  A    between atoms: N1_3  and  C4_6 
REMARK    3  A    between atoms: C4_6  and  C5_7 
REMARK    4  A    between atoms: C4_6  and  C22_29 
REMARK    5  A    between atoms: C5_7  and  C6_8 
REMARK    6  A    between atoms: C6_8  and  N2_9 
REMARK    7  A    between atoms: C7_10  and  C8_11 
REMARK    8  A    between atoms: C9_13  and  C10_14 
REMARK    9  A    between atoms: C15_20  and  N5_21 
REMARK   10  A    between atoms: C22_29  and  C23_30 
REMARK   11  A    between atoms: C23_30  and  N7_31 
ROOT
HETATM    1  N1  UNL     1      27.091   1.190  53.293  1.00  0.00    -0.337 N 
HETATM    2  C3  UNL     1      28.210   1.838  53.872  1.00  0.00     0.477 C 
HETATM    3  O1  UNL     1      29.157   2.531  54.316  1.00  0.00    -0.392 OA
ENDROOT
BRANCH   1   4
HETATM    4  C2  UNL     1      26.949  -0.208  53.643  1.00  0.00     0.126 C 
HETATM    5  C1  UNL     1      26.729  -1.070  52.405  1.00  0.00     0.027 C 
ENDBRANCH   1   4
BRANCH   1   6
HETATM    6  C4  UNL     1      26.319   2.063  52.480  1.00  0.00     0.034 C 
BRANCH   6   7
HETATM    7  C5  UNL     1      26.707   2.489  51.149  1.00  0.00     0.047 C 
BRANCH   7   8
HETATM    8  C6  UNL     1      26.216   3.214  50.182  1.00  0.00     0.101 C 
BRANCH   8   9
HETATM    9  N2  UNL     1      26.019   4.461  49.592  1.00  0.00    -0.303 N 
HETATM   10  C7  UNL     1      24.832   5.136  49.596  1.00  0.00     0.162 A 
HETATM   11  N6  UNL     1      25.082   6.249  48.944  1.00  0.00    -0.226 NA
HETATM   12  C16 UNL     1      26.346   6.336  48.523  1.00  0.00     0.086 A 
HETATM   13  C17 UNL     1      26.957   7.339  47.820  1.00  0.00     0.034 A 
HETATM   14  C21 UNL     1      26.950   5.175  48.946  1.00  0.00     0.069 A 
HETATM   15  C18 UNL     1      28.298   7.193  47.496  1.00  0.00     0.002 A 
HETATM   16  C19 UNL     1      28.955   6.057  47.890  1.00  0.00     0.002 A 
HETATM   17  C20 UNL     1      28.276   5.097  48.591  1.00  0.00     0.032 A 
BRANCH  10  18
HETATM   18  C8  UNL     1      23.538   4.786  50.160  1.00  0.00     0.114 A 
HETATM   19  N3  UNL     1      23.126   3.647  49.651  1.00  0.00    -0.249 NA
HETATM   20  C9  UNL     1      21.846   3.144  50.104  1.00  0.00     0.074 A 
HETATM   21  C13 UNL     1      21.349   3.988  50.979  1.00  0.00     0.006 A 
HETATM   22  C14 UNL     1      21.675   5.266  51.635  1.00  0.00     0.071 A 
HETATM   23  C15 UNL     1      23.008   5.760  51.141  1.00  0.00     0.276 A 
BRANCH  20  24
HETATM   24  C10 UNL     1      21.126   1.907  49.722  1.00  0.00     0.271 A 
HETATM   25  C11 UNL     1      20.209   1.344  50.773  1.00  0.00     0.062 C 
HETATM   26  C12 UNL     1      21.559   1.162  48.599  1.00  0.00     0.349 A 
HETATM   27  N4  UNL     1      20.469   2.010  48.430  1.00  0.00     0.334 N 
ENDBRANCH  20  24
BRANCH  23  28
HETATM   28  N5  UNL     1      23.962   5.926  52.224  1.00  0.00     0.089 N 
HETATM   29  H17 UNL     1      23.452   5.783  53.121  1.00  0.00     0.313 HD
HETATM   30  H18 UNL     1      24.521   6.789  52.160  1.00  0.00     0.313 HD
ENDBRANCH  23  28
ENDBRANCH  10  18
ENDBRANCH   8   9
ENDBRANCH   7   8
ENDBRANCH   6   7
BRANCH   6  31
HETATM   31  C22 UNL     1      25.171   2.543  52.921  1.00  0.00     0.032 C 
BRANCH  31  32
HETATM   32  C23 UNL     1      23.764   2.091  52.941  1.00  0.00     0.296 C 
BRANCH  32  33
HETATM   33  N7  UNL     1      23.588   0.784  52.330  1.00  0.00     0.081 N 
HETATM   34  H26 UNL     1      23.988   0.727  51.382  1.00  0.00     0.313 HD
HETATM   35  H27 UNL     1      24.026   0.049  52.920  1.00  0.00     0.313 HD
ENDBRANCH  32  33
ENDBRANCH  31  32
ENDBRANCH   6  31
ENDBRANCH   1   6
TORSDOF 11
ENDMDL
MODEL 2
REMARK VINA RESULT:      -7.6      2.514      5.803
REMARK  11 active torsions:
REMARK  status: ('A' for Active; 'I' for Inactive)
REMARK    1  A    between atoms: C2_2  and  N1_3 
REMARK    2  A    between atoms: N1_3  and  C4_6 
REMARK    3  A    between atoms: C4_6  and  C5_7 
REMARK    4  A    between atoms: C4_6  and  C22_29 
REMARK    5  A    between atoms: C5_7  and  C6_8 
REMARK    6  A    between atoms: C6_8  and  N2_9 
REMARK    7  A    between atoms: C7_10  and  C8_11 
REMARK    8  A    between atoms: C9_13  and  C10_14 
REMARK    9  A    between atoms: C15_20  and  N5_21 
REMARK   10  A    between atoms: C22_29  and  C23_30 
REMARK   11  A    between atoms: C23_30  and  N7_31 
ROOT
HETATM    1  N1  UNL     1      24.486   4.019  50.113  1.00  0.00    -0.337 N 
HETATM    2  C3  UNL     1      23.581   4.109  49.026  1.00  0.00     0.477 C 
HETATM    3  O1  UNL     1      22.699   4.272  48.150  1.00  0.00    -0.392 OA
ENDROOT
BRANCH   1   4
HETATM    4  C2  UNL     1      25.658   3.207  49.863  1.00  0.00     0.126 C 
HETATM    5  C1  UNL     1      26.812   4.048  49.330  1.00  0.00     0.027 C 
ENDBRANCH   1   4
BRANCH   1   6
HETATM    6  C4  UNL     1      24.055   4.768  51.242  1.00  0.00     0.034 C 
BRANCH   6   7
HETATM    7  C5  UNL     1      23.940   4.223  52.581  1.00  0.00     0.047 C 
BRANCH   7   8
HETATM    8  C6  UNL     1      24.235   3.117  53.206  1.00  0.00     0.101 C 
BRANCH   8   9
HETATM    9  N2  UNL     1      24.750   1.822  53.185  1.00  0.00    -0.303 N 
HETATM   10  C7  UNL     1      23.992   0.693  53.076  1.00  0.00     0.162 A 
HETATM   11  N6  UNL     1      24.860  -0.293  53.094  1.00  0.00    -0.226 NA
HETATM   12  C16 UNL     1      26.123   0.126  53.209  1.00  0.00     0.086 A 
HETATM   13  C17 UNL     1      27.277  -0.609  53.262  1.00  0.00     0.034 A 
HETATM   14  C21 UNL     1      26.047   1.497  53.267  1.00  0.00     0.069 A 
HETATM   15  C18 UNL     1      28.482   0.066  53.384  1.00  0.00     0.002 A 
HETATM   16  C19 UNL     1      28.472   1.436  53.447  1.00  0.00     0.002 A 
HETATM   17  C20 UNL     1      27.276   2.101  53.387  1.00  0.00     0.032 A 
BRANCH  10  18
HETATM   18  C8  UNL     1      22.553   0.518  52.961  1.00  0.00     0.114 A 
HETATM   19  N3  UNL     1      22.161   0.849  51.751  1.00  0.00    -0.249 NA
HETATM   20  C9  UNL     1      20.747   0.735  51.459  1.00  0.00     0.074 A 
HETATM   21  C13 UNL     1      20.130   0.298  52.532  1.00  0.00     0.006 A 
HETATM   22  C14 UNL     1      20.415  -0.105  53.920  1.00  0.00     0.071 A 
HETATM   23  C15 UNL     1      21.890   0.027  54.190  1.00  0.00     0.276 A 
BRANCH  20  24
HETATM   24  C10 UNL     1      20.014   1.027  50.206  1.00  0.00     0.271 A 
HETATM   25  C11 UNL     1      18.565   0.620  50.196  1.00  0.00     0.062 C 
HETATM   26  C12 UNL     1      20.734   1.336  49.027  1.00  0.00     0.349 A 
HETATM   27  N4  UNL     1      20.193   2.395  49.749  1.00  0.00     0.334 N 
ENDBRANCH  20  24
BRANCH  23  28
HETATM   28  N5  UNL     1      22.485  -1.238  54.589  1.00  0.00     0.089 N 
HETATM   29  H17 UNL     1      22.951  -1.092  55.509  1.00  0.00     0.313 HD
HETATM   30  H18 UNL     1      23.064  -1.677  53.859  1.00  0.00     0.313 HD
ENDBRANCH  23  28
ENDBRANCH  10  18
ENDBRANCH   8   9
ENDBRANCH   7   8
ENDBRANCH   6   7
BRANCH   6  31
HETATM   31  C22 UNL     1      23.728   6.040  51.112  1.00  0.00     0.032 C 
BRANCH  31  32
HETATM   32  C23 UNL     1      24.423   7.286  50.725  1.00  0.00     0.296 C 
BRANCH  32  33
HETATM   33  N7  UNL     1      25.863   7.201  50.907  1.00  0.00     0.081 N 
HETATM   34  H26 UNL     1      26.350   8.078  50.670  1.00  0.00     0.313 HD
HETATM   35  H27 UNL     1      26.088   6.953  51.891  1.00  0.00     0.313 HD
ENDBRANCH  32  33
ENDBRANCH  31  32
ENDBRANCH   6  31
ENDBRANCH   1   6
TORSDOF 11
ENDMDL
MODEL 3
REMARK VINA RESULT:      -7.5      1.261      2.146
REMARK  11 active torsions:
REMARK  status: ('A' for Active; 'I' for Inactive)
REMARK    1  A    between atoms: C2_2  and  N1_3 
REMARK    2  A    between atoms: N1_3  and  C4_6 
REMARK    3  A    between atoms: C4_6  and  C5_7 
REMARK    4  A    between atoms: C4_6  and  C22_29 
REMARK    5  A    between atoms: C5_7  and  C6_8 
REMARK    6  A    between atoms: C6_8  and  N2_9 
REMARK    7  A    between atoms: C7_10  and  C8_11 
REMARK    8  A    between atoms: C9_13  and  C10_14 
REMARK    9  A    between atoms: C15_20  and  N5_21 
REMARK   10  A    between atoms: C22_29  and  C23_30 
REMARK   11  A    between atoms: C23_30  and  N7_31 
ROOT
HETATM    1  N1  UNL     1      25.624   0.808  52.431  1.00  0.00    -0.337 N 
HETATM    2  C3  UNL     1      26.062  -0.523  52.644  1.00  0.00     0.477 C 
HETATM    3  O1  UNL     1      26.585  -1.649  52.822  1.00  0.00    -0.392 OA
ENDROOT
BRANCH   1   4
HETATM    4  C2  UNL     1      24.187   0.983  52.431  1.00  0.00     0.126 C 
HETATM    5  C1  UNL     1      23.504  -0.053  53.316  1.00  0.00     0.027 C 
ENDBRANCH   1   4
BRANCH   1   6
HETATM    6  C4  UNL     1      26.705   1.716  52.268  1.00  0.00     0.034 C 
BRANCH   6   7
HETATM    7  C5  UNL     1      26.942   2.490  51.064  1.00  0.00     0.047 C 
BRANCH   7   8
HETATM    8  C6  UNL     1      26.251   3.211  50.224  1.00  0.00     0.101 C 
BRANCH   8   9
HETATM    9  N2  UNL     1      25.961   4.449  49.655  1.00  0.00    -0.303 N 
HETATM   10  C7  UNL     1      24.739   5.055  49.708  1.00  0.00     0.162 A 
HETATM   11  N6  UNL     1      24.901   6.186  49.059  1.00  0.00    -0.226 NA
HETATM   12  C16 UNL     1      26.142   6.347  48.592  1.00  0.00     0.086 A 
HETATM   13  C17 UNL     1      26.668   7.389  47.878  1.00  0.00     0.034 A 
HETATM   14  C21 UNL     1      26.826   5.220  48.982  1.00  0.00     0.069 A 
HETATM   15  C18 UNL     1      28.002   7.323  47.503  1.00  0.00     0.002 A 
HETATM   16  C19 UNL     1      28.738   6.223  47.863  1.00  0.00     0.002 A 
HETATM   17  C20 UNL     1      28.140   5.221  48.579  1.00  0.00     0.032 A 
BRANCH  10  18
HETATM   18  C8  UNL     1      23.489   4.627  50.316  1.00  0.00     0.114 A 
HETATM   19  N3  UNL     1      23.116   3.478  49.801  1.00  0.00    -0.249 NA
HETATM   20  C9  UNL     1      21.883   2.899  50.293  1.00  0.00     0.074 A 
HETATM   21  C13 UNL     1      21.379   3.700  51.204  1.00  0.00     0.006 A 
HETATM   22  C14 UNL     1      21.664   4.982  51.871  1.00  0.00     0.071 A 
HETATM   23  C15 UNL     1      22.949   5.554  51.336  1.00  0.00     0.276 A 
BRANCH  20  24
HETATM   24  C10 UNL     1      21.214   1.634  49.916  1.00  0.00     0.271 A 
HETATM   25  C11 UNL     1      20.588   0.870  51.051  1.00  0.00     0.062 C 
HETATM   26  C12 UNL     1      21.471   1.055  48.649  1.00  0.00     0.349 A 
HETATM   27  N4  UNL     1      20.297   1.788  48.799  1.00  0.00     0.334 N 
ENDBRANCH  20  24
BRANCH  23  28
HETATM   28  N5  UNL     1      23.936   5.751  52.384  1.00  0.00     0.089 N 
HETATM   29  H17 UNL     1      24.329   4.818  52.629  1.00  0.00     0.313 HD
HETATM   30  H18 UNL     1      23.598   6.316  53.176  1.00  0.00     0.313 HD
ENDBRANCH  23  28
ENDBRANCH  10  18
ENDBRANCH   8   9
ENDBRANCH   7   8
ENDBRANCH   6   7
BRANCH   6  31
HETATM   31  C22 UNL     1      27.575   1.899  53.244  1.00  0.00     0.032 C 
BRANCH  31  32
HETATM   32  C23 UNL     1      28.935   1.417  53.565  1.00  0.00     0.296 C 
BRANCH  32  33
HETATM   33  N7  UNL     1      29.554   2.169  54.645  1.00  0.00     0.081 N 
HETATM   34  H26 UNL     1      30.553   1.950  54.765  1.00  0.00     0.313 HD
HETATM   35  H27 UNL     1      29.455   3.190  54.474  1.00  0.00     0.313 HD
ENDBRANCH  32  33
ENDBRANCH  31  32
ENDBRANCH   6  31
ENDBRANCH   1   6
TORSDOF 11
ENDMDL
MODEL 4
REMARK VINA RESULT:      -7.0      2.564      7.124
REMARK  11 active torsions:
REMARK  status: ('A' for Active; 'I' for Inactive)
REMARK    1  A    between atoms: C2_2  and  N1_3 
REMARK    2  A    between atoms: N1_3  and  C4_6 
REMARK    3  A    between atoms: C4_6  and  C5_7 
REMARK    4  A    between atoms: C4_6  and  C22_29 
REMARK    5  A    between atoms: C5_7  and  C6_8 
REMARK    6  A    between atoms: C6_8  and  N2_9 
REMARK    7  A    between atoms: C7_10  and  C8_11 
REMARK    8  A    between atoms: C9_13  and  C10_14 
REMARK    9  A    between atoms: C15_20  and  N5_21 
REMARK   10  A    between atoms: C22_29  and  C23_30 
REMARK   11  A    between atoms: C23_30  and  N7_31 
ROOT
HETATM    1  N1  UNL     1      23.751   4.132  49.782  1.00  0.00    -0.337 N 
HETATM    2  C3  UNL     1      25.045   3.616  49.524  1.00  0.00     0.477 C 
HETATM    3  O1  UNL     1      26.228   3.210  49.426  1.00  0.00    -0.392 OA
ENDROOT
BRANCH   1   4
HETATM    4  C2  UNL     1      22.788   3.918  48.722  1.00  0.00     0.126 C 
HETATM    5  C1  UNL     1      22.678   2.439  48.365  1.00  0.00     0.027 C 
ENDBRANCH   1   4
BRANCH   1   6
HETATM    6  C4  UNL     1      23.659   4.758  51.055  1.00  0.00     0.034 C 
BRANCH   6   7
HETATM    7  C5  UNL     1      22.912   4.216  52.174  1.00  0.00     0.047 C 
BRANCH   7   8
HETATM    8  C6  UNL     1      22.008   3.299  52.382  1.00  0.00     0.101 C 
BRANCH   8   9
HETATM    9  N2  UNL     1      21.173   2.297  51.891  1.00  0.00    -0.303 N 
HETATM   10  C7  UNL     1      21.275   0.977  52.224  1.00  0.00     0.162 A 
HETATM   11  N6  UNL     1      20.312   0.390  51.551  1.00  0.00    -0.226 NA
HETATM   12  C16 UNL     1      19.599   1.241  50.809  1.00  0.00     0.086 A 
HETATM   13  C17 UNL     1      18.534   0.990  49.988  1.00  0.00     0.034 A 
HETATM   14  C21 UNL     1      20.160   2.476  51.033  1.00  0.00     0.069 A 
HETATM   15  C18 UNL     1      17.955   2.055  49.315  1.00  0.00     0.002 A 
HETATM   16  C19 UNL     1      18.470   3.312  49.497  1.00  0.00     0.002 A 
HETATM   17  C20 UNL     1      19.539   3.485  50.336  1.00  0.00     0.032 A 
BRANCH  10  18
HETATM   18  C8  UNL     1      22.202   0.286  53.107  1.00  0.00     0.114 A 
HETATM   19  N3  UNL     1      23.437   0.600  52.787  1.00  0.00    -0.249 NA
HETATM   20  C9  UNL     1      24.497  -0.002  53.568  1.00  0.00     0.074 A 
HETATM   21  C13 UNL     1      23.958  -0.776  54.482  1.00  0.00     0.006 A 
HETATM   22  C14 UNL     1      22.636  -1.221  54.955  1.00  0.00     0.071 A 
HETATM   23  C15 UNL     1      21.560  -0.579  54.122  1.00  0.00     0.276 A 
BRANCH  20  24
HETATM   24  C10 UNL     1      25.965   0.157  53.453  1.00  0.00     0.271 A 
HETATM   25  C11 UNL     1      26.543  -0.152  52.099  1.00  0.00     0.062 C 
HETATM   26  C12 UNL     1      26.755   0.247  54.624  1.00  0.00     0.349 A 
HETATM   27  N4  UNL     1      26.440   1.431  53.965  1.00  0.00     0.334 N 
ENDBRANCH  20  24
BRANCH  23  28
HETATM   28  N5  UNL     1      20.648   0.215  54.928  1.00  0.00     0.089 N 
HETATM   29  H17 UNL     1      21.156   0.504  55.790  1.00  0.00     0.313 HD
HETATM   30  H18 UNL     1      19.729  -0.227  55.078  1.00  0.00     0.313 HD
ENDBRANCH  23  28
ENDBRANCH  10  18
ENDBRANCH   8   9
ENDBRANCH   7   8
ENDBRANCH   6   7
BRANCH   6  31
HETATM   31  C22 UNL     1      24.273   5.904  51.279  1.00  0.00     0.032 C 
BRANCH  31  32
HETATM   32  C23 UNL     1      24.736   7.044  50.461  1.00  0.00     0.296 C 
BRANCH  32  33
HETATM   33  N7  UNL     1      26.055   7.514  50.852  1.00  0.00     0.081 N 
HETATM   34  H26 UNL     1      26.567   6.835  51.434  1.00  0.00     0.313 HD
HETATM   35  H27 UNL     1      26.627   7.725  50.009  1.00  0.00     0.313 HD
ENDBRANCH  32  33
ENDBRANCH  31  32
ENDBRANCH   6  31
ENDBRANCH   1   6
TORSDOF 11
ENDMDL
MODEL 5
REMARK VINA RESULT:      -6.8      1.963      6.377
REMARK  11 active torsions:
REMARK  status: ('A' for Active; 'I' for Inactive)
REMARK    1  A    between atoms: C2_2  and  N1_3 
REMARK    2  A    between atoms: N1_3  and  C4_6 
REMARK    3  A    between atoms: C4_6  and  C5_7 
REMARK    4  A    between atoms: C4_6  and  C22_29 
REMARK    5  A    between atoms: C5_7  and  C6_8 
REMARK    6  A    between atoms: C6_8  and  N2_9 
REMARK    7  A    between atoms: C7_10  and  C8_11 
REMARK    8  A    between atoms: C9_13  and  C10_14 
REMARK    9  A    between atoms: C15_20  and  N5_21 
REMARK   10  A    between atoms: C22_29  and  C23_30 
REMARK   11  A    between atoms: C23_30  and  N7_31 
ROOT
HETATM    1  N1  UNL     1      26.538   2.113  51.845  1.00  0.00    -0.337 N 
HETATM    2  C3  UNL     1      27.763   2.247  52.545  1.00  0.00     0.477 C 
HETATM    3  O1  UNL     1      28.821   2.234  53.219  1.00  0.00    -0.392 OA
ENDROOT
BRANCH   1   4
HETATM    4  C2  UNL     1      26.188   3.243  51.010  1.00  0.00     0.126 C 
HETATM    5  C1  UNL     1      26.506   2.968  49.545  1.00  0.00     0.027 C 
ENDBRANCH   1   4
BRANCH   1   6
HETATM    6  C4  UNL     1      25.897   0.871  52.104  1.00  0.00     0.034 C 
BRANCH   6   7
HETATM    7  C5  UNL     1      24.483   0.731  52.392  1.00  0.00     0.047 C 
BRANCH   7   8
HETATM    8  C6  UNL     1      23.360   1.283  52.024  1.00  0.00     0.101 C 
BRANCH   8   9
HETATM    9  N2  UNL     1      22.002   1.171  51.730  1.00  0.00    -0.303 N 
HETATM   10  C7  UNL     1      21.369   1.856  50.734  1.00  0.00     0.162 A 
HETATM   11  N6  UNL     1      20.118   1.461  50.801  1.00  0.00    -0.226 NA
HETATM   12  C16 UNL     1      19.904   0.570  51.773  1.00  0.00     0.086 A 
HETATM   13  C17 UNL     1      18.740  -0.052  52.134  1.00  0.00     0.034 A 
HETATM   14  C21 UNL     1      21.128   0.384  52.372  1.00  0.00     0.069 A 
HETATM   15  C18 UNL     1      18.774  -0.950  53.191  1.00  0.00     0.002 A 
HETATM   16  C19 UNL     1      19.965  -1.178  53.829  1.00  0.00     0.002 A 
HETATM   17  C20 UNL     1      21.089  -0.517  53.410  1.00  0.00     0.032 A 
BRANCH  10  18
HETATM   18  C8  UNL     1      21.876   2.821  49.770  1.00  0.00     0.114 A 
HETATM   19  N3  UNL     1      22.556   3.756  50.395  1.00  0.00    -0.249 NA
HETATM   20  C9  UNL     1      23.137   4.806  49.585  1.00  0.00     0.074 A 
HETATM   21  C13 UNL     1      22.839   4.579  48.326  1.00  0.00     0.006 A 
HETATM   22  C14 UNL     1      22.109   3.609  47.490  1.00  0.00     0.071 A 
HETATM   23  C15 UNL     1      21.519   2.535  48.363  1.00  0.00     0.276 A 
BRANCH  20  24
HETATM   24  C10 UNL     1      23.946   5.977  49.992  1.00  0.00     0.271 A 
HETATM   25  C11 UNL     1      24.922   6.477  48.962  1.00  0.00     0.062 C 
HETATM   26  C12 UNL     1      24.017   6.341  51.359  1.00  0.00     0.349 A 
HETATM   27  N4  UNL     1      23.144   7.057  50.544  1.00  0.00     0.334 N 
ENDBRANCH  20  24
BRANCH  23  28
HETATM   28  N5  UNL     1      22.002   1.213  47.999  1.00  0.00     0.089 N 
HETATM   29  H17 UNL     1      21.739   1.041  47.006  1.00  0.00     0.313 HD
HETATM   30  H18 UNL     1      21.737   0.473  48.666  1.00  0.00     0.313 HD
ENDBRANCH  23  28
ENDBRANCH  10  18
ENDBRANCH   8   9
ENDBRANCH   7   8
ENDBRANCH   6   7
BRANCH   6  31
HETATM   31  C22 UNL     1      26.592  -0.251  52.094  1.00  0.00     0.032 C 
BRANCH  31  32
HETATM   32  C23 UNL     1      27.305  -1.073  53.095  1.00  0.00     0.296 C 
BRANCH  32  33
HETATM   33  N7  UNL     1      27.277  -2.491  52.775  1.00  0.00     0.081 N 
HETATM   34  H26 UNL     1      26.322  -2.856  52.650  1.00  0.00     0.313 HD
HETATM   35  H27 UNL     1      27.818  -2.674  51.906  1.00  0.00     0.313 HD
ENDBRANCH  32  33
ENDBRANCH  31  32
ENDBRANCH   6  31
ENDBRANCH   1   6
TORSDOF 11
ENDMDL
MODEL 6
REMARK VINA RESULT:      -6.7      2.347      5.742
REMARK  11 active torsions:
REMARK  status: ('A' for Active; 'I' for Inactive)
REMARK    1  A    between atoms: C2_2  and  N1_3 
REMARK    2  A    between atoms: N1_3  and  C4_6 
REMARK    3  A    between atoms: C4_6  and  C5_7 
REMARK    4  A    between atoms: C4_6  and  C22_29 
REMARK    5  A    between atoms: C5_7  and  C6_8 
REMARK    6  A    between atoms: C6_8  and  N2_9 
REMARK    7  A    between atoms: C7_10  and  C8_11 
REMARK    8  A    between atoms: C9_13  and  C10_14 
REMARK    9  A    between atoms: C15_20  and  N5_21 
REMARK   10  A    between atoms: C22_29  and  C23_30 
REMARK   11  A    between atoms: C23_30  and  N7_31 
ROOT
HETATM    1  N1  UNL     1      28.102   6.719  48.463  1.00  0.00    -0.337 N 
HETATM    2  C3  UNL     1      29.072   5.727  48.173  1.00  0.00     0.477 C 
HETATM    3  O1  UNL     1      29.822   4.753  47.927  1.00  0.00    -0.392 OA
ENDROOT
BRANCH   1   4
HETATM    4  C2  UNL     1      28.612   8.073  48.512  1.00  0.00     0.126 C 
HETATM    5  C1  UNL     1      29.251   8.472  47.187  1.00  0.00     0.027 C 
ENDBRANCH   1   4
BRANCH   1   6
HETATM    6  C4  UNL     1      26.801   6.172  48.639  1.00  0.00     0.034 C 
BRANCH   6   7
HETATM    7  C5  UNL     1      26.543   4.795  49.011  1.00  0.00     0.047 C 
BRANCH   7   8
HETATM    8  C6  UNL     1      26.242   4.122  50.088  1.00  0.00     0.101 C 
BRANCH   8   9
HETATM    9  N2  UNL     1      25.363   3.294  50.784  1.00  0.00    -0.303 N 
HETATM   10  C7  UNL     1      24.029   3.539  50.933  1.00  0.00     0.162 A 
HETATM   11  N6  UNL     1      23.583   2.528  51.643  1.00  0.00    -0.226 NA
HETATM   12  C16 UNL     1      24.538   1.651  51.960  1.00  0.00     0.086 A 
HETATM   13  C17 UNL     1      24.444   0.492  52.682  1.00  0.00     0.034 A 
HETATM   14  C21 UNL     1      25.691   2.151  51.401  1.00  0.00     0.069 A 
HETATM   15  C18 UNL     1      25.595  -0.257  52.879  1.00  0.00     0.002 A 
HETATM   16  C19 UNL     1      26.776   0.190  52.345  1.00  0.00     0.002 A 
HETATM   17  C20 UNL     1      26.791   1.360  51.634  1.00  0.00     0.032 A 
BRANCH  10  18
HETATM   18  C8  UNL     1      23.202   4.637  50.456  1.00  0.00     0.114 A 
HETATM   19  N3  UNL     1      22.811   4.395  49.225  1.00  0.00    -0.249 NA
HETATM   20  C9  UNL     1      21.974   5.390  48.587  1.00  0.00     0.074 A 
HETATM   21  C13 UNL     1      21.776   6.375  49.433  1.00  0.00     0.006 A 
HETATM   22  C14 UNL     1      22.132   6.784  50.803  1.00  0.00     0.071 A 
HETATM   23  C15 UNL     1      23.002   5.730  51.433  1.00  0.00     0.276 A 
BRANCH  20  24
HETATM   24  C10 UNL     1      21.383   5.401  47.230  1.00  0.00     0.271 A 
HETATM   25  C11 UNL     1      22.330   5.755  46.116  1.00  0.00     0.062 C 
HETATM   26  C12 UNL     1      19.976   5.418  47.077  1.00  0.00     0.349 A 
HETATM   27  N4  UNL     1      20.626   4.197  46.931  1.00  0.00     0.334 N 
ENDBRANCH  20  24
BRANCH  23  28
HETATM   28  N5  UNL     1      22.411   5.193  52.648  1.00  0.00     0.089 N 
HETATM   29  H17 UNL     1      23.061   5.400  53.435  1.00  0.00     0.313 HD
HETATM   30  H18 UNL     1      22.106   4.212  52.566  1.00  0.00     0.313 HD
ENDBRANCH  23  28
ENDBRANCH  10  18
ENDBRANCH   8   9
ENDBRANCH   7   8
ENDBRANCH   6   7
BRANCH   6  31
HETATM   31  C22 UNL     1      25.733   6.926  48.463  1.00  0.00     0.032 C 
BRANCH  31  32
HETATM   32  C23 UNL     1      25.082   8.040  49.185  1.00  0.00     0.296 C 
BRANCH  32  33
HETATM   33  N7  UNL     1      25.550   8.166  50.556  1.00  0.00     0.081 N 
HETATM   34  H26 UNL     1      26.507   8.541  50.620  1.00  0.00     0.313 HD
HETATM   35  H27 UNL     1      24.914   8.785  51.097  1.00  0.00     0.313 HD
ENDBRANCH  32  33
ENDBRANCH  31  32
ENDBRANCH   6  31
ENDBRANCH   1   6
TORSDOF 11
ENDMDL
MODEL 7
REMARK VINA RESULT:      -6.7      2.018      5.605
REMARK  11 active torsions:
REMARK  status: ('A' for Active; 'I' for Inactive)
REMARK    1  A    between atoms: C2_2  and  N1_3 
REMARK    2  A    between atoms: N1_3  and  C4_6 
REMARK    3  A    between atoms: C4_6  and  C5_7 
REMARK    4  A    between atoms: C4_6  and  C22_29 
REMARK    5  A    between atoms: C5_7  and  C6_8 
REMARK    6  A    between atoms: C6_8  and  N2_9 
REMARK    7  A    between atoms: C7_10  and  C8_11 
REMARK    8  A    between atoms: C9_13  and  C10_14 
REMARK    9  A    between atoms: C15_20  and  N5_21 
REMARK   10  A    between atoms: C22_29  and  C23_30 
REMARK   11  A    between atoms: C23_30  and  N7_31 
ROOT
HETATM    1  N1  UNL     1      27.209   6.287  48.530  1.00  0.00    -0.337 N 
HETATM    2  C3  UNL     1      28.462   5.670  48.287  1.00  0.00     0.477 C 
HETATM    3  O1  UNL     1      29.507   5.000  48.109  1.00  0.00    -0.392 OA
ENDROOT
BRANCH   1   4
HETATM    4  C2  UNL     1      27.184   7.719  48.316  1.00  0.00     0.126 C 
HETATM    5  C1  UNL     1      28.410   8.391  48.925  1.00  0.00     0.027 C 
ENDBRANCH   1   4
BRANCH   1   6
HETATM    6  C4  UNL     1      26.214   5.355  48.932  1.00  0.00     0.034 C 
BRANCH   6   7
HETATM    7  C5  UNL     1      26.489   4.148  49.687  1.00  0.00     0.047 C 
BRANCH   7   8
HETATM    8  C6  UNL     1      25.830   3.119  50.142  1.00  0.00     0.101 C 
BRANCH   8   9
HETATM    9  N2  UNL     1      25.174   2.476  51.191  1.00  0.00    -0.303 N 
HETATM   10  C7  UNL     1      23.975   2.873  51.709  1.00  0.00     0.162 A 
HETATM   11  N6  UNL     1      23.722   2.006  52.662  1.00  0.00    -0.226 NA
HETATM   12  C16 UNL     1      24.676   1.080  52.793  1.00  0.00     0.086 A 
HETATM   13  C17 UNL     1      24.750   0.032  53.670  1.00  0.00     0.034 A 
HETATM   14  C21 UNL     1      25.614   1.388  51.836  1.00  0.00     0.069 A 
HETATM   15  C18 UNL     1      25.857  -0.802  53.608  1.00  0.00     0.002 A 
HETATM   16  C19 UNL     1      26.827  -0.546  52.675  1.00  0.00     0.002 A 
HETATM   17  C20 UNL     1      26.682   0.522  51.830  1.00  0.00     0.032 A 
BRANCH  10  18
HETATM   18  C8  UNL     1      23.105   3.984  51.356  1.00  0.00     0.114 A 
HETATM   19  N3  UNL     1      22.099   3.548  50.632  1.00  0.00    -0.249 NA
HETATM   20  C9  UNL     1      21.128   4.525  50.190  1.00  0.00     0.074 A 
HETATM   21  C13 UNL     1      21.487   5.707  50.638  1.00  0.00     0.006 A 
HETATM   22  C14 UNL     1      22.550   6.342  51.435  1.00  0.00     0.071 A 
HETATM   23  C15 UNL     1      23.541   5.299  51.876  1.00  0.00     0.276 A 
BRANCH  20  24
HETATM   24  C10 UNL     1      19.904   4.343  49.376  1.00  0.00     0.271 A 
HETATM   25  C11 UNL     1      18.875   5.433  49.504  1.00  0.00     0.062 C 
HETATM   26  C12 UNL     1      19.615   3.074  48.818  1.00  0.00     0.349 A 
HETATM   27  N4  UNL     1      20.189   4.030  47.986  1.00  0.00     0.334 N 
ENDBRANCH  20  24
BRANCH  23  28
HETATM   28  N5  UNL     1      23.655   5.235  53.323  1.00  0.00     0.089 N 
HETATM   29  H17 UNL     1      24.667   5.299  53.565  1.00  0.00     0.313 HD
HETATM   30  H18 UNL     1      23.143   4.449  53.749  1.00  0.00     0.313 HD
ENDBRANCH  23  28
ENDBRANCH  10  18
ENDBRANCH   8   9
ENDBRANCH   7   8
ENDBRANCH   6   7
BRANCH   6  31
HETATM   31  C22 UNL     1      24.947   5.557  48.619  1.00  0.00     0.032 C 
BRANCH  31  32
HETATM   32  C23 UNL     1      24.141   6.689  48.115  1.00  0.00     0.296 C 
BRANCH  32  33
HETATM   33  N7  UNL     1      22.970   6.253  47.372  1.00  0.00     0.081 N 
HETATM   34  H26 UNL     1      22.162   6.051  47.979  1.00  0.00     0.313 HD
HETATM   35  H27 UNL     1      22.692   6.978  46.680  1.00  0.00     0.313 HD
ENDBRANCH  32  33
ENDBRANCH  31  32
ENDBRANCH   6  31
ENDBRANCH   1   6
TORSDOF 11
ENDMDL
MODEL 8
REMARK VINA RESULT:      -6.7      2.071      6.043
REMARK  11 active torsions:
REMARK  status: ('A' for Active; 'I' for Inactive)
REMARK    1  A    between atoms: C2_2  and  N1_3 
REMARK    2  A    between atoms: N1_3  and  C4_6 
REMARK    3  A    between atoms: C4_6  and  C5_7 
REMARK    4  A    between atoms: C4_6  and  C22_29 
REMARK    5  A    between atoms: C5_7  and  C6_8 
REMARK    6  A    between atoms: C6_8  and  N2_9 
REMARK    7  A    between atoms: C7_10  and  C8_11 
REMARK    8  A    between atoms: C9_13  and  C10_14 
REMARK    9  A    between atoms: C15_20  and  N5_21 
REMARK   10  A    between atoms: C22_29  and  C23_30 
REMARK   11  A    between atoms: C23_30  and  N7_31 
ROOT
HETATM    1  N1  UNL     1      26.800   1.318  52.923  1.00  0.00    -0.337 N 
HETATM    2  C3  UNL     1      27.883   2.012  53.518  1.00  0.00     0.477 C 
HETATM    3  O1  UNL     1      28.806   2.738  53.959  1.00  0.00    -0.392 OA
ENDROOT
BRANCH   1   4
HETATM    4  C2  UNL     1      26.600  -0.030  53.411  1.00  0.00     0.126 C 
HETATM    5  C1  UNL     1      26.530  -1.031  52.263  1.00  0.00     0.027 C 
ENDBRANCH   1   4
BRANCH   1   6
HETATM    6  C4  UNL     1      26.114   2.105  51.959  1.00  0.00     0.034 C 
BRANCH   6   7
HETATM    7  C5  UNL     1      24.720   2.489  52.067  1.00  0.00     0.047 C 
BRANCH   7   8
HETATM    8  C6  UNL     1      23.561   2.057  51.651  1.00  0.00     0.101 C 
BRANCH   8   9
HETATM    9  N2  UNL     1      22.305   1.521  51.929  1.00  0.00    -0.303 N 
HETATM   10  C7  UNL     1      21.140   1.954  51.364  1.00  0.00     0.162 A 
HETATM   11  N6  UNL     1      20.211   1.191  51.893  1.00  0.00    -0.226 NA
HETATM   12  C16 UNL     1      20.698   0.298  52.758  1.00  0.00     0.086 A 
HETATM   13  C17 UNL     1      20.035  -0.648  53.491  1.00  0.00     0.034 A 
HETATM   14  C21 UNL     1      22.056   0.516  52.778  1.00  0.00     0.069 A 
HETATM   15  C18 UNL     1      20.773  -1.467  54.332  1.00  0.00     0.002 A 
HETATM   16  C19 UNL     1      22.132  -1.299  54.395  1.00  0.00     0.002 A 
HETATM   17  C20 UNL     1      22.725  -0.330  53.630  1.00  0.00     0.032 A 
BRANCH  10  18
HETATM   18  C8  UNL     1      20.885   3.008  50.395  1.00  0.00     0.114 A 
HETATM   19  N3  UNL     1      21.670   4.034  50.638  1.00  0.00    -0.249 NA
HETATM   20  C9  UNL     1      21.550   5.182  49.764  1.00  0.00     0.074 A 
HETATM   21  C13 UNL     1      20.628   4.930  48.864  1.00  0.00     0.006 A 
HETATM   22  C14 UNL     1      19.688   3.866  48.469  1.00  0.00     0.071 A 
HETATM   23  C15 UNL     1      19.839   2.691  49.397  1.00  0.00     0.276 A 
BRANCH  20  24
HETATM   24  C10 UNL     1      22.287   6.466  49.782  1.00  0.00     0.271 A 
HETATM   25  C11 UNL     1      22.440   7.142  48.446  1.00  0.00     0.062 C 
HETATM   26  C12 UNL     1      23.065   6.813  50.913  1.00  0.00     0.349 A 
HETATM   27  N4  UNL     1      21.802   7.384  50.799  1.00  0.00     0.334 N 
ENDBRANCH  20  24
BRANCH  23  28
HETATM   28  N5  UNL     1      20.200   1.477  48.685  1.00  0.00     0.089 N 
HETATM   29  H17 UNL     1      19.339   0.898  48.587  1.00  0.00     0.313 HD
HETATM   30  H18 UNL     1      21.022   0.993  49.073  1.00  0.00     0.313 HD
ENDBRANCH  23  28
ENDBRANCH  10  18
ENDBRANCH   8   9
ENDBRANCH   7   8
ENDBRANCH   6   7
BRANCH   6  31
HETATM   31  C22 UNL     1      26.743   2.537  50.882  1.00  0.00     0.032 C 
BRANCH  31  32
HETATM   32  C23 UNL     1      26.416   3.407  49.733  1.00  0.00     0.296 C 
BRANCH  32  33
HETATM   33  N7  UNL     1      26.332   4.811  50.102  1.00  0.00     0.081 N 
HETATM   34  H26 UNL     1      27.185   5.156  50.566  1.00  0.00     0.313 HD
HETATM   35  H27 UNL     1      26.154   5.395  49.259  1.00  0.00     0.313 HD
ENDBRANCH  32  33
ENDBRANCH  31  32
ENDBRANCH   6  31
ENDBRANCH   1   6
TORSDOF 11
ENDMDL
MODEL 9
REMARK VINA RESULT:      -6.7      2.742      7.494
REMARK  11 active torsions:
REMARK  status: ('A' for Active; 'I' for Inactive)
REMARK    1  A    between atoms: C2_2  and  N1_3 
REMARK    2  A    between atoms: N1_3  and  C4_6 
REMARK    3  A    between atoms: C4_6  and  C5_7 
REMARK    4  A    between atoms: C4_6  and  C22_29 
REMARK    5  A    between atoms: C5_7  and  C6_8 
REMARK    6  A    between atoms: C6_8  and  N2_9 
REMARK    7  A    between atoms: C7_10  and  C8_11 
REMARK    8  A    between atoms: C9_13  and  C10_14 
REMARK    9  A    between atoms: C15_20  and  N5_21 
REMARK   10  A    between atoms: C22_29  and  C23_30 
REMARK   11  A    between atoms: C23_30  and  N7_31 
ROOT
HETATM    1  N1  UNL     1      24.078   4.636  49.392  1.00  0.00    -0.337 N 
HETATM    2  C3  UNL     1      23.163   4.363  48.345  1.00  0.00     0.477 C 
HETATM    3  O1  UNL     1      22.280   4.041  47.514  1.00  0.00    -0.392 OA
ENDROOT
BRANCH   1   4
HETATM    4  C2  UNL     1      25.186   5.492  49.023  1.00  0.00     0.126 C 
HETATM    5  C1  UNL     1      26.515   4.751  49.124  1.00  0.00     0.027 C 
ENDBRANCH   1   4
BRANCH   1   6
HETATM    6  C4  UNL     1      23.708   4.011  50.614  1.00  0.00     0.034 C 
BRANCH   6   7
HETATM    7  C5  UNL     1      23.859   2.594  50.879  1.00  0.00     0.047 C 
BRANCH   7   8
HETATM    8  C6  UNL     1      23.093   1.546  51.016  1.00  0.00     0.101 C 
BRANCH   8   9
HETATM    9  N2  UNL     1      21.864   0.991  51.366  1.00  0.00    -0.303 N 
HETATM   10  C7  UNL     1      21.669   0.162  52.433  1.00  0.00     0.162 A 
HETATM   11  N6  UNL     1      20.388  -0.125  52.401  1.00  0.00    -0.226 NA
HETATM   12  C16 UNL     1      19.747   0.462  51.387  1.00  0.00     0.086 A 
HETATM   13  C17 UNL     1      18.424   0.392  51.043  1.00  0.00     0.034 A 
HETATM   14  C21 UNL     1      20.707   1.184  50.719  1.00  0.00     0.069 A 
HETATM   15  C18 UNL     1      17.994   1.101  49.931  1.00  0.00     0.002 A 
HETATM   16  C19 UNL     1      18.905   1.841  49.224  1.00  0.00     0.002 A 
HETATM   17  C20 UNL     1      20.213   1.862  49.630  1.00  0.00     0.032 A 
BRANCH  10  18
HETATM   18  C8  UNL     1      22.600  -0.345  53.430  1.00  0.00     0.114 A 
HETATM   19  N3  UNL     1      23.834  -0.110  53.044  1.00  0.00    -0.249 NA
HETATM   20  C9  UNL     1      24.898  -0.550  53.922  1.00  0.00     0.074 A 
HETATM   21  C13 UNL     1      24.363  -1.120  54.977  1.00  0.00     0.006 A 
HETATM   22  C14 UNL     1      23.043  -1.452  55.540  1.00  0.00     0.071 A 
HETATM   23  C15 UNL     1      21.963  -0.983  54.603  1.00  0.00     0.276 A 
BRANCH  20  24
HETATM   24  C10 UNL     1      26.365  -0.428  53.765  1.00  0.00     0.271 A 
HETATM   25  C11 UNL     1      26.967  -1.255  52.661  1.00  0.00     0.062 C 
HETATM   26  C12 UNL     1      27.137   0.147  54.803  1.00  0.00     0.349 A 
HETATM   27  N4  UNL     1      26.818   0.952  53.714  1.00  0.00     0.334 N 
ENDBRANCH  20  24
BRANCH  23  28
HETATM   28  N5  UNL     1      21.063  -0.036  55.241  1.00  0.00     0.089 N 
HETATM   29  H17 UNL     1      20.090  -0.388  55.114  1.00  0.00     0.313 HD
HETATM   30  H18 UNL     1      21.223   0.943  54.966  1.00  0.00     0.313 HD
ENDBRANCH  23  28
ENDBRANCH  10  18
ENDBRANCH   8   9
ENDBRANCH   7   8
ENDBRANCH   6   7
BRANCH   6  31
HETATM   31  C22 UNL     1      23.189   4.724  51.596  1.00  0.00     0.032 C 
BRANCH  31  32
HETATM   32  C23 UNL     1      21.906   5.412  51.852  1.00  0.00     0.296 C 
BRANCH  32  33
HETATM   33  N7  UNL     1      21.901   6.784  51.370  1.00  0.00     0.081 N 
HETATM   34  H26 UNL     1      22.484   6.916  50.530  1.00  0.00     0.313 HD
HETATM   35  H27 UNL     1      20.930   7.085  51.150  1.00  0.00     0.313 HD
ENDBRANCH  32  33
ENDBRANCH  31  32
ENDBRANCH   6  31
ENDBRANCH   1   6
TORSDOF 11
ENDMDL
