MODEL 1
REMARK VINA RESULT:      -7.2      0.000      0.000
REMARK  4 active torsions:
REMARK  status: ('A' for Active; 'I' for Inactive)
REMARK    1  A    between atoms: O1_2  and  C2_3 
REMARK    2  A    between atoms: C6_9  and  O2_10 
REMARK    3  A    between atoms: O2_10  and  C7_11 
REMARK    4  A    between atoms: C14_20  and  O3_21 
ROOT
HETATM    1  C2  UNL     1      20.370   1.316  51.322  1.00  0.00     0.081 A 
HETATM    2  C3  UNL     1      19.763   0.343  51.982  1.00  0.00     0.067 A 
HETATM    3  C4  UNL     1      20.763  -0.162  52.915  1.00  0.00     0.074 A 
HETATM    4  N1  UNL     1      20.615  -1.157  53.801  1.00  0.00    -0.241 NA
HETATM    5  C5  UNL     1      21.633  -1.514  54.602  1.00  0.00     0.236 A 
HETATM    6  N2  UNL     1      22.804  -0.863  54.506  1.00  0.00    -0.217 NA
HETATM    7  C6  UNL     1      23.020   0.143  53.640  1.00  0.00     0.182 A 
HETATM    8  C13 UNL     1      21.965   0.512  52.811  1.00  0.00     0.059 A 
HETATM    9  C14 UNL     1      21.769   1.522  51.756  1.00  0.00     0.217 A 
ENDROOT
BRANCH   7  10
HETATM   10  O2  UNL     1      24.164   0.874  53.455  1.00  0.00    -0.291 OA
BRANCH  10  11
HETATM   11  C7  UNL     1      25.462   0.463  53.589  1.00  0.00     0.081 A 
HETATM   12  C8  UNL     1      25.777  -0.492  52.613  1.00  0.00     0.039 A 
HETATM   13  C9  UNL     1      27.051  -1.066  52.542  1.00  0.00     0.025 A 
HETATM   14  C10 UNL     1      28.033  -0.684  53.462  1.00  0.00     0.049 A 
HETATM   15 BR1  UNL     1      29.794  -1.412  53.441  1.00  0.00    -0.048 Br
HETATM   16  C11 UNL     1      27.700   0.257  54.413  1.00  0.00     0.136 A 
HETATM   17  F1  UNL     1      28.618   0.670  55.338  1.00  0.00    -0.205 F 
HETATM   18  C12 UNL     1      26.448   0.828  54.490  1.00  0.00     0.081 A 
ENDBRANCH  10  11
ENDBRANCH   7  10
BRANCH   9  19
HETATM   19  O3  UNL     1      22.613   1.322  50.678  1.00  0.00    -0.379 OA
HETATM   20  C15 UNL     1      23.419   2.461  50.448  1.00  0.00     0.202 C 
ENDBRANCH   9  19
BRANCH   1  21
HETATM   21  O1  UNL     1      19.849   2.122  50.316  1.00  0.00    -0.357 OA
HETATM   22  C1  UNL     1      19.783   3.534  50.446  1.00  0.00     0.209 C 
ENDBRANCH   1  21
TORSDOF 4
ENDMDL
MODEL 2
REMARK VINA RESULT:      -7.2      1.972      2.872
REMARK  4 active torsions:
REMARK  status: ('A' for Active; 'I' for Inactive)
REMARK    1  A    between atoms: O1_2  and  C2_3 
REMARK    2  A    between atoms: C6_9  and  O2_10 
REMARK    3  A    between atoms: O2_10  and  C7_11 
REMARK    4  A    between atoms: C14_20  and  O3_21 
ROOT
HETATM    1  C2  UNL     1      20.021   1.091  52.334  1.00  0.00     0.081 A 
HETATM    2  C3  UNL     1      20.193   2.343  51.945  1.00  0.00     0.067 A 
HETATM    3  C4  UNL     1      21.597   2.632  52.210  1.00  0.00     0.074 A 
HETATM    4  N1  UNL     1      22.245   3.784  51.980  1.00  0.00    -0.241 NA
HETATM    5  C5  UNL     1      23.549   3.903  52.277  1.00  0.00     0.236 A 
HETATM    6  N2  UNL     1      24.201   2.855  52.810  1.00  0.00    -0.217 NA
HETATM    7  C6  UNL     1      23.612   1.673  53.065  1.00  0.00     0.182 A 
HETATM    8  C13 UNL     1      22.262   1.551  52.757  1.00  0.00     0.059 A 
HETATM    9  C14 UNL     1      21.258   0.477  52.868  1.00  0.00     0.217 A 
ENDROOT
BRANCH   7  10
HETATM   10  O2  UNL     1      24.173   0.544  53.602  1.00  0.00    -0.291 OA
BRANCH  10  11
HETATM   11  C7  UNL     1      25.499   0.229  53.716  1.00  0.00     0.081 A 
HETATM   12  C8  UNL     1      25.867  -0.704  52.738  1.00  0.00     0.039 A 
HETATM   13  C9  UNL     1      27.177  -1.185  52.648  1.00  0.00     0.025 A 
HETATM   14  C10 UNL     1      28.144  -0.728  53.549  1.00  0.00     0.049 A 
HETATM   15 BR1  UNL     1      29.953  -1.326  53.501  1.00  0.00    -0.048 Br
HETATM   16  C11 UNL     1      27.760   0.191  54.502  1.00  0.00     0.136 A 
HETATM   17  F1  UNL     1      28.661   0.675  55.410  1.00  0.00    -0.205 F 
HETATM   18  C12 UNL     1      26.471   0.670  54.598  1.00  0.00     0.081 A 
ENDBRANCH  10  11
ENDBRANCH   7  10
BRANCH   9  19
HETATM   19  O3  UNL     1      21.045   0.094  54.179  1.00  0.00    -0.379 OA
HETATM   20  C15 UNL     1      21.437  -1.250  54.384  1.00  0.00     0.202 C 
ENDBRANCH   9  19
BRANCH   1  21
HETATM   21  O1  UNL     1      18.856   0.333  52.293  1.00  0.00    -0.357 OA
HETATM   22  C1  UNL     1      18.162   0.091  51.078  1.00  0.00     0.209 C 
ENDBRANCH   1  21
TORSDOF 4
ENDMDL
MODEL 3
REMARK VINA RESULT:      -7.0      3.882      5.650
REMARK  4 active torsions:
REMARK  status: ('A' for Active; 'I' for Inactive)
REMARK    1  A    between atoms: O1_2  and  C2_3 
REMARK    2  A    between atoms: C6_9  and  O2_10 
REMARK    3  A    between atoms: O2_10  and  C7_11 
REMARK    4  A    between atoms: C14_20  and  O3_21 
ROOT
HETATM    1  C2  UNL     1      22.894  -0.123  53.897  1.00  0.00     0.081 A 
HETATM    2  C3  UNL     1      23.998  -0.787  54.200  1.00  0.00     0.067 A 
HETATM    3  C4  UNL     1      25.036  -0.196  53.363  1.00  0.00     0.074 A 
HETATM    4  N1  UNL     1      26.331  -0.539  53.316  1.00  0.00    -0.241 NA
HETATM    5  C5  UNL     1      27.176   0.099  52.490  1.00  0.00     0.236 A 
HETATM    6  N2  UNL     1      26.709   1.088  51.708  1.00  0.00    -0.217 NA
HETATM    7  C6  UNL     1      25.423   1.481  51.705  1.00  0.00     0.182 A 
HETATM    8  C13 UNL     1      24.549   0.819  52.561  1.00  0.00     0.059 A 
HETATM    9  C14 UNL     1      23.112   0.921  52.871  1.00  0.00     0.217 A 
ENDROOT
BRANCH   7  10
HETATM   10  O2  UNL     1      24.839   2.469  50.957  1.00  0.00    -0.291 OA
BRANCH  10  11
HETATM   11  C7  UNL     1      25.449   3.469  50.251  1.00  0.00     0.081 A 
HETATM   12  C8  UNL     1      24.680   4.639  50.294  1.00  0.00     0.039 A 
HETATM   13  C9  UNL     1      25.095   5.807  49.645  1.00  0.00     0.025 A 
HETATM   14  C10 UNL     1      26.301   5.812  48.936  1.00  0.00     0.049 A 
HETATM   15 BR1  UNL     1      26.946   7.355  48.022  1.00  0.00    -0.048 Br
HETATM   16  C11 UNL     1      27.042   4.650  48.908  1.00  0.00     0.136 A 
HETATM   17  F1  UNL     1      28.229   4.594  48.233  1.00  0.00    -0.205 F 
HETATM   18  C12 UNL     1      26.641   3.495  49.546  1.00  0.00     0.081 A 
ENDBRANCH  10  11
ENDBRANCH   7  10
BRANCH   9  19
HETATM   19  O3  UNL     1      22.320   0.649  51.770  1.00  0.00    -0.379 OA
HETATM   20  C15 UNL     1      21.428   1.716  51.512  1.00  0.00     0.202 C 
ENDBRANCH   9  19
BRANCH   1  21
HETATM   21  O1  UNL     1      21.618  -0.301  54.419  1.00  0.00    -0.357 OA
HETATM   22  C1  UNL     1      20.942  -1.546  54.337  1.00  0.00     0.209 C 
ENDBRANCH   1  21
TORSDOF 4
ENDMDL
MODEL 4
REMARK VINA RESULT:      -6.9      4.007      6.675
REMARK  4 active torsions:
REMARK  status: ('A' for Active; 'I' for Inactive)
REMARK    1  A    between atoms: O1_2  and  C2_3 
REMARK    2  A    between atoms: C6_9  and  O2_10 
REMARK    3  A    between atoms: O2_10  and  C7_11 
REMARK    4  A    between atoms: C14_20  and  O3_21 
ROOT
HETATM    1  C2  UNL     1      27.040   0.715  53.561  1.00  0.00     0.081 A 
HETATM    2  C3  UNL     1      26.916  -0.031  54.647  1.00  0.00     0.067 A 
HETATM    3  C4  UNL     1      25.509  -0.411  54.687  1.00  0.00     0.074 A 
HETATM    4  N1  UNL     1      24.901  -1.170  55.610  1.00  0.00    -0.241 NA
HETATM    5  C5  UNL     1      23.588  -1.438  55.514  1.00  0.00     0.236 A 
HETATM    6  N2  UNL     1      22.888  -0.936  54.482  1.00  0.00    -0.217 NA
HETATM    7  C6  UNL     1      23.436  -0.169  53.523  1.00  0.00     0.182 A 
HETATM    8  C13 UNL     1      24.795   0.108  53.624  1.00  0.00     0.059 A 
HETATM    9  C14 UNL     1      25.767   0.878  52.826  1.00  0.00     0.217 A 
ENDROOT
BRANCH   7  10
HETATM   10  O2  UNL     1      22.825   0.394  52.434  1.00  0.00    -0.291 OA
BRANCH  10  11
HETATM   11  C7  UNL     1      21.507   0.327  52.074  1.00  0.00     0.081 A 
HETATM   12  C8  UNL     1      21.336   0.765  50.754  1.00  0.00     0.039 A 
HETATM   13  C9  UNL     1      20.072   0.790  50.154  1.00  0.00     0.025 A 
HETATM   14  C10 UNL     1      18.953   0.372  50.882  1.00  0.00     0.049 A 
HETATM   15 BR1  UNL     1      17.195   0.371  50.147  1.00  0.00    -0.048 Br
HETATM   16  C11 UNL     1      19.145  -0.055  52.179  1.00  0.00     0.136 A 
HETATM   17  F1  UNL     1      18.090  -0.477  52.939  1.00  0.00    -0.205 F 
HETATM   18  C12 UNL     1      20.387  -0.084  52.778  1.00  0.00     0.081 A 
ENDBRANCH  10  11
ENDBRANCH   7  10
BRANCH   9  19
HETATM   19  O3  UNL     1      25.446   2.222  52.765  1.00  0.00    -0.379 OA
HETATM   20  C15 UNL     1      25.370   2.664  51.423  1.00  0.00     0.202 C 
ENDBRANCH   9  19
BRANCH   1  21
HETATM   21  O1  UNL     1      28.187   1.327  53.069  1.00  0.00    -0.357 OA
HETATM   22  C1  UNL     1      28.836   2.377  53.771  1.00  0.00     0.209 C 
ENDBRANCH   1  21
TORSDOF 4
ENDMDL
MODEL 5
REMARK VINA RESULT:      -6.9      3.810      6.311
REMARK  4 active torsions:
REMARK  status: ('A' for Active; 'I' for Inactive)
REMARK    1  A    between atoms: O1_2  and  C2_3 
REMARK    2  A    between atoms: C6_9  and  O2_10 
REMARK    3  A    between atoms: O2_10  and  C7_11 
REMARK    4  A    between atoms: C14_20  and  O3_21 
ROOT
HETATM    1  C2  UNL     1      26.425  -0.184  54.350  1.00  0.00     0.081 A 
HETATM    2  C3  UNL     1      25.334  -0.811  54.757  1.00  0.00     0.067 A 
HETATM    3  C4  UNL     1      24.277  -0.349  53.864  1.00  0.00     0.074 A 
HETATM    4  N1  UNL     1      22.985  -0.707  53.885  1.00  0.00    -0.241 NA
HETATM    5  C5  UNL     1      22.122  -0.196  52.992  1.00  0.00     0.236 A 
HETATM    6  N2  UNL     1      22.566   0.682  52.076  1.00  0.00    -0.217 NA
HETATM    7  C6  UNL     1      23.847   1.083  52.000  1.00  0.00     0.182 A 
HETATM    8  C13 UNL     1      24.741   0.552  52.925  1.00  0.00     0.059 A 
HETATM    9  C14 UNL     1      26.181   0.709  53.195  1.00  0.00     0.217 A 
ENDROOT
BRANCH   7  10
HETATM   10  O2  UNL     1      24.409   1.966  51.116  1.00  0.00    -0.291 OA
BRANCH  10  11
HETATM   11  C7  UNL     1      24.187   3.310  51.005  1.00  0.00     0.081 A 
HETATM   12  C8  UNL     1      25.265   3.935  50.364  1.00  0.00     0.039 A 
HETATM   13  C9  UNL     1      25.273   5.314  50.132  1.00  0.00     0.025 A 
HETATM   14  C10 UNL     1      24.187   6.091  50.547  1.00  0.00     0.049 A 
HETATM   15 BR1  UNL     1      24.111   7.976  50.273  1.00  0.00    -0.048 Br
HETATM   16  C11 UNL     1      23.137   5.456  51.175  1.00  0.00     0.136 A 
HETATM   17  F1  UNL     1      22.048   6.162  51.602  1.00  0.00    -0.205 F 
HETATM   18  C12 UNL     1      23.120   4.097  51.407  1.00  0.00     0.081 A 
ENDBRANCH  10  11
ENDBRANCH   7  10
BRANCH   9  19
HETATM   19  O3  UNL     1      26.509   2.005  53.547  1.00  0.00    -0.379 OA
HETATM   20  C15 UNL     1      27.634   2.458  52.819  1.00  0.00     0.202 C 
ENDBRANCH   9  19
BRANCH   1  21
HETATM   21  O1  UNL     1      27.711  -0.277  54.871  1.00  0.00    -0.357 OA
HETATM   22  C1  UNL     1      28.829  -0.593  54.056  1.00  0.00     0.209 C 
ENDBRANCH   1  21
TORSDOF 4
ENDMDL
MODEL 6
REMARK VINA RESULT:      -6.8      4.030      6.045
REMARK  4 active torsions:
REMARK  status: ('A' for Active; 'I' for Inactive)
REMARK    1  A    between atoms: O1_2  and  C2_3 
REMARK    2  A    between atoms: C6_9  and  O2_10 
REMARK    3  A    between atoms: O2_10  and  C7_11 
REMARK    4  A    between atoms: C14_20  and  O3_21 
ROOT
HETATM    1  C2  UNL     1      25.411   3.823  49.977  1.00  0.00     0.081 A 
HETATM    2  C3  UNL     1      26.479   3.054  50.109  1.00  0.00     0.067 A 
HETATM    3  C4  UNL     1      26.147   2.126  51.183  1.00  0.00     0.074 A 
HETATM    4  N1  UNL     1      26.921   1.150  51.679  1.00  0.00    -0.241 NA
HETATM    5  C5  UNL     1      26.475   0.368  52.676  1.00  0.00     0.236 A 
HETATM    6  N2  UNL     1      25.244   0.572  53.173  1.00  0.00    -0.217 NA
HETATM    7  C6  UNL     1      24.417   1.532  52.721  1.00  0.00     0.182 A 
HETATM    8  C13 UNL     1      24.879   2.342  51.689  1.00  0.00     0.059 A 
HETATM    9  C14 UNL     1      24.327   3.472  50.921  1.00  0.00     0.217 A 
ENDROOT
BRANCH   7  10
HETATM   10  O2  UNL     1      23.150   1.831  53.149  1.00  0.00    -0.291 OA
BRANCH  10  11
HETATM   11  C7  UNL     1      22.074   0.994  53.258  1.00  0.00     0.081 A 
HETATM   12  C8  UNL     1      20.999   1.476  52.500  1.00  0.00     0.039 A 
HETATM   13  C9  UNL     1      19.780   0.791  52.449  1.00  0.00     0.025 A 
HETATM   14  C10 UNL     1      19.625  -0.398  53.169  1.00  0.00     0.049 A 
HETATM   15 BR1  UNL     1      18.002  -1.398  53.159  1.00  0.00    -0.048 Br
HETATM   16  C11 UNL     1      20.696  -0.854  53.907  1.00  0.00     0.136 A 
HETATM   17  F1  UNL     1      20.605  -2.010  54.630  1.00  0.00    -0.205 F 
HETATM   18  C12 UNL     1      21.901  -0.186  53.962  1.00  0.00     0.081 A 
ENDBRANCH  10  11
ENDBRANCH   7  10
BRANCH   9  19
HETATM   19  O3  UNL     1      24.052   4.565  51.723  1.00  0.00    -0.379 OA
HETATM   20  C15 UNL     1      22.704   4.971  51.580  1.00  0.00     0.202 C 
ENDBRANCH   9  19
BRANCH   1  21
HETATM   21  O1  UNL     1      25.216   4.872  49.085  1.00  0.00    -0.357 OA
HETATM   22  C1  UNL     1      26.037   6.030  49.099  1.00  0.00     0.209 C 
ENDBRANCH   1  21
TORSDOF 4
ENDMDL
MODEL 7
REMARK VINA RESULT:      -6.7      2.709      3.506
REMARK  4 active torsions:
REMARK  status: ('A' for Active; 'I' for Inactive)
REMARK    1  A    between atoms: O1_2  and  C2_3 
REMARK    2  A    between atoms: C6_9  and  O2_10 
REMARK    3  A    between atoms: O2_10  and  C7_11 
REMARK    4  A    between atoms: C14_20  and  O3_21 
ROOT
HETATM    1  C2  UNL     1      22.693   5.473  50.760  1.00  0.00     0.081 A 
HETATM    2  C3  UNL     1      21.490   5.411  51.306  1.00  0.00     0.067 A 
HETATM    3  C4  UNL     1      21.349   4.032  51.756  1.00  0.00     0.074 A 
HETATM    4  N1  UNL     1      20.292   3.485  52.374  1.00  0.00    -0.241 NA
HETATM    5  C5  UNL     1      20.307   2.192  52.734  1.00  0.00     0.236 A 
HETATM    6  N2  UNL     1      21.393   1.447  52.467  1.00  0.00    -0.217 NA
HETATM    7  C6  UNL     1      22.486   1.932  51.851  1.00  0.00     0.182 A 
HETATM    8  C13 UNL     1      22.470   3.272  51.479  1.00  0.00     0.059 A 
HETATM    9  C14 UNL     1      23.415   4.182  50.808  1.00  0.00     0.217 A 
ENDROOT
BRANCH   7  10
HETATM   10  O2  UNL     1      23.643   1.272  51.530  1.00  0.00    -0.291 OA
BRANCH  10  11
HETATM   11  C7  UNL     1      24.685   0.942  52.351  1.00  0.00     0.081 A 
HETATM   12  C8  UNL     1      25.907   1.275  51.752  1.00  0.00     0.039 A 
HETATM   13  C9  UNL     1      27.124   1.034  52.398  1.00  0.00     0.025 A 
HETATM   14  C10 UNL     1      27.128   0.448  53.668  1.00  0.00     0.049 A 
HETATM   15 BR1  UNL     1      28.736   0.084  54.623  1.00  0.00    -0.048 Br
HETATM   16  C11 UNL     1      25.914   0.130  54.239  1.00  0.00     0.136 A 
HETATM   17  F1  UNL     1      25.854  -0.444  55.479  1.00  0.00    -0.205 F 
HETATM   18  C12 UNL     1      24.710   0.364  53.610  1.00  0.00     0.081 A 
ENDBRANCH  10  11
ENDBRANCH   7  10
BRANCH   9  19
HETATM   19  O3  UNL     1      23.705   3.776  49.518  1.00  0.00    -0.379 OA
HETATM   20  C15 UNL     1      25.099   3.809  49.278  1.00  0.00     0.202 C 
ENDBRANCH   9  19
BRANCH   1  21
HETATM   21  O1  UNL     1      23.314   6.572  50.177  1.00  0.00    -0.357 OA
HETATM   22  C1  UNL     1      23.860   7.625  50.957  1.00  0.00     0.209 C 
ENDBRANCH   1  21
TORSDOF 4
ENDMDL
MODEL 8
REMARK VINA RESULT:      -6.6      4.848      6.242
REMARK  4 active torsions:
REMARK  status: ('A' for Active; 'I' for Inactive)
REMARK    1  A    between atoms: O1_2  and  C2_3 
REMARK    2  A    between atoms: C6_9  and  O2_10 
REMARK    3  A    between atoms: O2_10  and  C7_11 
REMARK    4  A    between atoms: C14_20  and  O3_21 
ROOT
HETATM    1  C2  UNL     1      22.717   1.982  52.218  1.00  0.00     0.081 A 
HETATM    2  C3  UNL     1      23.550   1.485  53.118  1.00  0.00     0.067 A 
HETATM    3  C4  UNL     1      24.882   1.810  52.622  1.00  0.00     0.074 A 
HETATM    4  N1  UNL     1      26.056   1.511  53.196  1.00  0.00    -0.241 NA
HETATM    5  C5  UNL     1      27.210   1.879  52.618  1.00  0.00     0.236 A 
HETATM    6  N2  UNL     1      27.179   2.551  51.455  1.00  0.00    -0.217 NA
HETATM    7  C6  UNL     1      26.037   2.883  50.826  1.00  0.00     0.182 A 
HETATM    8  C13 UNL     1      24.842   2.501  51.425  1.00  0.00     0.059 A 
HETATM    9  C14 UNL     1      23.413   2.651  51.096  1.00  0.00     0.217 A 
ENDROOT
BRANCH   7  10
HETATM   10  O2  UNL     1      25.885   3.562  49.645  1.00  0.00    -0.291 OA
BRANCH  10  11
HETATM   11  C7  UNL     1      26.558   4.671  49.213  1.00  0.00     0.081 A 
HETATM   12  C8  UNL     1      25.823   5.830  49.491  1.00  0.00     0.039 A 
HETATM   13  C9  UNL     1      26.304   7.097  49.144  1.00  0.00     0.025 A 
HETATM   14  C10 UNL     1      27.543   7.215  48.507  1.00  0.00     0.049 A 
HETATM   15 BR1  UNL     1      28.278   8.898  47.998  1.00  0.00    -0.048 Br
HETATM   16  C11 UNL     1      28.249   6.061  48.244  1.00  0.00     0.136 A 
HETATM   17  F1  UNL     1      29.467   6.112  47.623  1.00  0.00    -0.205 F 
HETATM   18  C12 UNL     1      27.783   4.808  48.582  1.00  0.00     0.081 A 
ENDBRANCH  10  11
ENDBRANCH   7  10
BRANCH   9  19
HETATM   19  O3  UNL     1      23.080   2.017  49.913  1.00  0.00    -0.379 OA
HETATM   20  C15 UNL     1      22.495   2.926  49.000  1.00  0.00     0.202 C 
ENDBRANCH   9  19
BRANCH   1  21
HETATM   21  O1  UNL     1      21.328   1.940  52.221  1.00  0.00    -0.357 OA
HETATM   22  C1  UNL     1      20.543   3.120  52.308  1.00  0.00     0.209 C 
ENDBRANCH   1  21
TORSDOF 4
ENDMDL
MODEL 9
REMARK VINA RESULT:      -6.3      4.164      5.984
REMARK  4 active torsions:
REMARK  status: ('A' for Active; 'I' for Inactive)
REMARK    1  A    between atoms: O1_2  and  C2_3 
REMARK    2  A    between atoms: C6_9  and  O2_10 
REMARK    3  A    between atoms: O2_10  and  C7_11 
REMARK    4  A    between atoms: C14_20  and  O3_21 
ROOT
HETATM    1  C2  UNL     1      22.841   6.829  50.209  1.00  0.00     0.081 A 
HETATM    2  C3  UNL     1      24.119   7.094  49.992  1.00  0.00     0.067 A 
HETATM    3  C4  UNL     1      24.750   5.791  49.815  1.00  0.00     0.074 A 
HETATM    4  N1  UNL     1      26.046   5.545  49.570  1.00  0.00    -0.241 NA
HETATM    5  C5  UNL     1      26.484   4.284  49.428  1.00  0.00     0.236 A 
HETATM    6  N2  UNL     1      25.612   3.268  49.534  1.00  0.00    -0.217 NA
HETATM    7  C6  UNL     1      24.301   3.444  49.778  1.00  0.00     0.182 A 
HETATM    8  C13 UNL     1      23.847   4.751  49.925  1.00  0.00     0.059 A 
HETATM    9  C14 UNL     1      22.541   5.380  50.192  1.00  0.00     0.217 A 
ENDROOT
BRANCH   7  10
HETATM   10  O2  UNL     1      23.326   2.491  49.907  1.00  0.00    -0.291 OA
BRANCH  10  11
HETATM   11  C7  UNL     1      23.116   1.629  50.948  1.00  0.00     0.081 A 
HETATM   12  C8  UNL     1      21.858   1.022  50.837  1.00  0.00     0.039 A 
HETATM   13  C9  UNL     1      21.411   0.097  51.785  1.00  0.00     0.025 A 
HETATM   14  C10 UNL     1      22.231  -0.234  52.869  1.00  0.00     0.049 A 
HETATM   15 BR1  UNL     1      21.706  -1.484  54.208  1.00  0.00    -0.048 Br
HETATM   16  C11 UNL     1      23.465   0.375  52.957  1.00  0.00     0.136 A 
HETATM   17  F1  UNL     1      24.311   0.092  53.993  1.00  0.00    -0.205 F 
HETATM   18  C12 UNL     1      23.914   1.288  52.027  1.00  0.00     0.081 A 
ENDBRANCH  10  11
ENDBRANCH   7  10
BRANCH   9  19
HETATM   19  O3  UNL     1      22.023   5.009  51.419  1.00  0.00    -0.379 OA
HETATM   20  C15 UNL     1      20.710   4.500  51.280  1.00  0.00     0.202 C 
ENDBRANCH   9  19
BRANCH   1  21
HETATM   21  O1  UNL     1      21.807   7.729  50.440  1.00  0.00    -0.357 OA
HETATM   22  C1  UNL     1      20.660   7.782  49.606  1.00  0.00     0.209 C 
ENDBRANCH   1  21
TORSDOF 4
ENDMDL
