MODEL 1
REMARK VINA RESULT:      -8.6      0.000      0.000
REMARK  5 active torsions:
REMARK  status: ('A' for Active; 'I' for Inactive)
REMARK    1  A    between atoms: O1_2  and  C2_3 
REMARK    2  A    between atoms: C6_7  and  N1_8 
REMARK    3  A    between atoms: C8_10  and  C9_11 
REMARK    4  A    between atoms: C9_11  and  C10_13 
REMARK    5  A    between atoms: C13_16  and  N2_17 
ROOT
HETATM    1  C9  UNL     1      25.134  -0.526  53.492  1.00  0.00     0.170 C 
HETATM    2  O2  UNL     1      25.393  -0.777  54.697  1.00  0.00    -0.291 OA
ENDROOT
BRANCH   1   3
HETATM    3  C8  UNL     1      26.297  -0.512  52.609  1.00  0.00     0.119 C 
HETATM    4  C2  UNL     1      27.593  -0.792  53.326  1.00  0.00     0.057 C 
HETATM    5  C3  UNL     1      28.177   0.101  54.150  1.00  0.00     0.033 C 
HETATM    6  C4  UNL     1      27.710   1.460  54.511  1.00  0.00     0.001 C 
HETATM    7  C5  UNL     1      26.936   2.174  53.694  1.00  0.00     0.008 C 
HETATM    8  C6  UNL     1      26.321   2.018  52.381  1.00  0.00     0.241 C 
HETATM    9  C7  UNL     1      26.412   0.685  51.743  1.00  0.00     0.058 C 
BRANCH   4  10
HETATM   10  O1  UNL     1      28.426  -1.930  53.315  1.00  0.00    -0.359 OA
HETATM   11  C1  UNL     1      29.824  -1.652  53.433  1.00  0.00     0.209 C 
ENDBRANCH   4  10
BRANCH   8  12
HETATM   12  N1  UNL     1      27.049   2.942  51.490  1.00  0.00     0.086 N 
HETATM   13  H8  UNL     1      27.093   2.515  50.529  1.00  0.00     0.313 HD
HETATM   14  H9  UNL     1      26.482   3.828  51.355  1.00  0.00     0.313 HD
ENDBRANCH   8  12
ENDBRANCH   1   3
BRANCH   1  15
HETATM   15  C10 UNL     1      23.739  -0.290  53.155  1.00  0.00     0.011 A 
HETATM   16  C11 UNL     1      22.789  -1.032  53.836  1.00  0.00     0.017 A 
HETATM   17  C12 UNL     1      21.432  -0.839  53.550  1.00  0.00     0.030 A 
HETATM   18  C13 UNL     1      21.009   0.070  52.608  1.00  0.00     0.032 A 
HETATM   19  C19 UNL     1      21.944   0.804  51.931  1.00  0.00     0.030 A 
HETATM   20  C20 UNL     1      23.281   0.610  52.218  1.00  0.00     0.017 A 
BRANCH  18  21
HETATM   21  N2  UNL     1      19.628   0.280  52.296  1.00  0.00    -0.347 N 
HETATM   22  C14 UNL     1      18.571  -0.577  52.836  1.00  0.00     0.153 C 
HETATM   23  C15 UNL     1      17.388  -0.613  51.917  1.00  0.00    -0.011 C 
HETATM   24  C16 UNL     1      17.325  -0.071  50.687  1.00  0.00    -0.025 C 
HETATM   25  C17 UNL     1      18.565   0.635  50.199  1.00  0.00     0.086 C 
HETATM   26  C18 UNL     1      19.123   1.333  51.441  1.00  0.00     0.275 C 
HETATM   27  F1  UNL     1      17.987   1.872  52.063  1.00  0.00    -0.227 F 
ENDBRANCH  18  21
ENDBRANCH   1  15
TORSDOF 5
ENDMDL
MODEL 2
REMARK VINA RESULT:      -8.6      3.720      7.882
REMARK  5 active torsions:
REMARK  status: ('A' for Active; 'I' for Inactive)
REMARK    1  A    between atoms: O1_2  and  C2_3 
REMARK    2  A    between atoms: C6_7  and  N1_8 
REMARK    3  A    between atoms: C8_10  and  C9_11 
REMARK    4  A    between atoms: C9_11  and  C10_13 
REMARK    5  A    between atoms: C13_16  and  N2_17 
ROOT
HETATM    1  C9  UNL     1      22.601   3.667  50.887  1.00  0.00     0.170 C 
HETATM    2  O2  UNL     1      22.876   4.520  50.004  1.00  0.00    -0.291 OA
ENDROOT
BRANCH   1   3
HETATM    3  C8  UNL     1      21.173   3.420  51.071  1.00  0.00     0.119 C 
HETATM    4  C2  UNL     1      20.880   2.150  51.827  1.00  0.00     0.057 C 
HETATM    5  C3  UNL     1      21.047   0.926  51.287  1.00  0.00     0.033 C 
HETATM    6  C4  UNL     1      21.521   0.579  49.927  1.00  0.00     0.001 C 
HETATM    7  C5  UNL     1      21.363   1.411  48.898  1.00  0.00     0.008 C 
HETATM    8  C6  UNL     1      20.794   2.731  48.656  1.00  0.00     0.241 C 
HETATM    9  C7  UNL     1      20.358   3.509  49.837  1.00  0.00     0.058 C 
BRANCH   4  10
HETATM   10  O1  UNL     1      20.411   1.946  53.142  1.00  0.00    -0.359 OA
HETATM   11  C1  UNL     1      20.666   0.643  53.675  1.00  0.00     0.209 C 
ENDBRANCH   4  10
BRANCH   8  12
HETATM   12  N1  UNL     1      19.577   2.499  47.854  1.00  0.00     0.086 N 
HETATM   13  H8  UNL     1      19.864   2.287  46.864  1.00  0.00     0.313 HD
HETATM   14  H9  UNL     1      19.099   1.611  48.183  1.00  0.00     0.313 HD
ENDBRANCH   8  12
ENDBRANCH   1   3
BRANCH   1  15
HETATM   15  C10 UNL     1      23.722   3.060  51.587  1.00  0.00     0.011 A 
HETATM   16  C11 UNL     1      24.610   2.313  50.832  1.00  0.00     0.017 A 
HETATM   17  C12 UNL     1      25.707   1.711  51.459  1.00  0.00     0.030 A 
HETATM   18  C13 UNL     1      25.934   1.839  52.810  1.00  0.00     0.032 A 
HETATM   19  C19 UNL     1      25.059   2.575  53.560  1.00  0.00     0.030 A 
HETATM   20  C20 UNL     1      23.978   3.167  52.936  1.00  0.00     0.017 A 
BRANCH  18  21
HETATM   21  N2  UNL     1      27.047   1.229  53.472  1.00  0.00    -0.347 N 
HETATM   22  C14 UNL     1      28.331   1.913  53.623  1.00  0.00     0.153 C 
HETATM   23  C15 UNL     1      29.458   0.928  53.712  1.00  0.00    -0.011 C 
HETATM   24  C16 UNL     1      29.361  -0.402  53.530  1.00  0.00    -0.025 C 
HETATM   25  C17 UNL     1      27.989  -0.939  53.207  1.00  0.00     0.086 C 
HETATM   26  C18 UNL     1      27.037  -0.095  54.058  1.00  0.00     0.275 C 
HETATM   27  F1  UNL     1      27.682  -0.010  55.301  1.00  0.00    -0.227 F 
ENDBRANCH  18  21
ENDBRANCH   1  15
TORSDOF 5
ENDMDL
MODEL 3
REMARK VINA RESULT:      -8.6      5.054      8.374
REMARK  5 active torsions:
REMARK  status: ('A' for Active; 'I' for Inactive)
REMARK    1  A    between atoms: O1_2  and  C2_3 
REMARK    2  A    between atoms: C6_7  and  N1_8 
REMARK    3  A    between atoms: C8_10  and  C9_11 
REMARK    4  A    between atoms: C9_11  and  C10_13 
REMARK    5  A    between atoms: C13_16  and  N2_17 
ROOT
HETATM    1  C9  UNL     1      23.345   4.291  50.811  1.00  0.00     0.170 C 
HETATM    2  O2  UNL     1      22.589   3.715  49.986  1.00  0.00    -0.291 OA
ENDROOT
BRANCH   1   3
HETATM    3  C8  UNL     1      23.059   5.710  51.011  1.00  0.00     0.119 C 
HETATM    4  C2  UNL     1      22.229   6.312  49.906  1.00  0.00     0.057 C 
HETATM    5  C3  UNL     1      22.724   6.560  48.677  1.00  0.00     0.033 C 
HETATM    6  C4  UNL     1      24.094   6.314  48.171  1.00  0.00     0.001 C 
HETATM    7  C5  UNL     1      25.148   6.292  48.987  1.00  0.00     0.008 C 
HETATM    8  C6  UNL     1      25.412   6.456  50.412  1.00  0.00     0.241 C 
HETATM    9  C7  UNL     1      24.241   6.550  51.313  1.00  0.00     0.058 C 
BRANCH   4  10
HETATM   10  O1  UNL     1      20.880   6.721  49.885  1.00  0.00    -0.359 OA
HETATM   11  C1  UNL     1      20.682   8.138  49.861  1.00  0.00     0.209 C 
ENDBRANCH   4  10
BRANCH   8  12
HETATM   12  N1  UNL     1      26.123   7.743  50.539  1.00  0.00     0.086 N 
HETATM   13  H8  UNL     1      25.472   8.515  50.242  1.00  0.00     0.313 HD
HETATM   14  H9  UNL     1      26.316   7.943  51.562  1.00  0.00     0.313 HD
ENDBRANCH   8  12
ENDBRANCH   1   3
BRANCH   1  15
HETATM   15  C10 UNL     1      24.377   3.480  51.435  1.00  0.00     0.011 A 
HETATM   16  C11 UNL     1      24.244   3.216  52.788  1.00  0.00     0.017 A 
HETATM   17  C12 UNL     1      25.209   2.437  53.435  1.00  0.00     0.030 A 
HETATM   18  C13 UNL     1      26.295   1.919  52.766  1.00  0.00     0.032 A 
HETATM   19  C19 UNL     1      26.431   2.177  51.430  1.00  0.00     0.030 A 
HETATM   20  C20 UNL     1      25.475   2.947  50.797  1.00  0.00     0.017 A 
BRANCH  18  21
HETATM   21  N2  UNL     1      27.296   1.124  53.409  1.00  0.00    -0.347 N 
HETATM   22  C14 UNL     1      28.684   1.571  53.528  1.00  0.00     0.153 C 
HETATM   23  C15 UNL     1      29.620   0.402  53.600  1.00  0.00    -0.011 C 
HETATM   24  C16 UNL     1      29.286  -0.890  53.428  1.00  0.00    -0.025 C 
HETATM   25  C17 UNL     1      27.834  -1.177  53.137  1.00  0.00     0.086 C 
HETATM   26  C18 UNL     1      27.065  -0.176  54.003  1.00  0.00     0.275 C 
HETATM   27  F1  UNL     1      27.741  -0.204  55.231  1.00  0.00    -0.227 F 
ENDBRANCH  18  21
ENDBRANCH   1  15
TORSDOF 5
ENDMDL
MODEL 4
REMARK VINA RESULT:      -8.4      4.512      7.958
REMARK  5 active torsions:
REMARK  status: ('A' for Active; 'I' for Inactive)
REMARK    1  A    between atoms: O1_2  and  C2_3 
REMARK    2  A    between atoms: C6_7  and  N1_8 
REMARK    3  A    between atoms: C8_10  and  C9_11 
REMARK    4  A    between atoms: C9_11  and  C10_13 
REMARK    5  A    between atoms: C13_16  and  N2_17 
ROOT
HETATM    1  C9  UNL     1      23.700   3.572  49.315  1.00  0.00     0.170 C 
HETATM    2  O2  UNL     1      23.055   2.817  48.543  1.00  0.00    -0.291 OA
ENDROOT
BRANCH   1   3
HETATM    3  C8  UNL     1      23.411   4.995  49.157  1.00  0.00     0.119 C 
HETATM    4  C2  UNL     1      23.943   5.840  50.286  1.00  0.00     0.057 C 
HETATM    5  C3  UNL     1      23.393   5.840  51.517  1.00  0.00     0.033 C 
HETATM    6  C4  UNL     1      22.227   5.066  52.002  1.00  0.00     0.001 C 
HETATM    7  C5  UNL     1      21.264   4.660  51.176  1.00  0.00     0.008 C 
HETATM    8  C6  UNL     1      20.954   4.749  49.754  1.00  0.00     0.241 C 
HETATM    9  C7  UNL     1      21.994   5.318  48.867  1.00  0.00     0.058 C 
BRANCH   4  10
HETATM   10  O1  UNL     1      25.027   6.741  50.331  1.00  0.00    -0.359 OA
HETATM   11  C1  UNL     1      25.923   6.658  49.219  1.00  0.00     0.209 C 
ENDBRANCH   4  10
BRANCH   8  12
HETATM   12  N1  UNL     1      19.798   5.661  49.655  1.00  0.00     0.086 N 
HETATM   13  H8  UNL     1      20.141   6.650  49.766  1.00  0.00     0.313 HD
HETATM   14  H9  UNL     1      19.403   5.631  48.672  1.00  0.00     0.313 HD
ENDBRANCH   8  12
ENDBRANCH   1   3
BRANCH   1  15
HETATM   15  C10 UNL     1      24.625   2.933  50.238  1.00  0.00     0.011 A 
HETATM   16  C11 UNL     1      24.083   2.100  51.202  1.00  0.00     0.017 A 
HETATM   17  C12 UNL     1      24.932   1.460  52.112  1.00  0.00     0.030 A 
HETATM   18  C13 UNL     1      26.296   1.632  52.080  1.00  0.00     0.032 A 
HETATM   19  C19 UNL     1      26.836   2.455  51.131  1.00  0.00     0.030 A 
HETATM   20  C20 UNL     1      25.994   3.084  50.235  1.00  0.00     0.017 A 
BRANCH  18  21
HETATM   21  N2  UNL     1      27.182   0.990  53.003  1.00  0.00    -0.347 N 
HETATM   22  C14 UNL     1      28.474   1.571  53.371  1.00  0.00     0.153 C 
HETATM   23  C15 UNL     1      29.450   0.504  53.765  1.00  0.00    -0.011 C 
HETATM   24  C16 UNL     1      29.254  -0.824  53.663  1.00  0.00    -0.025 C 
HETATM   25  C17 UNL     1      27.927  -1.266  53.099  1.00  0.00     0.086 C 
HETATM   26  C18 UNL     1      26.916  -0.268  53.668  1.00  0.00     0.275 C 
HETATM   27  F1  UNL     1      27.302  -0.126  55.009  1.00  0.00    -0.227 F 
ENDBRANCH  18  21
ENDBRANCH   1  15
TORSDOF 5
ENDMDL
MODEL 5
REMARK VINA RESULT:      -8.3      4.001      8.231
REMARK  5 active torsions:
REMARK  status: ('A' for Active; 'I' for Inactive)
REMARK    1  A    between atoms: O1_2  and  C2_3 
REMARK    2  A    between atoms: C6_7  and  N1_8 
REMARK    3  A    between atoms: C8_10  and  C9_11 
REMARK    4  A    between atoms: C9_11  and  C10_13 
REMARK    5  A    between atoms: C13_16  and  N2_17 
ROOT
HETATM    1  C9  UNL     1      23.480   4.012  51.129  1.00  0.00     0.170 C 
HETATM    2  O2  UNL     1      23.289   5.162  51.602  1.00  0.00    -0.291 OA
ENDROOT
BRANCH   1   3
HETATM    3  C8  UNL     1      22.553   3.629  50.067  1.00  0.00     0.119 C 
HETATM    4  C2  UNL     1      21.271   4.422  50.080  1.00  0.00     0.057 C 
HETATM    5  C3  UNL     1      20.314   4.243  51.013  1.00  0.00     0.033 C 
HETATM    6  C4  UNL     1      20.308   3.296  52.152  1.00  0.00     0.001 C 
HETATM    7  C5  UNL     1      20.998   2.157  52.119  1.00  0.00     0.008 C 
HETATM    8  C6  UNL     1      21.876   1.455  51.191  1.00  0.00     0.241 C 
HETATM    9  C7  UNL     1      22.284   2.176  49.964  1.00  0.00     0.058 C 
BRANCH   4  10
HETATM   10  O1  UNL     1      20.805   5.435  49.217  1.00  0.00    -0.359 OA
HETATM   11  C1  UNL     1      21.642   5.691  48.085  1.00  0.00     0.209 C 
ENDBRANCH   4  10
BRANCH   8  12
HETATM   12  N1  UNL     1      21.109   0.280  50.731  1.00  0.00     0.086 N 
HETATM   13  H8  UNL     1      20.379   0.604  50.047  1.00  0.00     0.313 HD
HETATM   14  H9  UNL     1      21.739  -0.355  50.160  1.00  0.00     0.313 HD
ENDBRANCH   8  12
ENDBRANCH   1   3
BRANCH   1  15
HETATM   15  C10 UNL     1      24.573   3.240  51.697  1.00  0.00     0.011 A 
HETATM   16  C11 UNL     1      24.494   2.925  53.043  1.00  0.00     0.017 A 
HETATM   17  C12 UNL     1      25.521   2.181  53.636  1.00  0.00     0.030 A 
HETATM   18  C13 UNL     1      26.613   1.749  52.921  1.00  0.00     0.032 A 
HETATM   19  C19 UNL     1      26.697   2.059  51.592  1.00  0.00     0.030 A 
HETATM   20  C20 UNL     1      25.681   2.792  51.011  1.00  0.00     0.017 A 
BRANCH  18  21
HETATM   21  N2  UNL     1      27.676   0.991  53.508  1.00  0.00    -0.347 N 
HETATM   22  C14 UNL     1      29.066   1.449  53.476  1.00  0.00     0.153 C 
HETATM   23  C15 UNL     1      30.014   0.289  53.521  1.00  0.00    -0.011 C 
HETATM   24  C16 UNL     1      29.676  -1.012  53.447  1.00  0.00    -0.025 C 
HETATM   25  C17 UNL     1      28.206  -1.318  53.306  1.00  0.00     0.086 C 
HETATM   26  C18 UNL     1      27.512  -0.277  54.187  1.00  0.00     0.275 C 
HETATM   27  F1  UNL     1      28.298  -0.239  55.347  1.00  0.00    -0.227 F 
ENDBRANCH  18  21
ENDBRANCH   1  15
TORSDOF 5
ENDMDL
MODEL 6
REMARK VINA RESULT:      -8.0      3.534      7.978
REMARK  5 active torsions:
REMARK  status: ('A' for Active; 'I' for Inactive)
REMARK    1  A    between atoms: O1_2  and  C2_3 
REMARK    2  A    between atoms: C6_7  and  N1_8 
REMARK    3  A    between atoms: C8_10  and  C9_11 
REMARK    4  A    between atoms: C9_11  and  C10_13 
REMARK    5  A    between atoms: C13_16  and  N2_17 
ROOT
HETATM    1  C9  UNL     1      22.339   2.161  49.975  1.00  0.00     0.170 C 
HETATM    2  O2  UNL     1      22.129   1.357  49.031  1.00  0.00    -0.291 OA
ENDROOT
BRANCH   1   3
HETATM    3  C8  UNL     1      21.406   3.283  50.038  1.00  0.00     0.119 C 
HETATM    4  C2  UNL     1      21.332   3.922  51.401  1.00  0.00     0.057 C 
HETATM    5  C3  UNL     1      20.729   3.329  52.451  1.00  0.00     0.033 C 
HETATM    6  C4  UNL     1      20.052   2.012  52.498  1.00  0.00     0.001 C 
HETATM    7  C5  UNL     1      19.505   1.468  51.412  1.00  0.00     0.008 C 
HETATM    8  C6  UNL     1      19.341   1.804  50.003  1.00  0.00     0.241 C 
HETATM    9  C7  UNL     1      20.053   3.003  49.504  1.00  0.00     0.058 C 
BRANCH   4  10
HETATM   10  O1  UNL     1      21.821   5.160  51.867  1.00  0.00    -0.359 OA
HETATM   11  C1  UNL     1      23.096   5.096  52.514  1.00  0.00     0.209 C 
ENDBRANCH   4  10
BRANCH   8  12
HETATM   12  N1  UNL     1      17.903   2.087  49.827  1.00  0.00     0.086 N 
HETATM   13  H8  UNL     1      17.569   2.651  50.650  1.00  0.00     0.313 HD
HETATM   14  H9  UNL     1      17.766   2.731  48.996  1.00  0.00     0.313 HD
ENDBRANCH   8  12
ENDBRANCH   1   3
BRANCH   1  15
HETATM   15  C10 UNL     1      23.461   1.867  50.852  1.00  0.00     0.011 A 
HETATM   16  C11 UNL     1      24.652   2.527  50.601  1.00  0.00     0.017 A 
HETATM   17  C12 UNL     1      25.760   2.281  51.420  1.00  0.00     0.030 A 
HETATM   18  C13 UNL     1      25.705   1.398  52.473  1.00  0.00     0.032 A 
HETATM   19  C19 UNL     1      24.531   0.742  52.724  1.00  0.00     0.030 A 
HETATM   20  C20 UNL     1      23.441   0.990  51.914  1.00  0.00     0.017 A 
BRANCH  18  21
HETATM   21  N2  UNL     1      26.827   1.128  53.320  1.00  0.00    -0.347 N 
HETATM   22  C14 UNL     1      27.890   2.109  53.535  1.00  0.00     0.153 C 
HETATM   23  C15 UNL     1      29.188   1.432  53.860  1.00  0.00    -0.011 C 
HETATM   24  C16 UNL     1      29.420   0.107  53.819  1.00  0.00    -0.025 C 
HETATM   25  C17 UNL     1      28.262  -0.767  53.406  1.00  0.00     0.086 C 
HETATM   26  C18 UNL     1      27.038  -0.107  54.046  1.00  0.00     0.275 C 
HETATM   27  F1  UNL     1      27.473   0.232  55.335  1.00  0.00    -0.227 F 
ENDBRANCH  18  21
ENDBRANCH   1  15
TORSDOF 5
ENDMDL
MODEL 7
REMARK VINA RESULT:      -7.9      4.491      7.609
REMARK  5 active torsions:
REMARK  status: ('A' for Active; 'I' for Inactive)
REMARK    1  A    between atoms: O1_2  and  C2_3 
REMARK    2  A    between atoms: C6_7  and  N1_8 
REMARK    3  A    between atoms: C8_10  and  C9_11 
REMARK    4  A    between atoms: C9_11  and  C10_13 
REMARK    5  A    between atoms: C13_16  and  N2_17 
ROOT
HETATM    1  C9  UNL     1      21.916   3.631  51.611  1.00  0.00     0.170 C 
HETATM    2  O2  UNL     1      21.063   3.964  52.473  1.00  0.00    -0.291 OA
ENDROOT
BRANCH   1   3
HETATM    3  C8  UNL     1      21.648   4.129  50.264  1.00  0.00     0.119 C 
HETATM    4  C2  UNL     1      22.823   3.988  49.331  1.00  0.00     0.057 C 
HETATM    5  C3  UNL     1      23.923   4.761  49.424  1.00  0.00     0.033 C 
HETATM    6  C4  UNL     1      24.205   5.845  50.394  1.00  0.00     0.001 C 
HETATM    7  C5  UNL     1      23.226   6.540  50.971  1.00  0.00     0.008 C 
HETATM    8  C6  UNL     1      21.768   6.573  50.946  1.00  0.00     0.241 C 
HETATM    9  C7  UNL     1      21.077   5.495  50.204  1.00  0.00     0.058 C 
BRANCH   4  10
HETATM   10  O1  UNL     1      23.040   3.110  48.249  1.00  0.00    -0.359 OA
HETATM   11  C1  UNL     1      21.874   2.809  47.477  1.00  0.00     0.209 C 
ENDBRANCH   4  10
BRANCH   8  12
HETATM   12  N1  UNL     1      21.412   7.829  50.258  1.00  0.00     0.086 N 
HETATM   13  H8  UNL     1      22.128   8.016  49.510  1.00  0.00     0.313 HD
HETATM   14  H9  UNL     1      20.505   7.697  49.724  1.00  0.00     0.313 HD
ENDBRANCH   8  12
ENDBRANCH   1   3
BRANCH   1  15
HETATM   15  C10 UNL     1      23.028   2.812  52.068  1.00  0.00     0.011 A 
HETATM   16  C11 UNL     1      23.939   3.403  52.927  1.00  0.00     0.017 A 
HETATM   17  C12 UNL     1      25.024   2.656  53.398  1.00  0.00     0.030 A 
HETATM   18  C13 UNL     1      25.217   1.344  53.032  1.00  0.00     0.032 A 
HETATM   19  C19 UNL     1      24.321   0.756  52.183  1.00  0.00     0.030 A 
HETATM   20  C20 UNL     1      23.251   1.498  51.722  1.00  0.00     0.017 A 
BRANCH  18  21
HETATM   21  N2  UNL     1      26.322   0.562  53.498  1.00  0.00    -0.347 N 
HETATM   22  C14 UNL     1      26.517   0.261  54.917  1.00  0.00     0.153 C 
HETATM   23  C15 UNL     1      27.968   0.049  55.227  1.00  0.00    -0.011 C 
HETATM   24  C16 UNL     1      28.995   0.249  54.380  1.00  0.00    -0.025 C 
HETATM   25  C17 UNL     1      28.641   0.731  52.996  1.00  0.00     0.086 C 
HETATM   26  C18 UNL     1      27.347  -0.011  52.651  1.00  0.00     0.275 C 
HETATM   27  F1  UNL     1      27.580  -1.319  53.098  1.00  0.00    -0.227 F 
ENDBRANCH  18  21
ENDBRANCH   1  15
TORSDOF 5
ENDMDL
MODEL 8
REMARK VINA RESULT:      -7.8      1.555      2.912
REMARK  5 active torsions:
REMARK  status: ('A' for Active; 'I' for Inactive)
REMARK    1  A    between atoms: O1_2  and  C2_3 
REMARK    2  A    between atoms: C6_7  and  N1_8 
REMARK    3  A    between atoms: C8_10  and  C9_11 
REMARK    4  A    between atoms: C9_11  and  C10_13 
REMARK    5  A    between atoms: C13_16  and  N2_17 
ROOT
HETATM    1  C9  UNL     1      24.594  -0.382  54.267  1.00  0.00     0.170 C 
HETATM    2  O2  UNL     1      25.028  -1.551  54.439  1.00  0.00    -0.291 OA
ENDROOT
BRANCH   1   3
HETATM    3  C8  UNL     1      25.567   0.674  54.534  1.00  0.00     0.119 C 
HETATM    4  C2  UNL     1      25.481   1.823  53.562  1.00  0.00     0.057 C 
HETATM    5  C3  UNL     1      25.899   1.727  52.283  1.00  0.00     0.033 C 
HETATM    6  C4  UNL     1      26.493   0.557  51.596  1.00  0.00     0.001 C 
HETATM    7  C5  UNL     1      27.158  -0.384  52.265  1.00  0.00     0.008 C 
HETATM    8  C6  UNL     1      27.535  -0.663  53.646  1.00  0.00     0.241 C 
HETATM    9  C7  UNL     1      26.965   0.212  54.695  1.00  0.00     0.058 C 
BRANCH   4  10
HETATM   10  O1  UNL     1      24.997   3.137  53.728  1.00  0.00    -0.359 OA
HETATM   11  C1  UNL     1      23.977   3.521  52.802  1.00  0.00     0.209 C 
ENDBRANCH   4  10
BRANCH   8  12
HETATM   12  N1  UNL     1      28.997  -0.464  53.706  1.00  0.00     0.086 N 
HETATM   13  H8  UNL     1      29.379  -1.031  54.505  1.00  0.00     0.313 HD
HETATM   14  H9  UNL     1      29.449  -0.887  52.846  1.00  0.00     0.313 HD
ENDBRANCH   8  12
ENDBRANCH   1   3
BRANCH   1  15
HETATM   15  C10 UNL     1      23.212  -0.252  53.836  1.00  0.00     0.011 A 
HETATM   16  C11 UNL     1      22.986  -0.048  52.485  1.00  0.00     0.017 A 
HETATM   17  C12 UNL     1      21.672   0.082  52.020  1.00  0.00     0.030 A 
HETATM   18  C13 UNL     1      20.590   0.012  52.865  1.00  0.00     0.032 A 
HETATM   19  C19 UNL     1      20.808  -0.189  54.201  1.00  0.00     0.030 A 
HETATM   20  C20 UNL     1      22.106  -0.316  54.654  1.00  0.00     0.017 A 
BRANCH  18  21
HETATM   21  N2  UNL     1      19.239   0.145  52.412  1.00  0.00    -0.347 N 
HETATM   22  C14 UNL     1      18.187  -0.785  52.822  1.00  0.00     0.153 C 
HETATM   23  C15 UNL     1      17.111  -0.873  51.782  1.00  0.00    -0.011 C 
HETATM   24  C16 UNL     1      17.145  -0.309  50.560  1.00  0.00    -0.025 C 
HETATM   25  C17 UNL     1      18.384   0.480  50.218  1.00  0.00     0.086 C 
HETATM   26  C18 UNL     1      18.763   1.184  51.523  1.00  0.00     0.275 C 
HETATM   27  F1  UNL     1      17.537   1.641  52.028  1.00  0.00    -0.227 F 
ENDBRANCH  18  21
ENDBRANCH   1  15
TORSDOF 5
ENDMDL
MODEL 9
REMARK VINA RESULT:      -7.7      5.654      9.189
REMARK  5 active torsions:
REMARK  status: ('A' for Active; 'I' for Inactive)
REMARK    1  A    between atoms: O1_2  and  C2_3 
REMARK    2  A    between atoms: C6_7  and  N1_8 
REMARK    3  A    between atoms: C8_10  and  C9_11 
REMARK    4  A    between atoms: C9_11  and  C10_13 
REMARK    5  A    between atoms: C13_16  and  N2_17 
ROOT
HETATM    1  C9  UNL     1      23.296   3.248  49.769  1.00  0.00     0.170 C 
HETATM    2  O2  UNL     1      23.060   2.174  49.158  1.00  0.00    -0.291 OA
ENDROOT
BRANCH   1   3
HETATM    3  C8  UNL     1      22.299   3.608  50.774  1.00  0.00     0.119 C 
HETATM    4  C2  UNL     1      22.792   4.634  51.762  1.00  0.00     0.057 C 
HETATM    5  C3  UNL     1      23.692   4.345  52.723  1.00  0.00     0.033 C 
HETATM    6  C4  UNL     1      24.351   3.048  53.005  1.00  0.00     0.001 C 
HETATM    7  C5  UNL     1      23.778   1.888  52.685  1.00  0.00     0.008 C 
HETATM    8  C6  UNL     1      22.542   1.432  52.061  1.00  0.00     0.241 C 
HETATM    9  C7  UNL     1      21.662   2.462  51.464  1.00  0.00     0.058 C 
BRANCH   4  10
HETATM   10  O1  UNL     1      22.471   5.999  51.911  1.00  0.00    -0.359 OA
HETATM   11  C1  UNL     1      21.484   6.487  50.998  1.00  0.00     0.209 C 
ENDBRANCH   4  10
BRANCH   8  12
HETATM   12  N1  UNL     1      21.756   0.810  53.144  1.00  0.00     0.086 N 
HETATM   13  H8  UNL     1      22.414   0.534  53.918  1.00  0.00     0.313 HD
HETATM   14  H9  UNL     1      21.123   1.537  53.587  1.00  0.00     0.313 HD
ENDBRANCH   8  12
ENDBRANCH   1   3
BRANCH   1  15
HETATM   15  C10 UNL     1      24.504   3.965  49.395  1.00  0.00     0.011 A 
HETATM   16  C11 UNL     1      24.347   5.224  48.840  1.00  0.00     0.017 A 
HETATM   17  C12 UNL     1      25.479   5.956  48.466  1.00  0.00     0.030 A 
HETATM   18  C13 UNL     1      26.752   5.464  48.633  1.00  0.00     0.032 A 
HETATM   19  C19 UNL     1      26.913   4.221  49.179  1.00  0.00     0.030 A 
HETATM   20  C20 UNL     1      25.792   3.503  49.547  1.00  0.00     0.017 A 
BRANCH  18  21
HETATM   21  N2  UNL     1      27.924   6.194  48.253  1.00  0.00    -0.347 N 
HETATM   22  C14 UNL     1      29.264   5.614  48.345  1.00  0.00     0.153 C 
HETATM   23  C15 UNL     1      30.298   6.680  48.547  1.00  0.00    -0.011 C 
HETATM   24  C16 UNL     1      30.055   7.985  48.770  1.00  0.00    -0.025 C 
HETATM   25  C17 UNL     1      28.607   8.400  48.820  1.00  0.00     0.086 C 
HETATM   26  C18 UNL     1      27.926   7.549  47.745  1.00  0.00     0.275 C 
HETATM   27  F1  UNL     1      28.820   7.593  46.666  1.00  0.00    -0.227 F 
ENDBRANCH  18  21
ENDBRANCH   1  15
TORSDOF 5
ENDMDL
