MODEL 1
REMARK VINA RESULT:      -8.4      0.000      0.000
REMARK  6 active torsions:
REMARK  status: ('A' for Active; 'I' for Inactive)
REMARK    1  A    between atoms: C5_5  and  C6_6 
REMARK    2  A    between atoms: C6_6  and  N1_7 
REMARK    3  A    between atoms: N1_7  and  C7_8 
REMARK    4  A    between atoms: C11_15  and  C12_16 
REMARK    5  A    between atoms: C12_16  and  N5_17 
REMARK    6  A    between atoms: C15_20  and  N6_21 
ROOT
HETATM    1  C7  UNL     1      22.450   1.724  52.188  1.00  0.00     0.154 A 
HETATM    2  N2  UNL     1      21.220   2.253  52.031  1.00  0.00    -0.221 NA
HETATM    3  C8  UNL     1      20.170   1.815  52.744  1.00  0.00     0.258 A 
HETATM    4  N3  UNL     1      20.354   0.826  53.632  1.00  0.00    -0.161 NA
HETATM    5  N4  UNL     1      21.589   0.315  53.770  1.00  0.00    -0.240 N 
HETATM    6  C9  UNL     1      21.879  -0.675  54.632  1.00  0.00     0.119 A 
HETATM    7  C10 UNL     1      23.231  -0.875  54.442  1.00  0.00     0.030 A 
HETATM    8  C11 UNL     1      23.738  -0.013  53.479  1.00  0.00     0.004 A 
HETATM    9  C18 UNL     1      22.655   0.713  53.092  1.00  0.00     0.111 A 
ENDROOT
BRANCH   1  10
HETATM   10  N1  UNL     1      23.511   2.240  51.390  1.00  0.00    -0.367 N 
HETATM   11  H8  UNL     1      24.184   1.870  50.708  1.00  0.00     0.161 HD
BRANCH  10  12
HETATM   12  C6  UNL     1      23.802   3.656  51.491  1.00  0.00     0.177 C 
BRANCH  12  13
HETATM   13  C5  UNL     1      24.893   4.150  50.660  1.00  0.00     0.023 A 
HETATM   14  C4  UNL     1      25.765   3.333  50.080  1.00  0.00     0.026 A 
HETATM   15  C3  UNL     1      26.857   3.828  49.248  1.00  0.00     0.006 A 
HETATM   16  C2  UNL     1      26.948   5.142  49.090  1.00  0.00    -0.066 A 
HETATM   17  C1  UNL     1      28.046   5.654  48.254  1.00  0.00     0.045 C 
HETATM   18  C19 UNL     1      26.034   6.160  49.688  1.00  0.00     0.153 A 
HETATM   19  N7  UNL     1      24.989   5.563  50.490  1.00  0.00    -0.388 N 
HETATM   20  H25 UNL     1      24.352   6.274  50.905  1.00  0.00     0.159 HD
ENDBRANCH  12  13
ENDBRANCH  10  12
ENDBRANCH   1  10
BRANCH   8  21
HETATM   21  C12 UNL     1      25.118   0.075  53.009  1.00  0.00     0.313 C 
BRANCH  21  22
HETATM   22  N5  UNL     1      25.930   0.906  53.913  1.00  0.00     0.092 N 
HETATM   23  C13 UNL     1      26.576   1.939  53.182  1.00  0.00     0.275 C 
HETATM   24  C14 UNL     1      27.948   2.174  53.769  1.00  0.00     0.065 C 
HETATM   25  C15 UNL     1      28.725   0.902  53.417  1.00  0.00     0.221 C 
HETATM   26  C16 UNL     1      28.071  -0.301  54.050  1.00  0.00     0.065 C 
HETATM   27  C17 UNL     1      26.743   0.029  54.676  1.00  0.00     0.275 C 
BRANCH  25  28
HETATM   28  N6  UNL     1      30.073   1.070  53.904  1.00  0.00     0.083 N 
HETATM   29  H19 UNL     1      30.463   1.998  53.596  1.00  0.00     0.313 HD
HETATM   30  H20 UNL     1      30.668   0.339  53.435  1.00  0.00     0.313 HD
ENDBRANCH  25  28
ENDBRANCH  21  22
ENDBRANCH   8  21
TORSDOF 6
ENDMDL
MODEL 2
REMARK VINA RESULT:      -8.3      1.521      2.363
REMARK  6 active torsions:
REMARK  status: ('A' for Active; 'I' for Inactive)
REMARK    1  A    between atoms: C5_5  and  C6_6 
REMARK    2  A    between atoms: C6_6  and  N1_7 
REMARK    3  A    between atoms: N1_7  and  C7_8 
REMARK    4  A    between atoms: C11_15  and  C12_16 
REMARK    5  A    between atoms: C12_16  and  N5_17 
REMARK    6  A    between atoms: C15_20  and  N6_21 
ROOT
HETATM    1  C7  UNL     1      23.973   3.778  51.668  1.00  0.00     0.154 A 
HETATM    2  N2  UNL     1      23.295   4.935  51.537  1.00  0.00    -0.221 NA
HETATM    3  C8  UNL     1      21.983   5.017  51.809  1.00  0.00     0.258 A 
HETATM    4  N3  UNL     1      21.335   3.917  52.221  1.00  0.00    -0.161 NA
HETATM    5  N4  UNL     1      22.031   2.775  52.344  1.00  0.00    -0.240 N 
HETATM    6  C9  UNL     1      21.477   1.620  52.750  1.00  0.00     0.119 A 
HETATM    7  C10 UNL     1      22.536   0.735  52.731  1.00  0.00     0.030 A 
HETATM    8  C11 UNL     1      23.706   1.358  52.319  1.00  0.00     0.004 A 
HETATM    9  C18 UNL     1      23.325   2.643  52.089  1.00  0.00     0.111 A 
ENDROOT
BRANCH   1  10
HETATM   10  N1  UNL     1      25.363   3.771  51.355  1.00  0.00    -0.367 N 
HETATM   11  H8  UNL     1      26.248   3.783  51.875  1.00  0.00     0.161 HD
BRANCH  10  12
HETATM   12  C6  UNL     1      25.737   3.736  49.955  1.00  0.00     0.177 C 
BRANCH  12  13
HETATM   13  C5  UNL     1      26.458   4.899  49.453  1.00  0.00     0.023 A 
HETATM   14  C4  UNL     1      27.543   4.784  48.696  1.00  0.00     0.026 A 
HETATM   15  C3  UNL     1      28.264   5.949  48.193  1.00  0.00     0.006 A 
HETATM   16  C2  UNL     1      27.790   7.143  48.524  1.00  0.00    -0.066 A 
HETATM   17  C1  UNL     1      28.509   8.326  48.023  1.00  0.00     0.045 C 
HETATM   18  C19 UNL     1      26.584   7.402  49.367  1.00  0.00     0.153 A 
HETATM   19  N7  UNL     1      25.946   6.182  49.810  1.00  0.00    -0.388 N 
HETATM   20  H25 UNL     1      25.105   6.364  50.395  1.00  0.00     0.159 HD
ENDBRANCH  12  13
ENDBRANCH  10  12
ENDBRANCH   1  10
BRANCH   8  21
HETATM   21  C12 UNL     1      25.027   0.754  52.175  1.00  0.00     0.313 C 
BRANCH  21  22
HETATM   22  N5  UNL     1      25.533   0.277  53.472  1.00  0.00     0.092 N 
HETATM   23  C13 UNL     1      26.498   1.185  53.986  1.00  0.00     0.275 C 
HETATM   24  C14 UNL     1      27.579   0.404  54.697  1.00  0.00     0.065 C 
HETATM   25  C15 UNL     1      28.302  -0.338  53.569  1.00  0.00     0.221 C 
HETATM   26  C16 UNL     1      27.349  -1.268  52.861  1.00  0.00     0.065 C 
HETATM   27  C17 UNL     1      25.923  -1.076  53.302  1.00  0.00     0.275 C 
BRANCH  25  28
HETATM   28  N6  UNL     1      29.391  -1.074  54.165  1.00  0.00     0.083 N 
HETATM   29  H19 UNL     1      30.314  -0.642  53.906  1.00  0.00     0.313 HD
HETATM   30  H20 UNL     1      29.393  -2.035  53.732  1.00  0.00     0.313 HD
ENDBRANCH  25  28
ENDBRANCH  21  22
ENDBRANCH   8  21
TORSDOF 6
ENDMDL
MODEL 3
REMARK VINA RESULT:      -8.3      2.225      5.509
REMARK  6 active torsions:
REMARK  status: ('A' for Active; 'I' for Inactive)
REMARK    1  A    between atoms: C5_5  and  C6_6 
REMARK    2  A    between atoms: C6_6  and  N1_7 
REMARK    3  A    between atoms: N1_7  and  C7_8 
REMARK    4  A    between atoms: C11_15  and  C12_16 
REMARK    5  A    between atoms: C12_16  and  N5_17 
REMARK    6  A    between atoms: C15_20  and  N6_21 
ROOT
HETATM    1  C7  UNL     1      22.881   0.094  53.034  1.00  0.00     0.154 A 
HETATM    2  N2  UNL     1      22.940  -0.826  54.017  1.00  0.00    -0.221 NA
HETATM    3  C8  UNL     1      21.839  -1.456  54.458  1.00  0.00     0.258 A 
HETATM    4  N3  UNL     1      20.654  -1.158  53.904  1.00  0.00    -0.161 NA
HETATM    5  N4  UNL     1      20.620  -0.238  52.926  1.00  0.00    -0.240 N 
HETATM    6  C9  UNL     1      19.486   0.131  52.306  1.00  0.00     0.119 A 
HETATM    7  C10 UNL     1      19.914   1.075  51.396  1.00  0.00     0.030 A 
HETATM    8  C11 UNL     1      21.288   1.265  51.474  1.00  0.00     0.004 A 
HETATM    9  C18 UNL     1      21.677   0.410  52.457  1.00  0.00     0.111 A 
ENDROOT
BRANCH   1  10
HETATM   10  N1  UNL     1      24.093   0.722  52.626  1.00  0.00    -0.367 N 
HETATM   11  H8  UNL     1      24.545   0.971  51.738  1.00  0.00     0.161 HD
BRANCH  10  12
HETATM   12  C6  UNL     1      25.002   1.169  53.662  1.00  0.00     0.177 C 
BRANCH  12  13
HETATM   13  C5  UNL     1      26.314   0.536  53.685  1.00  0.00     0.023 A 
HETATM   14  C4  UNL     1      26.610  -0.504  52.913  1.00  0.00     0.026 A 
HETATM   15  C3  UNL     1      27.924  -1.138  52.935  1.00  0.00     0.006 A 
HETATM   16  C2  UNL     1      28.825  -0.631  53.767  1.00  0.00    -0.066 A 
HETATM   17  C1  UNL     1      30.154  -1.262  53.799  1.00  0.00     0.045 C 
HETATM   18  C19 UNL     1      28.615   0.529  54.683  1.00  0.00     0.153 A 
HETATM   19  N7  UNL     1      27.282   1.082  54.579  1.00  0.00    -0.388 N 
HETATM   20  H25 UNL     1      27.137   1.892  55.216  1.00  0.00     0.159 HD
ENDBRANCH  12  13
ENDBRANCH  10  12
ENDBRANCH   1  10
BRANCH   8  21
HETATM   21  C12 UNL     1      22.101   2.176  50.674  1.00  0.00     0.313 C 
BRANCH  21  22
HETATM   22  N5  UNL     1      21.703   3.575  50.899  1.00  0.00     0.092 N 
HETATM   23  C13 UNL     1      22.246   4.409  49.885  1.00  0.00     0.275 C 
HETATM   24  C14 UNL     1      22.632   5.737  50.494  1.00  0.00     0.065 C 
HETATM   25  C15 UNL     1      23.819   5.398  51.401  1.00  0.00     0.221 C 
HETATM   26  C16 UNL     1      23.397   4.422  52.470  1.00  0.00     0.065 C 
HETATM   27  C17 UNL     1      22.007   3.890  52.248  1.00  0.00     0.275 C 
BRANCH  25  28
HETATM   28  N6  UNL     1      24.281   6.634  51.986  1.00  0.00     0.083 N 
HETATM   29  H19 UNL     1      24.176   7.428  51.303  1.00  0.00     0.313 HD
HETATM   30  H20 UNL     1      25.316   6.533  52.152  1.00  0.00     0.313 HD
ENDBRANCH  25  28
ENDBRANCH  21  22
ENDBRANCH   8  21
TORSDOF 6
ENDMDL
MODEL 4
REMARK VINA RESULT:      -8.2      1.402      5.094
REMARK  6 active torsions:
REMARK  status: ('A' for Active; 'I' for Inactive)
REMARK    1  A    between atoms: C5_5  and  C6_6 
REMARK    2  A    between atoms: C6_6  and  N1_7 
REMARK    3  A    between atoms: N1_7  and  C7_8 
REMARK    4  A    between atoms: C11_15  and  C12_16 
REMARK    5  A    between atoms: C12_16  and  N5_17 
REMARK    6  A    between atoms: C15_20  and  N6_21 
ROOT
HETATM    1  C7  UNL     1      26.676   1.760  52.377  1.00  0.00     0.154 A 
HETATM    2  N2  UNL     1      27.869   2.374  52.499  1.00  0.00    -0.221 NA
HETATM    3  C8  UNL     1      28.646   2.195  53.579  1.00  0.00     0.258 A 
HETATM    4  N3  UNL     1      28.220   1.383  54.559  1.00  0.00    -0.161 NA
HETATM    5  N4  UNL     1      27.027   0.782  54.414  1.00  0.00    -0.240 N 
HETATM    6  C9  UNL     1      26.510  -0.049  55.336  1.00  0.00     0.119 A 
HETATM    7  C10 UNL     1      25.303  -0.423  54.784  1.00  0.00     0.030 A 
HETATM    8  C11 UNL     1      25.104   0.178  53.548  1.00  0.00     0.004 A 
HETATM    9  C18 UNL     1      26.226   0.927  53.370  1.00  0.00     0.111 A 
ENDROOT
BRANCH   1  10
HETATM   10  N1  UNL     1      25.908   2.006  51.202  1.00  0.00    -0.367 N 
HETATM   11  H8  UNL     1      25.667   1.496  50.344  1.00  0.00     0.161 HD
BRANCH  10  12
HETATM   12  C6  UNL     1      25.247   3.290  51.087  1.00  0.00     0.177 C 
BRANCH  12  13
HETATM   13  C5  UNL     1      25.906   4.281  50.246  1.00  0.00     0.023 A 
HETATM   14  C4  UNL     1      26.861   3.952  49.383  1.00  0.00     0.026 A 
HETATM   15  C3  UNL     1      27.520   4.944  48.541  1.00  0.00     0.006 A 
HETATM   16  C2  UNL     1      27.127   6.204  48.671  1.00  0.00    -0.066 A 
HETATM   17  C1  UNL     1      27.786   7.215  47.827  1.00  0.00     0.045 C 
HETATM   18  C19 UNL     1      26.070   6.699  49.602  1.00  0.00     0.153 A 
HETATM   19  N7  UNL     1      25.482   5.636  50.386  1.00  0.00    -0.388 N 
HETATM   20  H25 UNL     1      24.744   5.981  51.034  1.00  0.00     0.159 HD
ENDBRANCH  12  13
ENDBRANCH  10  12
ENDBRANCH   1  10
BRANCH   8  21
HETATM   21  C12 UNL     1      23.953   0.025  52.665  1.00  0.00     0.313 C 
BRANCH  21  22
HETATM   22  N5  UNL     1      22.722   0.505  53.313  1.00  0.00     0.092 N 
HETATM   23  C13 UNL     1      21.803  -0.566  53.476  1.00  0.00     0.275 C 
HETATM   24  C14 UNL     1      20.399  -0.046  53.267  1.00  0.00     0.065 C 
HETATM   25  C15 UNL     1      20.347   0.291  51.774  1.00  0.00     0.221 C 
HETATM   26  C16 UNL     1      21.366   1.353  51.442  1.00  0.00     0.065 C 
HETATM   27  C17 UNL     1      22.285   1.648  52.597  1.00  0.00     0.275 C 
BRANCH  25  28
HETATM   28  N6  UNL     1      19.011   0.751  51.481  1.00  0.00     0.083 N 
HETATM   29  H19 UNL     1      18.748   0.514  50.490  1.00  0.00     0.313 HD
HETATM   30  H20 UNL     1      19.025   1.803  51.530  1.00  0.00     0.313 HD
ENDBRANCH  25  28
ENDBRANCH  21  22
ENDBRANCH   8  21
TORSDOF 6
ENDMDL
MODEL 5
REMARK VINA RESULT:      -7.9      1.604      5.149
REMARK  6 active torsions:
REMARK  status: ('A' for Active; 'I' for Inactive)
REMARK    1  A    between atoms: C5_5  and  C6_6 
REMARK    2  A    between atoms: C6_6  and  N1_7 
REMARK    3  A    between atoms: N1_7  and  C7_8 
REMARK    4  A    between atoms: C11_15  and  C12_16 
REMARK    5  A    between atoms: C12_16  and  N5_17 
REMARK    6  A    between atoms: C15_20  and  N6_21 
ROOT
HETATM    1  C7  UNL     1      22.318   0.613  53.260  1.00  0.00     0.154 A 
HETATM    2  N2  UNL     1      21.600  -0.445  53.685  1.00  0.00    -0.221 NA
HETATM    3  C8  UNL     1      20.271  -0.509  53.511  1.00  0.00     0.258 A 
HETATM    4  N3  UNL     1      19.645   0.508  52.899  1.00  0.00    -0.161 NA
HETATM    5  N4  UNL     1      20.382   1.552  52.484  1.00  0.00    -0.240 N 
HETATM    6  C9  UNL     1      19.853   2.619  51.860  1.00  0.00     0.119 A 
HETATM    7  C10 UNL     1      20.949   3.422  51.622  1.00  0.00     0.030 A 
HETATM    8  C11 UNL     1      22.116   2.839  52.099  1.00  0.00     0.004 A 
HETATM    9  C18 UNL     1      21.694   1.661  52.632  1.00  0.00     0.111 A 
ENDROOT
BRANCH   1  10
HETATM   10  N1  UNL     1      23.724   0.608  53.487  1.00  0.00    -0.367 N 
HETATM   11  H8  UNL     1      24.466   1.308  53.610  1.00  0.00     0.161 HD
BRANCH  10  12
HETATM   12  C6  UNL     1      24.385  -0.677  53.589  1.00  0.00     0.177 C 
BRANCH  12  13
HETATM   13  C5  UNL     1      25.843  -0.654  53.595  1.00  0.00     0.023 A 
HETATM   14  C4  UNL     1      26.565  -1.447  52.814  1.00  0.00     0.026 A 
HETATM   15  C3  UNL     1      28.024  -1.422  52.821  1.00  0.00     0.006 A 
HETATM   16  C2  UNL     1      28.610  -0.568  53.648  1.00  0.00    -0.066 A 
HETATM   17  C1  UNL     1      30.082  -0.534  53.665  1.00  0.00     0.045 C 
HETATM   18  C19 UNL     1      27.911   0.372  54.574  1.00  0.00     0.153 A 
HETATM   19  N7  UNL     1      26.471   0.268  54.486  1.00  0.00    -0.388 N 
HETATM   20  H25 UNL     1      25.984   0.924  55.130  1.00  0.00     0.159 HD
ENDBRANCH  12  13
ENDBRANCH  10  12
ENDBRANCH   1  10
BRANCH   8  21
HETATM   21  C12 UNL     1      23.469   3.383  52.030  1.00  0.00     0.313 C 
BRANCH  21  22
HETATM   22  N5  UNL     1      24.215   2.801  50.903  1.00  0.00     0.092 N 
HETATM   23  C13 UNL     1      25.555   2.531  51.289  1.00  0.00     0.275 C 
HETATM   24  C14 UNL     1      26.470   2.807  50.118  1.00  0.00     0.065 C 
HETATM   25  C15 UNL     1      26.410   4.328  49.952  1.00  0.00     0.221 C 
HETATM   26  C16 UNL     1      25.000   4.765  49.644  1.00  0.00     0.065 C 
HETATM   27  C17 UNL     1      24.007   3.642  49.780  1.00  0.00     0.275 C 
BRANCH  25  28
HETATM   28  N6  UNL     1      27.305   4.681  48.876  1.00  0.00     0.083 N 
HETATM   29  H19 UNL     1      28.199   5.085  49.257  1.00  0.00     0.313 HD
HETATM   30  H20 UNL     1      26.848   5.458  48.332  1.00  0.00     0.313 HD
ENDBRANCH  25  28
ENDBRANCH  21  22
ENDBRANCH   8  21
TORSDOF 6
ENDMDL
MODEL 6
REMARK VINA RESULT:      -7.9      1.934      5.304
REMARK  6 active torsions:
REMARK  status: ('A' for Active; 'I' for Inactive)
REMARK    1  A    between atoms: C5_5  and  C6_6 
REMARK    2  A    between atoms: C6_6  and  N1_7 
REMARK    3  A    between atoms: N1_7  and  C7_8 
REMARK    4  A    between atoms: C11_15  and  C12_16 
REMARK    5  A    between atoms: C12_16  and  N5_17 
REMARK    6  A    between atoms: C15_20  and  N6_21 
ROOT
HETATM    1  C7  UNL     1      26.485   2.084  52.350  1.00  0.00     0.154 A 
HETATM    2  N2  UNL     1      27.812   1.997  52.568  1.00  0.00    -0.221 NA
HETATM    3  C8  UNL     1      28.335   1.040  53.350  1.00  0.00     0.258 A 
HETATM    4  N3  UNL     1      27.513   0.151  53.928  1.00  0.00    -0.161 NA
HETATM    5  N4  UNL     1      26.194   0.258  53.697  1.00  0.00    -0.240 N 
HETATM    6  C9  UNL     1      25.288  -0.581  54.227  1.00  0.00     0.119 A 
HETATM    7  C10 UNL     1      24.090  -0.108  53.732  1.00  0.00     0.030 A 
HETATM    8  C11 UNL     1      24.282   1.000  52.917  1.00  0.00     0.004 A 
HETATM    9  C18 UNL     1      25.630   1.183  52.934  1.00  0.00     0.111 A 
ENDROOT
BRANCH   1  10
HETATM   10  N1  UNL     1      26.006   3.132  51.512  1.00  0.00    -0.367 N 
HETATM   11  H8  UNL     1      25.425   3.972  51.619  1.00  0.00     0.161 HD
BRANCH  10  12
HETATM   12  C6  UNL     1      26.384   3.100  50.113  1.00  0.00     0.177 C 
BRANCH  12  13
HETATM   13  C5  UNL     1      26.464   4.389  49.438  1.00  0.00     0.023 A 
HETATM   14  C4  UNL     1      25.400   5.163  49.266  1.00  0.00     0.026 A 
HETATM   15  C3  UNL     1      25.480   6.454  48.590  1.00  0.00     0.006 A 
HETATM   16  C2  UNL     1      26.672   6.831  48.147  1.00  0.00    -0.066 A 
HETATM   17  C1  UNL     1      26.767   8.131  47.463  1.00  0.00     0.045 C 
HETATM   18  C19 UNL     1      27.940   6.052  48.278  1.00  0.00     0.153 A 
HETATM   19  N7  UNL     1      27.748   4.793  48.963  1.00  0.00    -0.388 N 
HETATM   20  H25 UNL     1      28.632   4.251  49.055  1.00  0.00     0.159 HD
ENDBRANCH  12  13
ENDBRANCH  10  12
ENDBRANCH   1  10
BRANCH   8  21
HETATM   21  C12 UNL     1      23.260   1.770  52.215  1.00  0.00     0.313 C 
BRANCH  21  22
HETATM   22  N5  UNL     1      22.856   1.099  50.969  1.00  0.00     0.092 N 
HETATM   23  C13 UNL     1      22.808   2.035  49.902  1.00  0.00     0.275 C 
HETATM   24  C14 UNL     1      21.658   1.681  48.987  1.00  0.00     0.065 C 
HETATM   25  C15 UNL     1      20.413   1.980  49.826  1.00  0.00     0.221 C 
HETATM   26  C16 UNL     1      20.397   1.119  51.064  1.00  0.00     0.065 C 
HETATM   27  C17 UNL     1      21.681   0.357  51.251  1.00  0.00     0.275 C 
BRANCH  25  28
HETATM   28  N6  UNL     1      19.261   1.713  48.999  1.00  0.00     0.083 N 
HETATM   29  H19 UNL     1      18.396   2.139  49.422  1.00  0.00     0.313 HD
HETATM   30  H20 UNL     1      19.102   0.671  49.011  1.00  0.00     0.313 HD
ENDBRANCH  25  28
ENDBRANCH  21  22
ENDBRANCH   8  21
TORSDOF 6
ENDMDL
MODEL 7
REMARK VINA RESULT:      -7.7      1.940      2.926
REMARK  6 active torsions:
REMARK  status: ('A' for Active; 'I' for Inactive)
REMARK    1  A    between atoms: C5_5  and  C6_6 
REMARK    2  A    between atoms: C6_6  and  N1_7 
REMARK    3  A    between atoms: N1_7  and  C7_8 
REMARK    4  A    between atoms: C11_15  and  C12_16 
REMARK    5  A    between atoms: C12_16  and  N5_17 
REMARK    6  A    between atoms: C15_20  and  N6_21 
ROOT
HETATM    1  C7  UNL     1      23.375   2.493  49.588  1.00  0.00     0.154 A 
HETATM    2  N2  UNL     1      22.792   2.689  48.389  1.00  0.00    -0.221 NA
HETATM    3  C8  UNL     1      21.633   2.095  48.065  1.00  0.00     0.258 A 
HETATM    4  N3  UNL     1      21.043   1.287  48.960  1.00  0.00    -0.161 NA
HETATM    5  N4  UNL     1      21.644   1.107  50.148  1.00  0.00    -0.240 N 
HETATM    6  C9  UNL     1      21.136   0.320  51.113  1.00  0.00     0.119 A 
HETATM    7  C10 UNL     1      22.060   0.431  52.131  1.00  0.00     0.030 A 
HETATM    8  C11 UNL     1      23.104   1.275  51.777  1.00  0.00     0.004 A 
HETATM    9  C18 UNL     1      22.785   1.670  50.515  1.00  0.00     0.111 A 
ENDROOT
BRANCH   1  10
HETATM   10  N1  UNL     1      24.608   3.155  49.855  1.00  0.00    -0.367 N 
HETATM   11  H8  UNL     1      25.577   2.881  50.054  1.00  0.00     0.161 HD
BRANCH  10  12
HETATM   12  C6  UNL     1      24.604   4.604  49.870  1.00  0.00     0.177 C 
BRANCH  12  13
HETATM   13  C5  UNL     1      25.733   5.258  49.220  1.00  0.00     0.023 A 
HETATM   14  C4  UNL     1      25.629   6.460  48.666  1.00  0.00     0.026 A 
HETATM   15  C3  UNL     1      26.759   7.115  48.015  1.00  0.00     0.006 A 
HETATM   16  C2  UNL     1      27.910   6.456  47.996  1.00  0.00    -0.066 A 
HETATM   17  C1  UNL     1      29.058   7.105  47.342  1.00  0.00     0.045 C 
HETATM   18  C19 UNL     1      28.153   5.104  48.581  1.00  0.00     0.153 A 
HETATM   19  N7  UNL     1      26.970   4.548  49.202  1.00  0.00    -0.388 N 
HETATM   20  H25 UNL     1      27.141   3.606  49.611  1.00  0.00     0.159 HD
ENDBRANCH  12  13
ENDBRANCH  10  12
ENDBRANCH   1  10
BRANCH   8  21
HETATM   21  C12 UNL     1      24.262   1.639  52.588  1.00  0.00     0.313 C 
BRANCH  21  22
HETATM   22  N5  UNL     1      25.421   0.792  52.263  1.00  0.00     0.092 N 
HETATM   23  C13 UNL     1      25.350  -0.433  52.977  1.00  0.00     0.275 C 
HETATM   24  C14 UNL     1      26.745  -0.852  53.379  1.00  0.00     0.065 C 
HETATM   25  C15 UNL     1      27.157   0.187  54.425  1.00  0.00     0.221 C 
HETATM   26  C16 UNL     1      27.166   1.567  53.816  1.00  0.00     0.065 C 
HETATM   27  C17 UNL     1      26.584   1.587  52.428  1.00  0.00     0.275 C 
BRANCH  25  28
HETATM   28  N6  UNL     1      28.471  -0.174  54.900  1.00  0.00     0.083 N 
HETATM   29  H19 UNL     1      28.784  -1.079  54.463  1.00  0.00     0.313 HD
HETATM   30  H20 UNL     1      28.388  -0.367  55.932  1.00  0.00     0.313 HD
ENDBRANCH  25  28
ENDBRANCH  21  22
ENDBRANCH   8  21
TORSDOF 6
ENDMDL
MODEL 8
REMARK VINA RESULT:      -7.6      2.943      6.121
REMARK  6 active torsions:
REMARK  status: ('A' for Active; 'I' for Inactive)
REMARK    1  A    between atoms: C5_5  and  C6_6 
REMARK    2  A    between atoms: C6_6  and  N1_7 
REMARK    3  A    between atoms: N1_7  and  C7_8 
REMARK    4  A    between atoms: C11_15  and  C12_16 
REMARK    5  A    between atoms: C12_16  and  N5_17 
REMARK    6  A    between atoms: C15_20  and  N6_21 
ROOT
HETATM    1  C7  UNL     1      22.861   0.194  53.401  1.00  0.00     0.154 A 
HETATM    2  N2  UNL     1      23.350  -0.661  54.321  1.00  0.00    -0.221 NA
HETATM    3  C8  UNL     1      22.553  -1.518  54.978  1.00  0.00     0.258 A 
HETATM    4  N3  UNL     1      21.238  -1.520  54.710  1.00  0.00    -0.161 NA
HETATM    5  N4  UNL     1      20.774  -0.659  53.790  1.00  0.00    -0.240 N 
HETATM    6  C9  UNL     1      19.477  -0.582  53.448  1.00  0.00     0.119 A 
HETATM    7  C10 UNL     1      19.459   0.412  52.491  1.00  0.00     0.030 A 
HETATM    8  C11 UNL     1      20.732   0.920  52.266  1.00  0.00     0.004 A 
HETATM    9  C18 UNL     1      21.518   0.205  53.115  1.00  0.00     0.111 A 
ENDROOT
BRANCH   1  10
HETATM   10  N1  UNL     1      23.770   1.077  52.750  1.00  0.00    -0.367 N 
HETATM   11  H8  UNL     1      23.899   1.456  51.804  1.00  0.00     0.161 HD
BRANCH  10  12
HETATM   12  C6  UNL     1      24.837   1.650  53.546  1.00  0.00     0.177 C 
BRANCH  12  13
HETATM   13  C5  UNL     1      26.095   0.914  53.561  1.00  0.00     0.023 A 
HETATM   14  C4  UNL     1      26.464   0.125  52.560  1.00  0.00     0.026 A 
HETATM   15  C3  UNL     1      27.724  -0.612  52.576  1.00  0.00     0.006 A 
HETATM   16  C2  UNL     1      28.497  -0.462  53.642  1.00  0.00    -0.066 A 
HETATM   17  C1  UNL     1      29.771  -1.200  53.671  1.00  0.00     0.045 C 
HETATM   18  C19 UNL     1      28.195   0.392  54.829  1.00  0.00     0.153 A 
HETATM   19  N7  UNL     1      26.927   1.077  54.709  1.00  0.00    -0.388 N 
HETATM   20  H25 UNL     1      26.717   1.674  55.536  1.00  0.00     0.159 HD
ENDBRANCH  12  13
ENDBRANCH  10  12
ENDBRANCH   1  10
BRANCH   8  21
HETATM   21  C12 UNL     1      21.111   1.974  51.331  1.00  0.00     0.313 C 
BRANCH  21  22
HETATM   22  N5  UNL     1      21.420   1.416  50.004  1.00  0.00     0.092 N 
HETATM   23  C13 UNL     1      22.606   2.003  49.489  1.00  0.00     0.275 C 
HETATM   24  C14 UNL     1      22.462   2.176  47.995  1.00  0.00     0.065 C 
HETATM   25  C15 UNL     1      21.393   3.262  47.849  1.00  0.00     0.221 C 
HETATM   26  C16 UNL     1      20.094   2.802  48.463  1.00  0.00     0.065 C 
HETATM   27  C17 UNL     1      20.242   1.511  49.221  1.00  0.00     0.275 C 
BRANCH  25  28
HETATM   28  N6  UNL     1      21.231   3.523  46.439  1.00  0.00     0.083 N 
HETATM   29  H19 UNL     1      22.050   3.142  45.898  1.00  0.00     0.313 HD
HETATM   30  H20 UNL     1      21.262   4.567  46.309  1.00  0.00     0.313 HD
ENDBRANCH  25  28
ENDBRANCH  21  22
ENDBRANCH   8  21
TORSDOF 6
ENDMDL
MODEL 9
REMARK VINA RESULT:      -7.5      1.928      5.853
REMARK  6 active torsions:
REMARK  status: ('A' for Active; 'I' for Inactive)
REMARK    1  A    between atoms: C5_5  and  C6_6 
REMARK    2  A    between atoms: C6_6  and  N1_7 
REMARK    3  A    between atoms: N1_7  and  C7_8 
REMARK    4  A    between atoms: C11_15  and  C12_16 
REMARK    5  A    between atoms: C12_16  and  N5_17 
REMARK    6  A    between atoms: C15_20  and  N6_21 
ROOT
HETATM    1  C7  UNL     1      23.926   4.552  51.214  1.00  0.00     0.154 A 
HETATM    2  N2  UNL     1      24.351   5.830  51.145  1.00  0.00    -0.221 NA
HETATM    3  C8  UNL     1      23.642   6.773  50.506  1.00  0.00     0.258 A 
HETATM    4  N3  UNL     1      22.484   6.432  49.921  1.00  0.00    -0.161 NA
HETATM    5  N4  UNL     1      22.081   5.153  50.002  1.00  0.00    -0.240 N 
HETATM    6  C9  UNL     1      20.938   4.709  49.453  1.00  0.00     0.119 A 
HETATM    7  C10 UNL     1      20.929   3.368  49.777  1.00  0.00     0.030 A 
HETATM    8  C11 UNL     1      22.055   3.019  50.511  1.00  0.00     0.004 A 
HETATM    9  C18 UNL     1      22.744   4.187  50.621  1.00  0.00     0.111 A 
ENDROOT
BRANCH   1  10
HETATM   10  N1  UNL     1      24.738   3.608  51.906  1.00  0.00    -0.367 N 
HETATM   11  H8  UNL     1      24.804   3.235  52.860  1.00  0.00     0.161 HD
BRANCH  10  12
HETATM   12  C6  UNL     1      25.779   2.936  51.154  1.00  0.00     0.177 C 
BRANCH  12  13
HETATM   13  C5  UNL     1      26.655   2.053  51.915  1.00  0.00     0.023 A 
HETATM   14  C4  UNL     1      26.520   0.733  51.889  1.00  0.00     0.026 A 
HETATM   15  C3  UNL     1      27.397  -0.152  52.650  1.00  0.00     0.006 A 
HETATM   16  C2  UNL     1      28.345   0.420  53.379  1.00  0.00    -0.066 A 
HETATM   17  C1  UNL     1      29.236  -0.461  54.153  1.00  0.00     0.045 C 
HETATM   18  C19 UNL     1      28.597   1.888  53.492  1.00  0.00     0.153 A 
HETATM   19  N7  UNL     1      27.675   2.670  52.698  1.00  0.00    -0.388 N 
HETATM   20  H25 UNL     1      27.852   3.693  52.775  1.00  0.00     0.159 HD
ENDBRANCH  12  13
ENDBRANCH  10  12
ENDBRANCH   1  10
BRANCH   8  21
HETATM   21  C12 UNL     1      22.396   1.700  51.034  1.00  0.00     0.313 C 
BRANCH  21  22
HETATM   22  N5  UNL     1      22.138   1.622  52.481  1.00  0.00     0.092 N 
HETATM   23  C13 UNL     1      22.952   0.619  53.072  1.00  0.00     0.275 C 
HETATM   24  C14 UNL     1      22.171  -0.067  54.168  1.00  0.00     0.065 C 
HETATM   25  C15 UNL     1      21.081  -0.839  53.419  1.00  0.00     0.221 C 
HETATM   26  C16 UNL     1      20.200   0.114  52.650  1.00  0.00     0.065 C 
HETATM   27  C17 UNL     1      20.734   1.521  52.655  1.00  0.00     0.275 C 
BRANCH  25  28
HETATM   28  N6  UNL     1      20.315  -1.568  54.401  1.00  0.00     0.083 N 
HETATM   29  H19 UNL     1      20.953  -2.015  55.109  1.00  0.00     0.313 HD
HETATM   30  H20 UNL     1      19.841  -2.364  53.900  1.00  0.00     0.313 HD
ENDBRANCH  25  28
ENDBRANCH  21  22
ENDBRANCH   8  21
TORSDOF 6
ENDMDL
