MODEL 1
REMARK VINA RESULT:      -7.5      0.000      0.000
REMARK  6 active torsions:
REMARK  status: ('A' for Active; 'I' for Inactive)
REMARK    1  A    between atoms: O1_2  and  C2_3 
REMARK    2  A    between atoms: C5_6  and  N1_7 
REMARK    3  A    between atoms: N1_7  and  C6_8 
REMARK    4  A    between atoms: C6_8  and  C7_9 
REMARK    5  A    between atoms: C9_12  and  N2_13 
REMARK    6  A    between atoms: N2_13  and  C10_14 
ROOT
HETATM    1  C2  UNL     1      24.513   2.937  51.292  1.00  0.00     0.095 A 
HETATM    2  C3  UNL     1      23.380   2.668  50.566  1.00  0.00     0.041 A 
HETATM    3  C4  UNL     1      22.344   1.929  51.081  1.00  0.00     0.032 A 
HETATM    4  C5  UNL     1      22.484   1.464  52.370  1.00  0.00     0.034 A 
HETATM    5  C8  UNL     1      23.632   1.749  53.077  1.00  0.00     0.062 A 
HETATM    6  C9  UNL     1      24.686   2.485  52.585  1.00  0.00     0.085 A 
ENDROOT
BRANCH   6   7
HETATM    7  N2  UNL     1      25.839   2.743  53.371  1.00  0.00    -0.184 N 
HETATM    8  H9  UNL     1      25.741   3.670  53.886  1.00  0.00     0.184 HD
BRANCH   7   9
HETATM    9  C10 UNL     1      27.022   2.001  53.560  1.00  0.00     0.744 A 
HETATM   10  N3  UNL     1      28.157   2.502  54.063  1.00  0.00    -0.071 NA
HETATM   11  C11 UNL     1      29.254   1.767  54.221  1.00  0.00     0.168 A 
HETATM   12  C12 UNL     1      29.222   0.444  53.854  1.00  0.00     0.076 A 
HETATM   13  C13 UNL     1      30.166  -0.559  53.889  1.00  0.00     0.034 A 
HETATM   14  N4  UNL     1      28.079  -0.029  53.355  1.00  0.00    -0.228 N 
HETATM   15  C14 UNL     1      29.518  -1.683  53.376  1.00  0.00     0.022 A 
HETATM   16  C15 UNL     1      28.227  -1.340  53.049  1.00  0.00     0.119 A 
HETATM   17  N5  UNL     1      27.012   0.708  53.207  1.00  0.00     0.026 NA
ENDBRANCH   7   9
ENDBRANCH   6   7
BRANCH   1  18
HETATM   18  O1  UNL     1      25.528   3.682  50.728  1.00  0.00    -0.354 OA
HETATM   19  C1  UNL     1      26.419   3.108  49.806  1.00  0.00     0.210 C 
ENDBRANCH   1  18
BRANCH   4  20
HETATM   20  N1  UNL     1      21.390   0.708  52.869  1.00  0.00    -0.362 N 
HETATM   21  H6  UNL     1      20.660   0.452  52.139  1.00  0.00     0.165 HD
BRANCH  20  22
HETATM   22  C6  UNL     1      20.879   0.130  54.073  1.00  0.00     0.147 C 
BRANCH  22  23
HETATM   23  C7  UNL     1      21.507  -0.959  54.485  1.00  0.00     0.238 C 
HETATM   24  O2  UNL     1      22.084  -1.716  55.308  1.00  0.00    -0.283 OA
ENDBRANCH  22  23
ENDBRANCH  20  22
ENDBRANCH   4  20
TORSDOF 6
ENDMDL
MODEL 2
REMARK VINA RESULT:      -7.0      2.784      5.933
REMARK  6 active torsions:
REMARK  status: ('A' for Active; 'I' for Inactive)
REMARK    1  A    between atoms: O1_2  and  C2_3 
REMARK    2  A    between atoms: C5_6  and  N1_7 
REMARK    3  A    between atoms: N1_7  and  C6_8 
REMARK    4  A    between atoms: C6_8  and  C7_9 
REMARK    5  A    between atoms: C9_12  and  N2_13 
REMARK    6  A    between atoms: N2_13  and  C10_14 
ROOT
HETATM    1  C2  UNL     1      23.584   0.567  53.058  1.00  0.00     0.095 A 
HETATM    2  C3  UNL     1      24.120  -0.556  53.637  1.00  0.00     0.041 A 
HETATM    3  C4  UNL     1      25.350  -0.544  54.246  1.00  0.00     0.032 A 
HETATM    4  C5  UNL     1      26.035   0.650  54.253  1.00  0.00     0.034 A 
HETATM    5  C8  UNL     1      25.475   1.763  53.664  1.00  0.00     0.062 A 
HETATM    6  C9  UNL     1      24.244   1.779  53.048  1.00  0.00     0.085 A 
ENDROOT
BRANCH   6   7
HETATM    7  N2  UNL     1      23.725   2.964  52.462  1.00  0.00    -0.184 N 
HETATM    8  H9  UNL     1      22.712   3.112  52.753  1.00  0.00     0.184 HD
BRANCH   7   9
HETATM    9  C10 UNL     1      24.315   3.914  51.606  1.00  0.00     0.744 A 
HETATM   10  N3  UNL     1      23.905   5.182  51.487  1.00  0.00    -0.071 NA
HETATM   11  C11 UNL     1      24.487   6.048  50.662  1.00  0.00     0.168 A 
HETATM   12  C12 UNL     1      25.551   5.624  49.903  1.00  0.00     0.076 A 
HETATM   13  C13 UNL     1      26.350   6.258  48.977  1.00  0.00     0.034 A 
HETATM   14  N4  UNL     1      25.940   4.355  50.041  1.00  0.00    -0.228 N 
HETATM   15  C14 UNL     1      27.258   5.286  48.558  1.00  0.00     0.022 A 
HETATM   16  C15 UNL     1      26.992   4.113  49.224  1.00  0.00     0.119 A 
HETATM   17  N5  UNL     1      25.354   3.521  50.856  1.00  0.00     0.026 NA
ENDBRANCH   7   9
ENDBRANCH   6   7
BRANCH   1  18
HETATM   18  O1  UNL     1      22.344   0.503  52.457  1.00  0.00    -0.354 OA
HETATM   19  C1  UNL     1      21.168   0.674  53.207  1.00  0.00     0.210 C 
ENDBRANCH   1  18
BRANCH   4  20
HETATM   20  N1  UNL     1      27.302   0.623  54.896  1.00  0.00    -0.362 N 
HETATM   21  H6  UNL     1      27.269   0.788  55.945  1.00  0.00     0.165 HD
BRANCH  20  22
HETATM   22  C6  UNL     1      28.695   0.444  54.626  1.00  0.00     0.147 C 
BRANCH  22  23
HETATM   23  C7  UNL     1      28.997  -0.620  53.901  1.00  0.00     0.238 C 
HETATM   24  O2  UNL     1      29.070  -1.846  53.627  1.00  0.00    -0.283 OA
ENDBRANCH  22  23
ENDBRANCH  20  22
ENDBRANCH   4  20
TORSDOF 6
ENDMDL
MODEL 3
REMARK VINA RESULT:      -7.0      3.473      6.353
REMARK  6 active torsions:
REMARK  status: ('A' for Active; 'I' for Inactive)
REMARK    1  A    between atoms: O1_2  and  C2_3 
REMARK    2  A    between atoms: C5_6  and  N1_7 
REMARK    3  A    between atoms: N1_7  and  C6_8 
REMARK    4  A    between atoms: C6_8  and  C7_9 
REMARK    5  A    between atoms: C9_12  and  N2_13 
REMARK    6  A    between atoms: N2_13  and  C10_14 
ROOT
HETATM    1  C2  UNL     1      24.625   2.887  51.843  1.00  0.00     0.095 A 
HETATM    2  C3  UNL     1      24.568   2.267  53.066  1.00  0.00     0.041 A 
HETATM    3  C4  UNL     1      25.520   1.363  53.469  1.00  0.00     0.032 A 
HETATM    4  C5  UNL     1      26.547   1.100  52.591  1.00  0.00     0.034 A 
HETATM    5  C8  UNL     1      26.581   1.737  51.369  1.00  0.00     0.062 A 
HETATM    6  C9  UNL     1      25.640   2.646  50.940  1.00  0.00     0.085 A 
ENDROOT
BRANCH   6   7
HETATM    7  N2  UNL     1      25.738   3.267  49.667  1.00  0.00    -0.184 N 
HETATM    8  H9  UNL     1      25.219   2.696  48.932  1.00  0.00     0.184 HD
BRANCH   7   9
HETATM    9  C10 UNL     1      26.378   4.452  49.257  1.00  0.00     0.744 A 
HETATM   10  N3  UNL     1      25.799   5.659  49.243  1.00  0.00    -0.071 NA
HETATM   11  C11 UNL     1      26.439   6.754  48.843  1.00  0.00     0.168 A 
HETATM   12  C12 UNL     1      27.745   6.643  48.429  1.00  0.00     0.076 A 
HETATM   13  C13 UNL     1      28.660   7.564  47.967  1.00  0.00     0.034 A 
HETATM   14  N4  UNL     1      28.297   5.430  48.453  1.00  0.00    -0.228 N 
HETATM   15  C14 UNL     1      29.815   6.825  47.711  1.00  0.00     0.022 A 
HETATM   16  C15 UNL     1      29.576   5.506  48.016  1.00  0.00     0.119 A 
HETATM   17  N5  UNL     1      27.652   4.366  48.848  1.00  0.00     0.026 NA
ENDBRANCH   7   9
ENDBRANCH   6   7
BRANCH   1  18
HETATM   18  O1  UNL     1      23.642   3.786  51.485  1.00  0.00    -0.354 OA
HETATM   19  C1  UNL     1      23.547   5.040  52.111  1.00  0.00     0.210 C 
ENDBRANCH   1  18
BRANCH   4  20
HETATM   20  N1  UNL     1      27.514   0.164  53.045  1.00  0.00    -0.362 N 
HETATM   21  H6  UNL     1      27.253  -0.854  52.886  1.00  0.00     0.165 HD
BRANCH  20  22
HETATM   22  C6  UNL     1      28.794   0.088  53.679  1.00  0.00     0.147 C 
BRANCH  22  23
HETATM   23  C7  UNL     1      29.230   1.220  54.205  1.00  0.00     0.238 C 
HETATM   24  O2  UNL     1      29.142   2.389  54.662  1.00  0.00    -0.283 OA
ENDBRANCH  22  23
ENDBRANCH  20  22
ENDBRANCH   4  20
TORSDOF 6
ENDMDL
MODEL 4
REMARK VINA RESULT:      -6.9      1.944      2.065
REMARK  6 active torsions:
REMARK  status: ('A' for Active; 'I' for Inactive)
REMARK    1  A    between atoms: O1_2  and  C2_3 
REMARK    2  A    between atoms: C5_6  and  N1_7 
REMARK    3  A    between atoms: N1_7  and  C6_8 
REMARK    4  A    between atoms: C6_8  and  C7_9 
REMARK    5  A    between atoms: C9_12  and  N2_13 
REMARK    6  A    between atoms: N2_13  and  C10_14 
ROOT
HETATM    1  C2  UNL     1      24.806   2.816  51.050  1.00  0.00     0.095 A 
HETATM    2  C3  UNL     1      23.740   2.700  50.194  1.00  0.00     0.041 A 
HETATM    3  C4  UNL     1      22.487   2.352  50.635  1.00  0.00     0.032 A 
HETATM    4  C5  UNL     1      22.338   2.123  51.984  1.00  0.00     0.034 A 
HETATM    5  C8  UNL     1      23.424   2.247  52.823  1.00  0.00     0.062 A 
HETATM    6  C9  UNL     1      24.690   2.594  52.408  1.00  0.00     0.085 A 
ENDROOT
BRANCH   6   7
HETATM    7  N2  UNL     1      25.765   2.706  53.328  1.00  0.00    -0.184 N 
HETATM    8  H9  UNL     1      25.623   3.544  53.969  1.00  0.00     0.184 HD
BRANCH   7   9
HETATM    9  C10 UNL     1      26.922   1.922  53.507  1.00  0.00     0.744 A 
HETATM   10  N3  UNL     1      28.078   2.382  54.001  1.00  0.00    -0.071 NA
HETATM   11  C11 UNL     1      29.150   1.609  54.151  1.00  0.00     0.168 A 
HETATM   12  C12 UNL     1      29.067   0.287  53.785  1.00  0.00     0.076 A 
HETATM   13  C13 UNL     1      29.975  -0.749  53.814  1.00  0.00     0.034 A 
HETATM   14  N4  UNL     1      27.904  -0.145  53.296  1.00  0.00    -0.228 N 
HETATM   15  C14 UNL     1      29.283  -1.849  53.307  1.00  0.00     0.022 A 
HETATM   16  C15 UNL     1      28.003  -1.461  52.990  1.00  0.00     0.119 A 
HETATM   17  N5  UNL     1      26.864   0.630  53.156  1.00  0.00     0.026 NA
ENDBRANCH   7   9
ENDBRANCH   6   7
BRANCH   1  18
HETATM   18  O1  UNL     1      26.046   3.166  50.558  1.00  0.00    -0.354 OA
HETATM   19  C1  UNL     1      26.192   4.246  49.670  1.00  0.00     0.210 C 
ENDBRANCH   1  18
BRANCH   4  20
HETATM   20  N1  UNL     1      21.026   1.770  52.402  1.00  0.00    -0.362 N 
HETATM   21  H6  UNL     1      20.923   1.615  53.448  1.00  0.00     0.165 HD
BRANCH  20  22
HETATM   22  C6  UNL     1      19.711   1.533  51.894  1.00  0.00     0.147 C 
BRANCH  22  23
HETATM   23  C7  UNL     1      18.966   2.614  51.729  1.00  0.00     0.238 C 
HETATM   24  O2  UNL     1      18.373   3.668  52.073  1.00  0.00    -0.283 OA
ENDBRANCH  22  23
ENDBRANCH  20  22
ENDBRANCH   4  20
TORSDOF 6
ENDMDL
MODEL 5
REMARK VINA RESULT:      -6.8      1.767      4.237
REMARK  6 active torsions:
REMARK  status: ('A' for Active; 'I' for Inactive)
REMARK    1  A    between atoms: O1_2  and  C2_3 
REMARK    2  A    between atoms: C5_6  and  N1_7 
REMARK    3  A    between atoms: N1_7  and  C6_8 
REMARK    4  A    between atoms: C6_8  and  C7_9 
REMARK    5  A    between atoms: C9_12  and  N2_13 
REMARK    6  A    between atoms: N2_13  and  C10_14 
ROOT
HETATM    1  C2  UNL     1      23.563   1.612  52.382  1.00  0.00     0.095 A 
HETATM    2  C3  UNL     1      22.640   1.616  51.366  1.00  0.00     0.041 A 
HETATM    3  C4  UNL     1      22.719   2.494  50.314  1.00  0.00     0.032 A 
HETATM    4  C5  UNL     1      23.772   3.382  50.316  1.00  0.00     0.034 A 
HETATM    5  C8  UNL     1      24.685   3.357  51.348  1.00  0.00     0.062 A 
HETATM    6  C9  UNL     1      24.630   2.488  52.414  1.00  0.00     0.085 A 
ENDROOT
BRANCH   6   7
HETATM    7  N2  UNL     1      25.606   2.515  53.443  1.00  0.00    -0.184 N 
HETATM    8  H9  UNL     1      25.309   3.177  54.223  1.00  0.00     0.184 HD
BRANCH   7   9
HETATM    9  C10 UNL     1      26.835   1.840  53.579  1.00  0.00     0.744 A 
HETATM   10  N3  UNL     1      27.969   2.410  54.004  1.00  0.00    -0.071 NA
HETATM   11  C11 UNL     1      29.111   1.737  54.114  1.00  0.00     0.168 A 
HETATM   12  C12 UNL     1      29.126   0.404  53.779  1.00  0.00     0.076 A 
HETATM   13  C13 UNL     1      30.123  -0.548  53.781  1.00  0.00     0.034 A 
HETATM   14  N4  UNL     1      27.983  -0.139  53.358  1.00  0.00    -0.228 N 
HETATM   15  C14 UNL     1      29.506  -1.716  53.332  1.00  0.00     0.022 A 
HETATM   16  C15 UNL     1      28.182  -1.448  53.074  1.00  0.00     0.119 A 
HETATM   17  N5  UNL     1      26.873   0.539  53.256  1.00  0.00     0.026 NA
ENDBRANCH   7   9
ENDBRANCH   6   7
BRANCH   1  18
HETATM   18  O1  UNL     1      23.439   0.709  53.418  1.00  0.00    -0.354 OA
HETATM   19  C1  UNL     1      22.366  -0.198  53.460  1.00  0.00     0.210 C 
ENDBRANCH   1  18
BRANCH   4  20
HETATM   20  N1  UNL     1      23.822   4.272  49.209  1.00  0.00    -0.362 N 
HETATM   21  H6  UNL     1      23.388   3.892  48.317  1.00  0.00     0.165 HD
BRANCH  20  22
HETATM   22  C6  UNL     1      24.272   5.577  48.836  1.00  0.00     0.147 C 
BRANCH  22  23
HETATM   23  C7  UNL     1      25.585   5.731  48.800  1.00  0.00     0.238 C 
HETATM   24  O2  UNL     1      26.787   5.368  48.720  1.00  0.00    -0.283 OA
ENDBRANCH  22  23
ENDBRANCH  20  22
ENDBRANCH   4  20
TORSDOF 6
ENDMDL
MODEL 6
REMARK VINA RESULT:      -6.7      2.799      6.869
REMARK  6 active torsions:
REMARK  status: ('A' for Active; 'I' for Inactive)
REMARK    1  A    between atoms: O1_2  and  C2_3 
REMARK    2  A    between atoms: C5_6  and  N1_7 
REMARK    3  A    between atoms: N1_7  and  C6_8 
REMARK    4  A    between atoms: C6_8  and  C7_9 
REMARK    5  A    between atoms: C9_12  and  N2_13 
REMARK    6  A    between atoms: N2_13  and  C10_14 
ROOT
HETATM    1  C2  UNL     1      23.243  -0.163  53.605  1.00  0.00     0.095 A 
HETATM    2  C3  UNL     1      23.658  -0.893  54.690  1.00  0.00     0.041 A 
HETATM    3  C4  UNL     1      24.965  -0.892  55.111  1.00  0.00     0.032 A 
HETATM    4  C5  UNL     1      25.854  -0.120  54.396  1.00  0.00     0.034 A 
HETATM    5  C8  UNL     1      25.410   0.604  53.311  1.00  0.00     0.062 A 
HETATM    6  C9  UNL     1      24.107   0.620  52.867  1.00  0.00     0.085 A 
ENDROOT
BRANCH   6   7
HETATM    7  N2  UNL     1      23.718   1.391  51.741  1.00  0.00    -0.184 N 
HETATM    8  H9  UNL     1      23.909   0.858  50.839  1.00  0.00     0.184 HD
BRANCH   7   9
HETATM    9  C10 UNL     1      23.154   2.678  51.644  1.00  0.00     0.744 A 
HETATM   10  N3  UNL     1      21.868   2.959  51.887  1.00  0.00    -0.071 NA
HETATM   11  C11 UNL     1      21.373   4.190  51.779  1.00  0.00     0.168 A 
HETATM   12  C12 UNL     1      22.214   5.210  51.405  1.00  0.00     0.076 A 
HETATM   13  C13 UNL     1      22.015   6.559  51.208  1.00  0.00     0.034 A 
HETATM   14  N4  UNL     1      23.489   4.901  51.169  1.00  0.00    -0.228 N 
HETATM   15  C14 UNL     1      23.264   7.056  50.834  1.00  0.00     0.022 A 
HETATM   16  C15 UNL     1      24.167   6.019  50.814  1.00  0.00     0.119 A 
HETATM   17  N5  UNL     1      23.956   3.688  51.279  1.00  0.00     0.026 NA
ENDBRANCH   7   9
ENDBRANCH   6   7
BRANCH   1  18
HETATM   18  O1  UNL     1      21.918  -0.200  53.221  1.00  0.00    -0.354 OA
HETATM   19  C1  UNL     1      20.901   0.225  54.093  1.00  0.00     0.210 C 
ENDBRANCH   1  18
BRANCH   4  20
HETATM   20  N1  UNL     1      27.195  -0.141  54.865  1.00  0.00    -0.362 N 
HETATM   21  H6  UNL     1      27.294  -0.281  55.914  1.00  0.00     0.165 HD
BRANCH  20  22
HETATM   22  C6  UNL     1      28.546  -0.035  54.409  1.00  0.00     0.147 C 
BRANCH  22  23
HETATM   23  C7  UNL     1      28.998   1.199  54.268  1.00  0.00     0.238 C 
HETATM   24  O2  UNL     1      29.045   2.440  54.468  1.00  0.00    -0.283 OA
ENDBRANCH  22  23
ENDBRANCH  20  22
ENDBRANCH   4  20
TORSDOF 6
ENDMDL
MODEL 7
REMARK VINA RESULT:      -6.7      3.042      5.548
REMARK  6 active torsions:
REMARK  status: ('A' for Active; 'I' for Inactive)
REMARK    1  A    between atoms: O1_2  and  C2_3 
REMARK    2  A    between atoms: C5_6  and  N1_7 
REMARK    3  A    between atoms: N1_7  and  C6_8 
REMARK    4  A    between atoms: C6_8  and  C7_9 
REMARK    5  A    between atoms: C9_12  and  N2_13 
REMARK    6  A    between atoms: N2_13  and  C10_14 
ROOT
HETATM    1  C2  UNL     1      26.777   1.966  52.550  1.00  0.00     0.095 A 
HETATM    2  C3  UNL     1      26.279   1.455  53.722  1.00  0.00     0.041 A 
HETATM    3  C4  UNL     1      24.994   0.983  53.822  1.00  0.00     0.032 A 
HETATM    4  C5  UNL     1      24.214   1.041  52.689  1.00  0.00     0.034 A 
HETATM    5  C8  UNL     1      24.739   1.559  51.524  1.00  0.00     0.062 A 
HETATM    6  C9  UNL     1      26.023   2.039  51.397  1.00  0.00     0.085 A 
ENDROOT
BRANCH   6   7
HETATM    7  N2  UNL     1      26.500   2.558  50.165  1.00  0.00    -0.184 N 
HETATM    8  H9  UNL     1      26.958   1.789  49.588  1.00  0.00     0.184 HD
BRANCH   7   9
HETATM    9  C10 UNL     1      26.460   3.858  49.624  1.00  0.00     0.744 A 
HETATM   10  N3  UNL     1      25.376   4.642  49.619  1.00  0.00    -0.071 NA
HETATM   11  C11 UNL     1      25.380   5.864  49.093  1.00  0.00     0.168 A 
HETATM   12  C12 UNL     1      26.542   6.340  48.535  1.00  0.00     0.076 A 
HETATM   13  C13 UNL     1      26.865   7.532  47.925  1.00  0.00     0.034 A 
HETATM   14  N4  UNL     1      27.607   5.538  48.554  1.00  0.00    -0.228 N 
HETATM   15  C14 UNL     1      28.208   7.403  47.571  1.00  0.00     0.022 A 
HETATM   16  C15 UNL     1      28.654   6.164  47.966  1.00  0.00     0.119 A 
HETATM   17  N5  UNL     1      27.583   4.341  49.074  1.00  0.00     0.026 NA
ENDBRANCH   7   9
ENDBRANCH   6   7
BRANCH   1  18
HETATM   18  O1  UNL     1      28.076   2.430  52.502  1.00  0.00    -0.354 OA
HETATM   19  C1  UNL     1      28.862   2.498  53.665  1.00  0.00     0.210 C 
ENDBRANCH   1  18
BRANCH   4  20
HETATM   20  N1  UNL     1      22.893   0.539  52.830  1.00  0.00    -0.362 N 
HETATM   21  H6  UNL     1      22.468   0.154  51.935  1.00  0.00     0.165 HD
BRANCH  20  22
HETATM   22  C6  UNL     1      21.860   0.352  53.802  1.00  0.00     0.147 C 
BRANCH  22  23
HETATM   23  C7  UNL     1      21.909  -0.791  54.464  1.00  0.00     0.238 C 
HETATM   24  O2  UNL     1      21.450  -1.808  55.045  1.00  0.00    -0.283 OA
ENDBRANCH  22  23
ENDBRANCH  20  22
ENDBRANCH   4  20
TORSDOF 6
ENDMDL
MODEL 8
REMARK VINA RESULT:      -6.7      1.856      4.290
REMARK  6 active torsions:
REMARK  status: ('A' for Active; 'I' for Inactive)
REMARK    1  A    between atoms: O1_2  and  C2_3 
REMARK    2  A    between atoms: C5_6  and  N1_7 
REMARK    3  A    between atoms: N1_7  and  C6_8 
REMARK    4  A    between atoms: C6_8  and  C7_9 
REMARK    5  A    between atoms: C9_12  and  N2_13 
REMARK    6  A    between atoms: N2_13  and  C10_14 
ROOT
HETATM    1  C2  UNL     1      22.239   0.124  52.486  1.00  0.00     0.095 A 
HETATM    2  C3  UNL     1      21.220   0.169  51.568  1.00  0.00     0.041 A 
HETATM    3  C4  UNL     1      21.293   0.945  50.437  1.00  0.00     0.032 A 
HETATM    4  C5  UNL     1      22.440   1.684  50.256  1.00  0.00     0.034 A 
HETATM    5  C8  UNL     1      23.449   1.621  51.193  1.00  0.00     0.062 A 
HETATM    6  C9  UNL     1      23.402   0.852  52.335  1.00  0.00     0.085 A 
ENDROOT
BRANCH   6   7
HETATM    7  N2  UNL     1      24.480   0.832  53.258  1.00  0.00    -0.184 N 
HETATM    8  H9  UNL     1      24.262   1.448  54.100  1.00  0.00     0.184 HD
BRANCH   7   9
HETATM    9  C10 UNL     1      25.718   0.162  53.229  1.00  0.00     0.744 A 
HETATM   10  N3  UNL     1      25.871  -1.131  52.919  1.00  0.00    -0.071 NA
HETATM   11  C11 UNL     1      27.060  -1.728  52.907  1.00  0.00     0.168 A 
HETATM   12  C12 UNL     1      28.174  -0.988  53.225  1.00  0.00     0.076 A 
HETATM   13  C13 UNL     1      29.513  -1.303  53.303  1.00  0.00     0.034 A 
HETATM   14  N4  UNL     1      27.993   0.297  53.530  1.00  0.00    -0.228 N 
HETATM   15  C14 UNL     1      30.141  -0.115  53.677  1.00  0.00     0.022 A 
HETATM   16  C15 UNL     1      29.188   0.867  53.814  1.00  0.00     0.119 A 
HETATM   17  N5  UNL     1      26.818   0.865  53.536  1.00  0.00     0.026 NA
ENDBRANCH   7   9
ENDBRANCH   6   7
BRANCH   1  18
HETATM   18  O1  UNL     1      22.117  -0.671  53.607  1.00  0.00    -0.354 OA
HETATM   19  C1  UNL     1      21.270  -0.301  54.665  1.00  0.00     0.210 C 
ENDBRANCH   1  18
BRANCH   4  20
HETATM   20  N1  UNL     1      22.479   2.471  49.074  1.00  0.00    -0.362 N 
HETATM   21  H6  UNL     1      22.135   1.972  48.200  1.00  0.00     0.165 HD
BRANCH  20  22
HETATM   22  C6  UNL     1      22.836   3.772  48.601  1.00  0.00     0.147 C 
BRANCH  22  23
HETATM   23  C7  UNL     1      22.587   4.764  49.439  1.00  0.00     0.238 C 
HETATM   24  O2  UNL     1      22.662   5.410  50.516  1.00  0.00    -0.283 OA
ENDBRANCH  22  23
ENDBRANCH  20  22
ENDBRANCH   4  20
TORSDOF 6
ENDMDL
MODEL 9
REMARK VINA RESULT:      -6.5      3.491      6.532
REMARK  6 active torsions:
REMARK  status: ('A' for Active; 'I' for Inactive)
REMARK    1  A    between atoms: O1_2  and  C2_3 
REMARK    2  A    between atoms: C5_6  and  N1_7 
REMARK    3  A    between atoms: N1_7  and  C6_8 
REMARK    4  A    between atoms: C6_8  and  C7_9 
REMARK    5  A    between atoms: C9_12  and  N2_13 
REMARK    6  A    between atoms: N2_13  and  C10_14 
ROOT
HETATM    1  C2  UNL     1      25.352   5.141  49.586  1.00  0.00     0.095 A 
HETATM    2  C3  UNL     1      25.582   6.407  49.109  1.00  0.00     0.041 A 
HETATM    3  C4  UNL     1      26.783   6.768  48.551  1.00  0.00     0.032 A 
HETATM    4  C5  UNL     1      27.760   5.800  48.485  1.00  0.00     0.034 A 
HETATM    5  C8  UNL     1      27.503   4.536  48.970  1.00  0.00     0.062 A 
HETATM    6  C9  UNL     1      26.309   4.148  49.535  1.00  0.00     0.085 A 
ENDROOT
BRANCH   6   7
HETATM    7  N2  UNL     1      26.112   2.827  50.014  1.00  0.00    -0.184 N 
HETATM    8  H9  UNL     1      25.643   2.226  49.270  1.00  0.00     0.184 HD
BRANCH   7   9
HETATM    9  C10 UNL     1      26.424   2.228  51.250  1.00  0.00     0.744 A 
HETATM   10  N3  UNL     1      27.530   2.487  51.958  1.00  0.00    -0.071 NA
HETATM   11  C11 UNL     1      27.789   1.896  53.121  1.00  0.00     0.168 A 
HETATM   12  C12 UNL     1      26.887   0.984  53.614  1.00  0.00     0.076 A 
HETATM   13  C13 UNL     1      26.864   0.219  54.760  1.00  0.00     0.034 A 
HETATM   14  N4  UNL     1      25.794   0.745  52.889  1.00  0.00    -0.228 N 
HETATM   15  C14 UNL     1      25.675  -0.507  54.684  1.00  0.00     0.022 A 
HETATM   16  C15 UNL     1      25.024  -0.172  53.521  1.00  0.00     0.119 A 
HETATM   17  N5  UNL     1      25.558   1.335  51.749  1.00  0.00     0.026 NA
ENDBRANCH   7   9
ENDBRANCH   6   7
BRANCH   1  18
HETATM   18  O1  UNL     1      24.128   4.829  50.140  1.00  0.00    -0.354 OA
HETATM   19  C1  UNL     1      23.586   5.605  51.179  1.00  0.00     0.210 C 
ENDBRANCH   1  18
BRANCH   4  20
HETATM   20  N1  UNL     1      28.987   6.210  47.897  1.00  0.00    -0.362 N 
HETATM   21  H6  UNL     1      29.117   5.904  46.887  1.00  0.00     0.165 HD
BRANCH  20  22
HETATM   22  C6  UNL     1      30.187   6.931  48.188  1.00  0.00     0.147 C 
BRANCH  22  23
HETATM   23  C7  UNL     1      31.184   6.200  48.658  1.00  0.00     0.238 C 
HETATM   24  O2  UNL     1      31.784   5.144  48.988  1.00  0.00    -0.283 OA
ENDBRANCH  22  23
ENDBRANCH  20  22
ENDBRANCH   4  20
TORSDOF 6
ENDMDL
