MODEL 1
REMARK VINA RESULT:      -8.3      0.000      0.000
REMARK  7 active torsions:
REMARK  status: ('A' for Active; 'I' for Inactive)
REMARK    1  A    between atoms: C4_6  and  C5_7 
REMARK    2  A    between atoms: C9_11  and  C10_12 
REMARK    3  A    between atoms: C10_12  and  N3_16 
REMARK    4  A    between atoms: N3_16  and  C14_18 
REMARK    5  A    between atoms: C15_20  and  C16_21 
REMARK    6  A    between atoms: C16_21  and  C17_22 
REMARK    7  A    between atoms: C17_22  and  N4_23 
ROOT
HETATM    1  C5  UNL     1      24.396   1.543  51.420  1.00  0.00     0.044 A 
HETATM    2  C6  UNL     1      23.085   1.391  51.528  1.00  0.00     0.027 A 
HETATM    3  C7  UNL     1      22.157   2.231  50.786  1.00  0.00     0.000 A 
HETATM    4  C8  UNL     1      22.748   3.132  50.020  1.00  0.00     0.004 A 
HETATM    5  C9  UNL     1      24.162   3.442  49.784  1.00  0.00     0.158 A 
HETATM    6  N5  UNL     1      24.987   2.517  50.571  1.00  0.00    -0.378 N 
HETATM    7  H27 UNL     1      26.026   2.560  50.520  1.00  0.00     0.160 HD
ENDROOT
BRANCH   5   8
HETATM    8  C10 UNL     1      24.450   4.841  50.164  1.00  0.00     0.074 C 
HETATM    9  C11 UNL     1      24.154   5.443  51.301  1.00  0.00     0.115 C 
HETATM   10  C12 UNL     1      23.474   4.915  52.488  1.00  0.00     0.084 C 
HETATM   11  F1  UNL     1      24.467   6.741  51.511  1.00  0.00    -0.209 F 
BRANCH   8  12
HETATM   12  N3  UNL     1      25.177   5.595  49.183  1.00  0.00    -0.333 N 
HETATM   13  C13 UNL     1      24.993   6.690  48.288  1.00  0.00     0.158 C 
BRANCH  12  14
HETATM   14  C14 UNL     1      26.546   5.200  48.957  1.00  0.00     0.151 A 
HETATM   15  O1  UNL     1      27.552   4.449  48.929  1.00  0.00    -0.323 OA
HETATM   16  C15 UNL     1      27.678   5.938  48.448  1.00  0.00     0.211 A 
BRANCH  16  17
HETATM   17  C16 UNL     1      28.887   5.488  48.280  1.00  0.00     0.060 C 
BRANCH  17  18
HETATM   18  C17 UNL     1      29.992   6.416  48.007  1.00  0.00     0.279 C 
BRANCH  18  19
HETATM   19  N4  UNL     1      31.141   6.024  48.790  1.00  0.00     0.080 N 
HETATM   20  C18 UNL     1      31.769   7.104  49.486  1.00  0.00     0.309 C 
HETATM   21  C19 UNL     1      32.061   5.181  48.072  1.00  0.00     0.309 C 
ENDBRANCH  18  19
ENDBRANCH  17  18
ENDBRANCH  16  17
ENDBRANCH  12  14
ENDBRANCH   8  12
ENDBRANCH   5   8
BRANCH   1  22
HETATM   22  C4  UNL     1      25.268   0.634  52.223  1.00  0.00     0.315 C 
HETATM   23  N2  UNL     1      25.148   0.814  53.630  1.00  0.00     0.134 N 
HETATM   24  C3  UNL     1      25.098  -0.511  54.251  1.00  0.00     0.423 C 
HETATM   25  C22 UNL     1      26.278   1.386  54.294  1.00  0.00     0.292 C 
HETATM   26  N1  UNL     1      26.467  -0.856  54.517  1.00  0.00    -0.267 NA
HETATM   27  C2  UNL     1      27.184   0.211  54.550  1.00  0.00     0.040 C 
HETATM   28  C1  UNL     1      28.630   0.361  54.786  1.00  0.00     0.067 C 
HETATM   29  C21 UNL     1      27.037   2.333  53.416  1.00  0.00     0.190 C 
HETATM   30  N6  UNL     1      27.567   1.523  52.326  1.00  0.00    -0.301 NA
HETATM   31  C20 UNL     1      26.685   0.737  51.799  1.00  0.00     0.125 C 
ENDBRANCH   1  22
TORSDOF 7
ENDMDL
MODEL 2
REMARK VINA RESULT:      -8.3      1.861      3.267
REMARK  7 active torsions:
REMARK  status: ('A' for Active; 'I' for Inactive)
REMARK    1  A    between atoms: C4_6  and  C5_7 
REMARK    2  A    between atoms: C9_11  and  C10_12 
REMARK    3  A    between atoms: C10_12  and  N3_16 
REMARK    4  A    between atoms: N3_16  and  C14_18 
REMARK    5  A    between atoms: C15_20  and  C16_21 
REMARK    6  A    between atoms: C16_21  and  C17_22 
REMARK    7  A    between atoms: C17_22  and  N4_23 
ROOT
HETATM    1  C5  UNL     1      24.043   0.964  52.813  1.00  0.00     0.044 A 
HETATM    2  C6  UNL     1      22.983   0.513  53.466  1.00  0.00     0.027 A 
HETATM    3  C7  UNL     1      21.673   0.440  52.836  1.00  0.00     0.000 A 
HETATM    4  C8  UNL     1      21.660   0.860  51.582  1.00  0.00     0.004 A 
HETATM    5  C9  UNL     1      22.718   1.386  50.714  1.00  0.00     0.158 A 
HETATM    6  N5  UNL     1      23.984   1.389  51.458  1.00  0.00    -0.378 N 
HETATM    7  H27 UNL     1      24.865   1.708  51.004  1.00  0.00     0.160 HD
ENDROOT
BRANCH   5   8
HETATM    8  C10 UNL     1      22.380   2.754  50.265  1.00  0.00     0.074 C 
HETATM    9  C11 UNL     1      21.673   3.100  49.205  1.00  0.00     0.115 C 
HETATM   10  C12 UNL     1      21.031   2.255  48.193  1.00  0.00     0.084 C 
HETATM   11  F1  UNL     1      21.450   4.399  48.904  1.00  0.00    -0.209 F 
BRANCH   8  12
HETATM   12  N3  UNL     1      22.848   3.804  51.123  1.00  0.00    -0.333 N 
HETATM   13  C13 UNL     1      22.609   4.345  52.421  1.00  0.00     0.158 C 
BRANCH  12  14
HETATM   14  C14 UNL     1      23.904   4.636  50.600  1.00  0.00     0.151 A 
HETATM   15  O1  UNL     1      24.528   5.691  50.325  1.00  0.00    -0.323 OA
HETATM   16  C15 UNL     1      25.129   4.301  49.914  1.00  0.00     0.211 A 
BRANCH  16  17
HETATM   17  C16 UNL     1      26.028   5.134  49.476  1.00  0.00     0.060 C 
BRANCH  17  18
HETATM   18  C17 UNL     1      27.274   4.633  48.882  1.00  0.00     0.279 C 
BRANCH  18  19
HETATM   19  N4  UNL     1      27.942   5.719  48.203  1.00  0.00     0.080 N 
HETATM   20  C18 UNL     1      29.367   5.599  48.171  1.00  0.00     0.309 C 
HETATM   21  C19 UNL     1      27.477   7.019  48.611  1.00  0.00     0.309 C 
ENDBRANCH  18  19
ENDBRANCH  17  18
ENDBRANCH  16  17
ENDBRANCH  12  14
ENDBRANCH   8  12
ENDBRANCH   5   8
BRANCH   1  22
HETATM   22  C4  UNL     1      25.344   1.002  53.545  1.00  0.00     0.315 C 
HETATM   23  N2  UNL     1      26.447   1.404  52.739  1.00  0.00     0.134 N 
HETATM   24  C3  UNL     1      27.256   2.343  53.519  1.00  0.00     0.423 C 
HETATM   25  C22 UNL     1      27.413   0.393  52.438  1.00  0.00     0.292 C 
HETATM   26  N1  UNL     1      28.204   1.528  54.226  1.00  0.00    -0.267 NA
HETATM   27  C2  UNL     1      28.324   0.392  53.636  1.00  0.00     0.040 C 
HETATM   28  C1  UNL     1      29.170  -0.761  53.988  1.00  0.00     0.067 C 
HETATM   29  C21 UNL     1      26.803  -0.973  52.358  1.00  0.00     0.190 C 
HETATM   30  N6  UNL     1      26.308  -1.264  53.698  1.00  0.00    -0.301 NA
HETATM   31  C20 UNL     1      25.624  -0.292  54.211  1.00  0.00     0.125 C 
ENDBRANCH   1  22
TORSDOF 7
ENDMDL
MODEL 3
REMARK VINA RESULT:      -8.1      1.946      3.082
REMARK  7 active torsions:
REMARK  status: ('A' for Active; 'I' for Inactive)
REMARK    1  A    between atoms: C4_6  and  C5_7 
REMARK    2  A    between atoms: C9_11  and  C10_12 
REMARK    3  A    between atoms: C10_12  and  N3_16 
REMARK    4  A    between atoms: N3_16  and  C14_18 
REMARK    5  A    between atoms: C15_20  and  C16_21 
REMARK    6  A    between atoms: C16_21  and  C17_22 
REMARK    7  A    between atoms: C17_22  and  N4_23 
ROOT
HETATM    1  C5  UNL     1      23.774   0.788  52.612  1.00  0.00     0.044 A 
HETATM    2  C6  UNL     1      22.752   0.094  53.088  1.00  0.00     0.027 A 
HETATM    3  C7  UNL     1      21.511  -0.046  52.341  1.00  0.00     0.000 A 
HETATM    4  C8  UNL     1      21.517   0.577  51.175  1.00  0.00     0.004 A 
HETATM    5  C9  UNL     1      22.540   1.382  50.499  1.00  0.00     0.158 A 
HETATM    6  N5  UNL     1      23.740   1.428  51.343  1.00  0.00    -0.378 N 
HETATM    7  H27 UNL     1      24.592   1.935  51.026  1.00  0.00     0.160 HD
ENDROOT
BRANCH   5   8
HETATM    8  C10 UNL     1      22.033   2.748  50.247  1.00  0.00     0.074 C 
HETATM    9  C11 UNL     1      21.355   3.520  51.077  1.00  0.00     0.115 C 
HETATM   10  C12 UNL     1      20.921   3.258  52.453  1.00  0.00     0.084 C 
HETATM   11  F1  UNL     1      20.940   4.752  50.708  1.00  0.00    -0.209 F 
BRANCH   8  12
HETATM   12  N3  UNL     1      22.371   3.289  48.962  1.00  0.00    -0.333 N 
HETATM   13  C13 UNL     1      21.951   3.221  47.601  1.00  0.00     0.158 C 
BRANCH  12  14
HETATM   14  C14 UNL     1      23.477   4.216  48.928  1.00  0.00     0.151 A 
HETATM   15  O1  UNL     1      24.088   5.293  48.720  1.00  0.00    -0.323 OA
HETATM   16  C15 UNL     1      24.856   4.065  49.326  1.00  0.00     0.211 A 
BRANCH  16  17
HETATM   17  C16 UNL     1      25.789   4.970  49.255  1.00  0.00     0.060 C 
BRANCH  17  18
HETATM   18  C17 UNL     1      27.175   4.584  48.960  1.00  0.00     0.279 C 
BRANCH  18  19
HETATM   19  N4  UNL     1      27.829   5.670  48.266  1.00  0.00     0.080 N 
HETATM   20  C18 UNL     1      29.257   5.600  48.289  1.00  0.00     0.309 C 
HETATM   21  C19 UNL     1      27.303   6.965  48.609  1.00  0.00     0.309 C 
ENDBRANCH  18  19
ENDBRANCH  17  18
ENDBRANCH  16  17
ENDBRANCH  12  14
ENDBRANCH   8  12
ENDBRANCH   5   8
BRANCH   1  22
HETATM   22  C4  UNL     1      25.005   0.875  53.453  1.00  0.00     0.315 C 
HETATM   23  N2  UNL     1      26.117   1.466  52.787  1.00  0.00     0.134 N 
HETATM   24  C3  UNL     1      26.761   2.392  53.721  1.00  0.00     0.423 C 
HETATM   25  C22 UNL     1      27.204   0.591  52.472  1.00  0.00     0.292 C 
HETATM   26  N1  UNL     1      27.734   1.602  54.423  1.00  0.00    -0.267 NA
HETATM   27  C2  UNL     1      28.018   0.553  53.738  1.00  0.00     0.040 C 
HETATM   28  C1  UNL     1      28.953  -0.544  54.046  1.00  0.00     0.067 C 
HETATM   29  C21 UNL     1      26.750  -0.812  52.207  1.00  0.00     0.190 C 
HETATM   30  N6  UNL     1      26.189  -1.289  53.465  1.00  0.00    -0.301 NA
HETATM   31  C20 UNL     1      25.370  -0.449  54.010  1.00  0.00     0.125 C 
ENDBRANCH   1  22
TORSDOF 7
ENDMDL
MODEL 4
REMARK VINA RESULT:      -8.1      1.400      1.877
REMARK  7 active torsions:
REMARK  status: ('A' for Active; 'I' for Inactive)
REMARK    1  A    between atoms: C4_6  and  C5_7 
REMARK    2  A    between atoms: C9_11  and  C10_12 
REMARK    3  A    between atoms: C10_12  and  N3_16 
REMARK    4  A    between atoms: N3_16  and  C14_18 
REMARK    5  A    between atoms: C15_20  and  C16_21 
REMARK    6  A    between atoms: C16_21  and  C17_22 
REMARK    7  A    between atoms: C17_22  and  N4_23 
ROOT
HETATM    1  C5  UNL     1      24.535   2.315  52.031  1.00  0.00     0.044 A 
HETATM    2  C6  UNL     1      24.320   3.084  53.087  1.00  0.00     0.027 A 
HETATM    3  C7  UNL     1      23.416   4.223  53.031  1.00  0.00     0.000 A 
HETATM    4  C8  UNL     1      22.854   4.399  51.847  1.00  0.00     0.004 A 
HETATM    5  C9  UNL     1      22.975   3.662  50.585  1.00  0.00     0.158 A 
HETATM    6  N5  UNL     1      23.894   2.534  50.782  1.00  0.00    -0.378 N 
HETATM    7  H27 UNL     1      24.094   1.872  50.004  1.00  0.00     0.160 HD
ENDROOT
BRANCH   5   8
HETATM    8  C10 UNL     1      23.474   4.554  49.517  1.00  0.00     0.074 C 
HETATM    9  C11 UNL     1      23.000   4.686  48.292  1.00  0.00     0.115 C 
HETATM   10  C12 UNL     1      21.868   4.008  47.651  1.00  0.00     0.084 C 
HETATM   11  F1  UNL     1      23.565   5.536  47.407  1.00  0.00    -0.209 F 
BRANCH   8  12
HETATM   12  N3  UNL     1      24.572   5.396  49.897  1.00  0.00    -0.333 N 
HETATM   13  C13 UNL     1      24.828   6.614  50.593  1.00  0.00     0.158 C 
BRANCH  12  14
HETATM   14  C14 UNL     1      25.887   4.953  49.497  1.00  0.00     0.151 A 
HETATM   15  O1  UNL     1      26.855   4.168  49.344  1.00  0.00    -0.323 OA
HETATM   16  C15 UNL     1      26.966   5.650  48.839  1.00  0.00     0.211 A 
BRANCH  16  17
HETATM   17  C16 UNL     1      28.127   5.158  48.518  1.00  0.00     0.060 C 
BRANCH  17  18
HETATM   18  C17 UNL     1      29.108   5.983  47.801  1.00  0.00     0.279 C 
BRANCH  18  19
HETATM   19  N4  UNL     1      30.322   6.054  48.580  1.00  0.00     0.080 N 
HETATM   20  C18 UNL     1      30.696   7.382  48.957  1.00  0.00     0.309 C 
HETATM   21  C19 UNL     1      31.403   5.280  48.026  1.00  0.00     0.309 C 
ENDBRANCH  18  19
ENDBRANCH  17  18
ENDBRANCH  16  17
ENDBRANCH  12  14
ENDBRANCH   8  12
ENDBRANCH   5   8
BRANCH   1  22
HETATM   22  C4  UNL     1      25.481   1.170  52.187  1.00  0.00     0.315 C 
HETATM   23  N2  UNL     1      25.610   0.708  53.528  1.00  0.00     0.134 N 
HETATM   24  C3  UNL     1      25.596  -0.756  53.504  1.00  0.00     0.423 C 
HETATM   25  C22 UNL     1      26.866   0.960  54.166  1.00  0.00     0.292 C 
HETATM   26  N1  UNL     1      26.970  -1.144  53.347  1.00  0.00    -0.267 NA
HETATM   27  C2  UNL     1      27.737  -0.182  53.718  1.00  0.00     0.040 C 
HETATM   28  C1  UNL     1      29.209  -0.111  53.739  1.00  0.00     0.067 C 
HETATM   29  C21 UNL     1      27.514   2.218  53.674  1.00  0.00     0.190 C 
HETATM   30  N6  UNL     1      27.808   1.985  52.265  1.00  0.00    -0.301 NA
HETATM   31  C20 UNL     1      26.808   1.488  51.611  1.00  0.00     0.125 C 
ENDBRANCH   1  22
TORSDOF 7
ENDMDL
MODEL 5
REMARK VINA RESULT:      -7.8      3.007      5.951
REMARK  7 active torsions:
REMARK  status: ('A' for Active; 'I' for Inactive)
REMARK    1  A    between atoms: C4_6  and  C5_7 
REMARK    2  A    between atoms: C9_11  and  C10_12 
REMARK    3  A    between atoms: C10_12  and  N3_16 
REMARK    4  A    between atoms: N3_16  and  C14_18 
REMARK    5  A    between atoms: C15_20  and  C16_21 
REMARK    6  A    between atoms: C16_21  and  C17_22 
REMARK    7  A    between atoms: C17_22  and  N4_23 
ROOT
HETATM    1  C5  UNL     1      26.188   3.142  50.870  1.00  0.00     0.044 A 
HETATM    2  C6  UNL     1      26.759   3.557  49.750  1.00  0.00     0.027 A 
HETATM    3  C7  UNL     1      26.240   4.695  49.006  1.00  0.00     0.000 A 
HETATM    4  C8  UNL     1      25.171   5.248  49.554  1.00  0.00     0.004 A 
HETATM    5  C9  UNL     1      24.414   4.925  50.767  1.00  0.00     0.158 A 
HETATM    6  N5  UNL     1      25.048   3.779  51.431  1.00  0.00    -0.378 N 
HETATM    7  H27 UNL     1      24.670   3.410  52.328  1.00  0.00     0.160 HD
ENDROOT
BRANCH   5   8
HETATM    8  C10 UNL     1      23.009   4.612  50.427  1.00  0.00     0.074 C 
HETATM    9  C11 UNL     1      21.960   5.406  50.533  1.00  0.00     0.115 C 
HETATM   10  C12 UNL     1      21.881   6.793  51.002  1.00  0.00     0.084 C 
HETATM   11  F1  UNL     1      20.722   4.982  50.195  1.00  0.00    -0.209 F 
BRANCH   8  12
HETATM   12  N3  UNL     1      22.799   3.303  49.878  1.00  0.00    -0.333 N 
HETATM   13  C13 UNL     1      23.090   2.550  48.702  1.00  0.00     0.158 C 
BRANCH  12  14
HETATM   14  C14 UNL     1      22.073   2.370  50.705  1.00  0.00     0.151 A 
HETATM   15  O1  UNL     1      21.105   1.890  51.345  1.00  0.00    -0.323 OA
HETATM   16  C15 UNL     1      22.475   1.125  51.314  1.00  0.00     0.211 A 
BRANCH  16  17
HETATM   17  C16 UNL     1      21.738   0.347  52.052  1.00  0.00     0.060 C 
BRANCH  17  18
HETATM   18  C17 UNL     1      22.358  -0.705  52.869  1.00  0.00     0.279 C 
BRANCH  18  19
HETATM   19  N4  UNL     1      22.270  -0.333  54.262  1.00  0.00     0.080 N 
HETATM   20  C18 UNL     1      22.830  -1.296  55.159  1.00  0.00     0.309 C 
HETATM   21  C19 UNL     1      20.964   0.132  54.648  1.00  0.00     0.309 C 
ENDBRANCH  18  19
ENDBRANCH  17  18
ENDBRANCH  16  17
ENDBRANCH  12  14
ENDBRANCH   8  12
ENDBRANCH   5   8
BRANCH   1  22
HETATM   22  C4  UNL     1      26.793   1.965  51.562  1.00  0.00     0.315 C 
HETATM   23  N2  UNL     1      25.842   0.989  51.977  1.00  0.00     0.134 N 
HETATM   24  C3  UNL     1      26.384  -0.333  51.653  1.00  0.00     0.423 C 
HETATM   25  C22 UNL     1      25.637   0.865  53.387  1.00  0.00     0.292 C 
HETATM   26  N1  UNL     1      27.137  -0.726  52.812  1.00  0.00    -0.267 NA
HETATM   27  C2  UNL     1      26.738  -0.058  53.835  1.00  0.00     0.040 C 
HETATM   28  C1  UNL     1      27.207  -0.113  55.231  1.00  0.00     0.067 C 
HETATM   29  C21 UNL     1      25.838   2.161  54.110  1.00  0.00     0.190 C 
HETATM   30  N6  UNL     1      27.244   2.501  53.928  1.00  0.00    -0.301 NA
HETATM   31  C20 UNL     1      27.641   2.389  52.701  1.00  0.00     0.125 C 
ENDBRANCH   1  22
TORSDOF 7
ENDMDL
MODEL 6
REMARK VINA RESULT:      -7.7      4.153      7.276
REMARK  7 active torsions:
REMARK  status: ('A' for Active; 'I' for Inactive)
REMARK    1  A    between atoms: C4_6  and  C5_7 
REMARK    2  A    between atoms: C9_11  and  C10_12 
REMARK    3  A    between atoms: C10_12  and  N3_16 
REMARK    4  A    between atoms: N3_16  and  C14_18 
REMARK    5  A    between atoms: C15_20  and  C16_21 
REMARK    6  A    between atoms: C16_21  and  C17_22 
REMARK    7  A    between atoms: C17_22  and  N4_23 
ROOT
HETATM    1  C5  UNL     1      24.007   0.893  52.811  1.00  0.00     0.044 A 
HETATM    2  C6  UNL     1      22.984   0.336  53.440  1.00  0.00     0.027 A 
HETATM    3  C7  UNL     1      21.686   0.187  52.801  1.00  0.00     0.000 A 
HETATM    4  C8  UNL     1      21.642   0.655  51.565  1.00  0.00     0.004 A 
HETATM    5  C9  UNL     1      22.658   1.297  50.725  1.00  0.00     0.158 A 
HETATM    6  N5  UNL     1      23.918   1.368  51.475  1.00  0.00    -0.378 N 
HETATM    7  H27 UNL     1      24.773   1.772  51.039  1.00  0.00     0.160 HD
ENDROOT
BRANCH   5   8
HETATM    8  C10 UNL     1      22.215   2.652  50.330  1.00  0.00     0.074 C 
HETATM    9  C11 UNL     1      22.113   3.140  49.108  1.00  0.00     0.115 C 
HETATM   10  C12 UNL     1      22.397   2.500  47.819  1.00  0.00     0.084 C 
HETATM   11  F1  UNL     1      21.704   4.410  48.891  1.00  0.00    -0.209 F 
BRANCH   8  12
HETATM   12  N3  UNL     1      21.813   3.496  51.418  1.00  0.00    -0.333 N 
HETATM   13  C13 UNL     1      22.374   4.398  52.369  1.00  0.00     0.158 C 
BRANCH  12  14
HETATM   14  C14 UNL     1      20.403   3.511  51.729  1.00  0.00     0.151 A 
HETATM   15  O1  UNL     1      19.367   3.569  52.437  1.00  0.00    -0.323 OA
HETATM   16  C15 UNL     1      19.240   3.418  50.880  1.00  0.00     0.211 A 
BRANCH  16  17
HETATM   17  C16 UNL     1      17.996   3.441  51.260  1.00  0.00     0.060 C 
BRANCH  17  18
HETATM   18  C17 UNL     1      16.919   3.526  50.265  1.00  0.00     0.279 C 
BRANCH  18  19
HETATM   19  N4  UNL     1      15.657   3.683  50.950  1.00  0.00     0.080 N 
HETATM   20  C18 UNL     1      14.668   4.388  50.195  1.00  0.00     0.309 C 
HETATM   21  C19 UNL     1      15.796   4.149  52.305  1.00  0.00     0.309 C 
ENDBRANCH  18  19
ENDBRANCH  17  18
ENDBRANCH  16  17
ENDBRANCH  12  14
ENDBRANCH   8  12
ENDBRANCH   5   8
BRANCH   1  22
HETATM   22  C4  UNL     1      25.300   1.003  53.551  1.00  0.00     0.315 C 
HETATM   23  N2  UNL     1      26.400   1.391  52.734  1.00  0.00     0.134 N 
HETATM   24  C3  UNL     1      27.178   2.390  53.472  1.00  0.00     0.423 C 
HETATM   25  C22 UNL     1      27.394   0.391  52.494  1.00  0.00     0.292 C 
HETATM   26  N1  UNL     1      28.139   1.636  54.228  1.00  0.00    -0.267 NA
HETATM   27  C2  UNL     1      28.294   0.475  53.698  1.00  0.00     0.040 C 
HETATM   28  C1  UNL     1      29.166  -0.637  54.115  1.00  0.00     0.067 C 
HETATM   29  C21 UNL     1      26.820  -0.993  52.479  1.00  0.00     0.190 C 
HETATM   30  N6  UNL     1      26.320  -1.227  53.828  1.00  0.00    -0.301 NA
HETATM   31  C20 UNL     1      25.606  -0.248  54.285  1.00  0.00     0.125 C 
ENDBRANCH   1  22
TORSDOF 7
ENDMDL
MODEL 7
REMARK VINA RESULT:      -7.6      2.740      3.693
REMARK  7 active torsions:
REMARK  status: ('A' for Active; 'I' for Inactive)
REMARK    1  A    between atoms: C4_6  and  C5_7 
REMARK    2  A    between atoms: C9_11  and  C10_12 
REMARK    3  A    between atoms: C10_12  and  N3_16 
REMARK    4  A    between atoms: N3_16  and  C14_18 
REMARK    5  A    between atoms: C15_20  and  C16_21 
REMARK    6  A    between atoms: C16_21  and  C17_22 
REMARK    7  A    between atoms: C17_22  and  N4_23 
ROOT
HETATM    1  C5  UNL     1      24.777   2.510  53.049  1.00  0.00     0.044 A 
HETATM    2  C6  UNL     1      24.405   3.715  53.453  1.00  0.00     0.027 A 
HETATM    3  C7  UNL     1      23.257   4.394  52.872  1.00  0.00     0.000 A 
HETATM    4  C8  UNL     1      22.648   3.698  51.926  1.00  0.00     0.004 A 
HETATM    5  C9  UNL     1      22.918   2.374  51.357  1.00  0.00     0.158 A 
HETATM    6  N5  UNL     1      24.082   1.792  52.039  1.00  0.00    -0.378 N 
HETATM    7  H27 UNL     1      24.419   0.839  51.792  1.00  0.00     0.160 HD
ENDROOT
BRANCH   5   8
HETATM    8  C10 UNL     1      23.174   2.483  49.904  1.00  0.00     0.074 C 
HETATM    9  C11 UNL     1      22.486   1.930  48.923  1.00  0.00     0.115 C 
HETATM   10  C12 UNL     1      21.298   1.072  48.982  1.00  0.00     0.084 C 
HETATM   11  F1  UNL     1      22.842   2.104  47.631  1.00  0.00    -0.209 F 
BRANCH   8  12
HETATM   12  N3  UNL     1      24.275   3.331  49.548  1.00  0.00    -0.333 N 
HETATM   13  C13 UNL     1      25.700   3.350  49.589  1.00  0.00     0.158 C 
BRANCH  12  14
HETATM   14  C14 UNL     1      23.938   4.597  48.941  1.00  0.00     0.151 A 
HETATM   15  O1  UNL     1      23.249   5.446  48.325  1.00  0.00    -0.323 OA
HETATM   16  C15 UNL     1      24.683   5.829  48.835  1.00  0.00     0.211 A 
BRANCH  16  17
HETATM   17  C16 UNL     1      24.288   6.928  48.261  1.00  0.00     0.060 C 
BRANCH  17  18
HETATM   18  C17 UNL     1      24.859   8.220  48.665  1.00  0.00     0.279 C 
BRANCH  18  19
HETATM   19  N4  UNL     1      26.284   8.070  48.844  1.00  0.00     0.080 N 
HETATM   20  C18 UNL     1      26.785   8.656  50.048  1.00  0.00     0.309 C 
HETATM   21  C19 UNL     1      27.046   8.409  47.671  1.00  0.00     0.309 C 
ENDBRANCH  18  19
ENDBRANCH  17  18
ENDBRANCH  16  17
ENDBRANCH  12  14
ENDBRANCH   8  12
ENDBRANCH   5   8
BRANCH   1  22
HETATM   22  C4  UNL     1      25.969   1.896  53.706  1.00  0.00     0.315 C 
HETATM   23  N2  UNL     1      27.179   2.060  52.973  1.00  0.00     0.134 N 
HETATM   24  C3  UNL     1      28.235   2.421  53.922  1.00  0.00     0.423 C 
HETATM   25  C22 UNL     1      27.730   0.877  52.387  1.00  0.00     0.292 C 
HETATM   26  N1  UNL     1      28.792   1.172  54.361  1.00  0.00    -0.267 NA
HETATM   27  C2  UNL     1      28.524   0.253  53.503  1.00  0.00     0.040 C 
HETATM   28  C1  UNL     1      28.881  -1.176  53.518  1.00  0.00     0.067 C 
HETATM   29  C21 UNL     1      26.674  -0.113  52.000  1.00  0.00     0.190 C 
HETATM   30  N6  UNL     1      26.046  -0.527  53.248  1.00  0.00    -0.301 NA
HETATM   31  C20 UNL     1      25.734   0.466  54.017  1.00  0.00     0.125 C 
ENDBRANCH   1  22
TORSDOF 7
ENDMDL
MODEL 8
REMARK VINA RESULT:      -7.5      4.576      8.220
REMARK  7 active torsions:
REMARK  status: ('A' for Active; 'I' for Inactive)
REMARK    1  A    between atoms: C4_6  and  C5_7 
REMARK    2  A    between atoms: C9_11  and  C10_12 
REMARK    3  A    between atoms: C10_12  and  N3_16 
REMARK    4  A    between atoms: N3_16  and  C14_18 
REMARK    5  A    between atoms: C15_20  and  C16_21 
REMARK    6  A    between atoms: C16_21  and  C17_22 
REMARK    7  A    between atoms: C17_22  and  N4_23 
ROOT
HETATM    1  C5  UNL     1      24.372   1.536  51.882  1.00  0.00     0.044 A 
HETATM    2  C6  UNL     1      24.335   2.362  50.848  1.00  0.00     0.027 A 
HETATM    3  C7  UNL     1      23.191   3.228  50.605  1.00  0.00     0.000 A 
HETATM    4  C8  UNL     1      22.226   3.101  51.500  1.00  0.00     0.004 A 
HETATM    5  C9  UNL     1      22.096   2.250  52.687  1.00  0.00     0.158 A 
HETATM    6  N5  UNL     1      23.316   1.445  52.829  1.00  0.00    -0.378 N 
HETATM    7  H27 UNL     1      23.429   0.789  53.629  1.00  0.00     0.160 HD
ENDROOT
BRANCH   5   8
HETATM    8  C10 UNL     1      20.912   1.373  52.560  1.00  0.00     0.074 C 
HETATM    9  C11 UNL     1      20.536   0.406  53.378  1.00  0.00     0.115 C 
HETATM   10  C12 UNL     1      21.163  -0.066  54.617  1.00  0.00     0.084 C 
HETATM   11  F1  UNL     1      19.430  -0.331  53.132  1.00  0.00    -0.209 F 
BRANCH   8  12
HETATM   12  N3  UNL     1      20.067   1.658  51.436  1.00  0.00    -0.333 N 
HETATM   13  C13 UNL     1      19.882   1.262  50.079  1.00  0.00     0.158 C 
BRANCH  12  14
HETATM   14  C14 UNL     1      19.038   2.648  51.643  1.00  0.00     0.151 A 
HETATM   15  O1  UNL     1      18.536   3.771  51.895  1.00  0.00    -0.323 OA
HETATM   16  C15 UNL     1      17.599   2.552  51.580  1.00  0.00     0.211 A 
BRANCH  16  17
HETATM   17  C16 UNL     1      16.746   3.514  51.785  1.00  0.00     0.060 C 
BRANCH  17  18
HETATM   18  C17 UNL     1      15.306   3.272  51.630  1.00  0.00     0.279 C 
BRANCH  18  19
HETATM   19  N4  UNL     1      14.718   3.076  52.935  1.00  0.00     0.080 N 
HETATM   20  C18 UNL     1      13.987   1.854  53.067  1.00  0.00     0.309 C 
HETATM   21  C19 UNL     1      14.013   4.232  53.424  1.00  0.00     0.309 C 
ENDBRANCH  18  19
ENDBRANCH  17  18
ENDBRANCH  16  17
ENDBRANCH  12  14
ENDBRANCH   8  12
ENDBRANCH   5   8
BRANCH   1  22
HETATM   22  C4  UNL     1      25.589   0.686  52.047  1.00  0.00     0.315 C 
HETATM   23  N2  UNL     1      25.786   0.214  53.376  1.00  0.00     0.134 N 
HETATM   24  C3  UNL     1      26.176  -1.197  53.300  1.00  0.00     0.423 C 
HETATM   25  C22 UNL     1      26.897   0.767  54.087  1.00  0.00     0.292 C 
HETATM   26  N1  UNL     1      27.609  -1.188  53.202  1.00  0.00    -0.267 NA
HETATM   27  C2  UNL     1      28.066  -0.071  53.645  1.00  0.00     0.040 C 
HETATM   28  C1  UNL     1      29.460   0.397  53.745  1.00  0.00     0.067 C 
HETATM   29  C21 UNL     1      27.194   2.176  53.673  1.00  0.00     0.190 C 
HETATM   30  N6  UNL     1      27.598   2.100  52.274  1.00  0.00    -0.301 NA
HETATM   31  C20 UNL     1      26.801   1.381  51.552  1.00  0.00     0.125 C 
ENDBRANCH   1  22
TORSDOF 7
ENDMDL
MODEL 9
REMARK VINA RESULT:      -7.3      2.782      8.275
REMARK  7 active torsions:
REMARK  status: ('A' for Active; 'I' for Inactive)
REMARK    1  A    between atoms: C4_6  and  C5_7 
REMARK    2  A    between atoms: C9_11  and  C10_12 
REMARK    3  A    between atoms: C10_12  and  N3_16 
REMARK    4  A    between atoms: N3_16  and  C14_18 
REMARK    5  A    between atoms: C15_20  and  C16_21 
REMARK    6  A    between atoms: C16_21  and  C17_22 
REMARK    7  A    between atoms: C17_22  and  N4_23 
ROOT
HETATM    1  C5  UNL     1      31.082   8.393  49.133  1.00  0.00     0.044 A 
HETATM    2  C6  UNL     1      31.424   9.661  48.962  1.00  0.00     0.027 A 
HETATM    3  C7  UNL     1      30.425  10.715  48.877  1.00  0.00     0.000 A 
HETATM    4  C8  UNL     1      29.181  10.281  48.985  1.00  0.00     0.004 A 
HETATM    5  C9  UNL     1      28.624   8.938  49.171  1.00  0.00     0.158 A 
HETATM    6  N5  UNL     1      29.730   7.975  49.261  1.00  0.00    -0.378 N 
HETATM    7  H27 UNL     1      29.541   6.964  49.418  1.00  0.00     0.160 HD
ENDROOT
BRANCH   5   8
HETATM    8  C10 UNL     1      27.730   8.592  48.045  1.00  0.00     0.074 C 
HETATM    9  C11 UNL     1      28.072   8.338  46.796  1.00  0.00     0.115 C 
HETATM   10  C12 UNL     1      29.400   8.320  46.175  1.00  0.00     0.084 C 
HETATM   11  F1  UNL     1      27.142   8.047  45.859  1.00  0.00    -0.209 F 
BRANCH   8  12
HETATM   12  N3  UNL     1      26.341   8.483  48.390  1.00  0.00    -0.333 N 
HETATM   13  C13 UNL     1      25.202   9.310  48.618  1.00  0.00     0.158 C 
BRANCH  12  14
HETATM   14  C14 UNL     1      25.834   7.147  48.587  1.00  0.00     0.151 A 
HETATM   15  O1  UNL     1      24.993   6.215  48.631  1.00  0.00    -0.323 OA
HETATM   16  C15 UNL     1      26.496   5.926  48.979  1.00  0.00     0.211 A 
BRANCH  16  17
HETATM   17  C16 UNL     1      25.944   4.757  49.132  1.00  0.00     0.060 C 
BRANCH  17  18
HETATM   18  C17 UNL     1      26.719   3.639  49.686  1.00  0.00     0.279 C 
BRANCH  18  19
HETATM   19  N4  UNL     1      26.061   3.155  50.877  1.00  0.00     0.080 N 
HETATM   20  C18 UNL     1      26.626   1.953  51.408  1.00  0.00     0.309 C 
HETATM   21  C19 UNL     1      24.627   3.123  50.764  1.00  0.00     0.309 C 
ENDBRANCH  18  19
ENDBRANCH  17  18
ENDBRANCH  16  17
ENDBRANCH  12  14
ENDBRANCH   8  12
ENDBRANCH   5   8
BRANCH   1  22
HETATM   22  C4  UNL     1      32.180   7.383  49.208  1.00  0.00     0.315 C 
HETATM   23  N2  UNL     1      32.987   7.322  48.037  1.00  0.00     0.134 N 
HETATM   24  C3  UNL     1      34.387   7.230  48.459  1.00  0.00     0.423 C 
HETATM   25  C22 UNL     1      32.862   6.140  47.241  1.00  0.00     0.292 C 
HETATM   26  N1  UNL     1      34.651   5.824  48.588  1.00  0.00    -0.267 NA
HETATM   27  C2  UNL     1      33.793   5.157  47.901  1.00  0.00     0.040 C 
HETATM   28  C1  UNL     1      33.661   3.700  47.726  1.00  0.00     0.067 C 
HETATM   29  C21 UNL     1      31.488   5.547  47.312  1.00  0.00     0.190 C 
HETATM   30  N6  UNL     1      31.307   5.132  48.697  1.00  0.00    -0.301 NA
HETATM   31  C20 UNL     1      31.652   6.041  49.551  1.00  0.00     0.125 C 
ENDBRANCH   1  22
TORSDOF 7
ENDMDL
