MODEL 1
REMARK VINA RESULT:      -9.4      0.000      0.000
REMARK  2 active torsions:
REMARK  status: ('A' for Active; 'I' for Inactive)
REMARK    1  A    between atoms: C6_9  and  N1_10 
REMARK    2  A    between atoms: N1_10  and  C7_11 
ROOT
HETATM    1  O1  UNL     1      22.293  -2.022  55.332  1.00  0.00    -0.267 OA
HETATM    2  C1  UNL     1      22.538  -0.976  54.614  1.00  0.00     0.259 C 
HETATM    3  C2  UNL     1      21.484  -0.322  53.928  1.00  0.00     0.075 C 
HETATM    4  C3  UNL     1      21.432   0.730  53.135  1.00  0.00     0.022 C 
HETATM    5  C4  UNL     1      21.849   1.904  52.339  1.00  0.00     0.257 C 
HETATM    6  F1  UNL     1      21.425   3.079  52.930  1.00  0.00    -0.238 F 
HETATM    7  C5  UNL     1      23.319   1.897  52.029  1.00  0.00     0.154 C 
HETATM    8  F2  UNL     1      23.248   1.414  53.274  1.00  0.00    -0.205 F 
HETATM    9  C6  UNL     1      24.629   1.819  51.910  1.00  0.00     0.052 C 
HETATM   10  C13 UNL     1      25.719   1.336  52.752  1.00  0.00     0.043 A 
HETATM   11  C14 UNL     1      26.527   0.158  52.306  1.00  0.00     0.016 A 
HETATM   12  C15 UNL     1      25.473  -0.037  53.296  1.00  0.00    -0.004 A 
HETATM   13  C16 UNL     1      25.811  -0.080  54.766  1.00  0.00     0.006 C 
HETATM   14  O2  UNL     1      25.175  -1.226  55.314  1.00  0.00     0.000 OA
HETATM   15  N2  UNL     1      23.894  -1.098  54.969  1.00  0.00    -0.264 N 
HETATM   16  H14 UNL     1      24.503  -1.744  55.520  1.00  0.00     0.190 HD
ENDROOT
BRANCH   9  17
HETATM   17  N1  UNL     1      24.513   2.410  50.645  1.00  0.00    -0.356 N 
HETATM   18  H4  UNL     1      23.749   1.966  50.041  1.00  0.00     0.166 HD
BRANCH  17  19
HETATM   19  C7  UNL     1      25.217   3.478  50.064  1.00  0.00     0.054 A 
HETATM   20  C8  UNL     1      26.498   3.268  49.528  1.00  0.00     0.032 A 
HETATM   21  C9  UNL     1      27.203   4.346  48.975  1.00  0.00     0.020 A 
HETATM   22  C10 UNL     1      26.672   5.656  48.931  1.00  0.00     0.008 A 
HETATM   23  I1  UNL     1      27.694   7.293  48.126  1.00  0.00    -0.045 I 
HETATM   24  C11 UNL     1      25.432   5.766  49.469  1.00  0.00     0.044 A 
HETATM   25  C12 UNL     1      24.702   4.751  50.020  1.00  0.00     0.061 A 
HETATM   26 CL1  UNL     1      23.092   4.999  50.697  1.00  0.00    -0.082 Cl
ENDBRANCH  17  19
ENDBRANCH   9  17
TORSDOF 2
ENDMDL
MODEL 2
REMARK VINA RESULT:      -8.7      3.341      4.539
REMARK  2 active torsions:
REMARK  status: ('A' for Active; 'I' for Inactive)
REMARK    1  A    between atoms: C6_9  and  N1_10 
REMARK    2  A    between atoms: N1_10  and  C7_11 
ROOT
HETATM    1  O1  UNL     1      25.468  -1.223  56.823  1.00  0.00    -0.267 OA
HETATM    2  C1  UNL     1      25.214  -0.794  55.631  1.00  0.00     0.259 C 
HETATM    3  C2  UNL     1      26.189  -0.047  54.923  1.00  0.00     0.075 C 
HETATM    4  C3  UNL     1      26.212   0.516  53.731  1.00  0.00     0.022 C 
HETATM    5  C4  UNL     1      25.790   0.960  52.385  1.00  0.00     0.257 C 
HETATM    6  F1  UNL     1      26.449   0.249  51.400  1.00  0.00    -0.238 F 
HETATM    7  C5  UNL     1      24.297   0.954  52.218  1.00  0.00     0.154 C 
HETATM    8  F2  UNL     1      24.545  -0.129  52.963  1.00  0.00    -0.205 F 
HETATM    9  C6  UNL     1      22.988   0.811  52.172  1.00  0.00     0.052 C 
HETATM   10  C13 UNL     1      22.027  -0.125  52.745  1.00  0.00     0.043 A 
HETATM   11  C14 UNL     1      21.020   0.367  53.737  1.00  0.00     0.016 A 
HETATM   12  C15 UNL     1      22.212  -0.324  54.218  1.00  0.00    -0.004 A 
HETATM   13  C16 UNL     1      22.152  -1.794  54.553  1.00  0.00     0.006 C 
HETATM   14  O2  UNL     1      22.744  -1.961  55.835  1.00  0.00     0.000 OA
HETATM   15  N2  UNL     1      23.944  -1.390  55.728  1.00  0.00    -0.264 N 
HETATM   16  H14 UNL     1      23.378  -1.917  56.432  1.00  0.00     0.190 HD
ENDROOT
BRANCH   9  17
HETATM   17  N1  UNL     1      22.932   1.930  51.331  1.00  0.00    -0.356 N 
HETATM   18  H4  UNL     1      23.741   2.615  51.486  1.00  0.00     0.166 HD
BRANCH  17  19
HETATM   19  C7  UNL     1      22.010   2.280  50.331  1.00  0.00     0.054 A 
HETATM   20  C8  UNL     1      22.185   1.812  49.018  1.00  0.00     0.032 A 
HETATM   21  C9  UNL     1      21.275   2.189  48.021  1.00  0.00     0.020 A 
HETATM   22  C10 UNL     1      20.170   3.032  48.283  1.00  0.00     0.008 A 
HETATM   23  I1  UNL     1      18.796   3.628  46.823  1.00  0.00    -0.045 I 
HETATM   24  C11 UNL     1      20.078   3.435  49.575  1.00  0.00     0.044 A 
HETATM   25  C12 UNL     1      20.937   3.098  50.584  1.00  0.00     0.061 A 
HETATM   26 CL1  UNL     1      20.730   3.678  52.237  1.00  0.00    -0.082 Cl
ENDBRANCH  17  19
ENDBRANCH   9  17
TORSDOF 2
ENDMDL
MODEL 3
REMARK VINA RESULT:      -8.5      1.438      1.851
REMARK  2 active torsions:
REMARK  status: ('A' for Active; 'I' for Inactive)
REMARK    1  A    between atoms: C6_9  and  N1_10 
REMARK    2  A    between atoms: N1_10  and  C7_11 
ROOT
HETATM    1  O1  UNL     1      22.627  -2.092  55.656  1.00  0.00    -0.267 OA
HETATM    2  C1  UNL     1      22.686  -1.090  54.843  1.00  0.00     0.259 C 
HETATM    3  C2  UNL     1      21.501  -0.585  54.252  1.00  0.00     0.075 C 
HETATM    4  C3  UNL     1      21.257   0.392  53.401  1.00  0.00     0.022 C 
HETATM    5  C4  UNL     1      21.464   1.529  52.479  1.00  0.00     0.257 C 
HETATM    6  F1  UNL     1      21.006   2.708  53.036  1.00  0.00    -0.238 F 
HETATM    7  C5  UNL     1      22.881   1.621  51.987  1.00  0.00     0.154 C 
HETATM    8  F2  UNL     1      23.004   1.236  53.262  1.00  0.00    -0.205 F 
HETATM    9  C6  UNL     1      24.169   1.645  51.710  1.00  0.00     0.052 C 
HETATM   10  C13 UNL     1      25.392   1.325  52.439  1.00  0.00     0.043 A 
HETATM   11  C14 UNL     1      26.248   0.187  51.978  1.00  0.00     0.016 A 
HETATM   12  C15 UNL     1      25.342  -0.016  53.104  1.00  0.00    -0.004 A 
HETATM   13  C16 UNL     1      25.856   0.088  54.519  1.00  0.00     0.006 C 
HETATM   14  O2  UNL     1      25.400  -1.061  55.221  1.00  0.00     0.000 OA
HETATM   15  N2  UNL     1      24.080  -1.069  55.032  1.00  0.00    -0.264 N 
HETATM   16  H14 UNL     1      24.809  -1.615  55.545  1.00  0.00     0.190 HD
ENDROOT
BRANCH   9  17
HETATM   17  N1  UNL     1      23.848   2.121  50.433  1.00  0.00    -0.356 N 
HETATM   18  H4  UNL     1      23.523   1.350  49.765  1.00  0.00     0.166 HD
BRANCH  17  19
HETATM   19  C7  UNL     1      23.873   3.423  49.906  1.00  0.00     0.054 A 
HETATM   20  C8  UNL     1      22.681   4.159  49.795  1.00  0.00     0.032 A 
HETATM   21  C9  UNL     1      22.712   5.447  49.243  1.00  0.00     0.020 A 
HETATM   22  C10 UNL     1      23.909   6.048  48.788  1.00  0.00     0.008 A 
HETATM   23  I1  UNL     1      23.997   7.962  47.948  1.00  0.00    -0.045 I 
HETATM   24  C11 UNL     1      25.008   5.268  48.934  1.00  0.00     0.044 A 
HETATM   25  C12 UNL     1      25.034   4.008  49.464  1.00  0.00     0.061 A 
HETATM   26 CL1  UNL     1      26.522   3.071  49.610  1.00  0.00    -0.082 Cl
ENDBRANCH  17  19
ENDBRANCH   9  17
TORSDOF 2
ENDMDL
MODEL 4
REMARK VINA RESULT:      -8.3      1.816      3.424
REMARK  2 active torsions:
REMARK  status: ('A' for Active; 'I' for Inactive)
REMARK    1  A    between atoms: C6_9  and  N1_10 
REMARK    2  A    between atoms: N1_10  and  C7_11 
ROOT
HETATM    1  O1  UNL     1      22.193  -1.837  55.294  1.00  0.00    -0.267 OA
HETATM    2  C1  UNL     1      22.836  -1.058  54.489  1.00  0.00     0.259 C 
HETATM    3  C2  UNL     1      24.244  -0.925  54.601  1.00  0.00     0.075 C 
HETATM    4  C3  UNL     1      25.143  -0.218  53.948  1.00  0.00     0.022 C 
HETATM    5  C4  UNL     1      25.754   0.715  52.977  1.00  0.00     0.257 C 
HETATM    6  F1  UNL     1      26.471   0.029  52.015  1.00  0.00    -0.238 F 
HETATM    7  C5  UNL     1      24.757   1.676  52.395  1.00  0.00     0.154 C 
HETATM    8  F2  UNL     1      24.078   0.528  52.500  1.00  0.00    -0.205 F 
HETATM    9  C6  UNL     1      23.769   2.390  51.894  1.00  0.00     0.052 C 
HETATM   10  C13 UNL     1      22.367   2.142  51.578  1.00  0.00     0.043 A 
HETATM   11  C14 UNL     1      21.301   2.879  52.327  1.00  0.00     0.016 A 
HETATM   12  C15 UNL     1      21.618   1.506  52.707  1.00  0.00    -0.004 A 
HETATM   13  C16 UNL     1      20.776   0.364  52.193  1.00  0.00     0.006 C 
HETATM   14  O2  UNL     1      20.440  -0.452  53.307  1.00  0.00     0.000 OA
HETATM   15  N2  UNL     1      21.610  -0.742  53.877  1.00  0.00    -0.264 N 
HETATM   16  H14 UNL     1      20.595  -0.963  53.997  1.00  0.00     0.190 HD
ENDROOT
BRANCH   9  17
HETATM   17  N1  UNL     1      24.654   3.471  51.787  1.00  0.00    -0.356 N 
HETATM   18  H4  UNL     1      25.406   3.478  52.550  1.00  0.00     0.166 HD
BRANCH  17  19
HETATM   19  C7  UNL     1      24.718   4.515  50.850  1.00  0.00     0.054 A 
HETATM   20  C8  UNL     1      23.881   5.636  50.987  1.00  0.00     0.032 A 
HETATM   21  C9  UNL     1      23.933   6.659  50.031  1.00  0.00     0.020 A 
HETATM   22  C10 UNL     1      24.805   6.614  48.918  1.00  0.00     0.008 A 
HETATM   23  I1  UNL     1      24.905   8.114  47.464  1.00  0.00    -0.045 I 
HETATM   24  C11 UNL     1      25.575   5.499  48.866  1.00  0.00     0.044 A 
HETATM   25  C12 UNL     1      25.564   4.473  49.769  1.00  0.00     0.061 A 
HETATM   26 CL1  UNL     1      26.608   3.060  49.610  1.00  0.00    -0.082 Cl
ENDBRANCH  17  19
ENDBRANCH   9  17
TORSDOF 2
ENDMDL
MODEL 5
REMARK VINA RESULT:      -8.3      4.893      7.226
REMARK  2 active torsions:
REMARK  status: ('A' for Active; 'I' for Inactive)
REMARK    1  A    between atoms: C6_9  and  N1_10 
REMARK    2  A    between atoms: N1_10  and  C7_11 
ROOT
HETATM    1  O1  UNL     1      26.785   8.709  50.435  1.00  0.00    -0.267 OA
HETATM    2  C1  UNL     1      25.878   7.853  50.098  1.00  0.00     0.259 C 
HETATM    3  C2  UNL     1      24.506   8.157  50.293  1.00  0.00     0.075 C 
HETATM    4  C3  UNL     1      23.389   7.497  50.064  1.00  0.00     0.022 C 
HETATM    5  C4  UNL     1      22.455   6.427  49.651  1.00  0.00     0.257 C 
HETATM    6  F1  UNL     1      21.779   6.778  48.499  1.00  0.00    -0.238 F 
HETATM    7  C5  UNL     1      23.123   5.084  49.558  1.00  0.00     0.154 C 
HETATM    8  F2  UNL     1      24.047   5.938  49.103  1.00  0.00    -0.205 F 
HETATM    9  C6  UNL     1      23.847   3.991  49.422  1.00  0.00     0.052 C 
HETATM   10  C13 UNL     1      25.210   3.698  48.994  1.00  0.00     0.043 A 
HETATM   11  C14 UNL     1      26.182   3.118  49.974  1.00  0.00     0.016 A 
HETATM   12  C15 UNL     1      26.234   4.547  49.681  1.00  0.00    -0.004 A 
HETATM   13  C16 UNL     1      27.226   5.079  48.676  1.00  0.00     0.006 C 
HETATM   14  O2  UNL     1      27.888   6.184  49.276  1.00  0.00     0.000 OA
HETATM   15  N2  UNL     1      26.904   6.990  49.674  1.00  0.00    -0.264 N 
HETATM   16  H14 UNL     1      27.949   6.968  49.654  1.00  0.00     0.190 HD
ENDROOT
BRANCH   9  17
HETATM   17  N1  UNL     1      22.739   3.249  49.850  1.00  0.00    -0.356 N 
HETATM   18  H4  UNL     1      21.857   3.435  49.272  1.00  0.00     0.166 HD
BRANCH  17  19
HETATM   19  C7  UNL     1      22.610   2.308  50.885  1.00  0.00     0.054 A 
HETATM   20  C8  UNL     1      23.352   2.458  52.068  1.00  0.00     0.032 A 
HETATM   21  C9  UNL     1      23.237   1.500  53.084  1.00  0.00     0.020 A 
HETATM   22  C10 UNL     1      22.391   0.372  52.970  1.00  0.00     0.008 A 
HETATM   23  I1  UNL     1      22.198  -1.086  54.457  1.00  0.00    -0.045 I 
HETATM   24  C11 UNL     1      21.712   0.309  51.797  1.00  0.00     0.044 A 
HETATM   25  C12 UNL     1      21.788   1.213  50.776  1.00  0.00     0.061 A 
HETATM   26 CL1  UNL     1      20.862   1.039  49.284  1.00  0.00    -0.082 Cl
ENDBRANCH  17  19
ENDBRANCH   9  17
TORSDOF 2
ENDMDL
MODEL 6
REMARK VINA RESULT:      -8.2      4.124      6.467
REMARK  2 active torsions:
REMARK  status: ('A' for Active; 'I' for Inactive)
REMARK    1  A    between atoms: C6_9  and  N1_10 
REMARK    2  A    between atoms: N1_10  and  C7_11 
ROOT
HETATM    1  O1  UNL     1      28.350   1.860  52.659  1.00  0.00    -0.267 OA
HETATM    2  C1  UNL     1      27.112   1.715  52.321  1.00  0.00     0.259 C 
HETATM    3  C2  UNL     1      26.457   2.722  51.567  1.00  0.00     0.075 C 
HETATM    4  C3  UNL     1      25.232   2.854  51.100  1.00  0.00     0.022 C 
HETATM    5  C4  UNL     1      23.814   2.571  50.793  1.00  0.00     0.257 C 
HETATM    6  F1  UNL     1      23.648   2.266  49.455  1.00  0.00    -0.238 F 
HETATM    7  C5  UNL     1      23.220   1.541  51.710  1.00  0.00     0.154 C 
HETATM    8  F2  UNL     1      24.470   1.110  51.504  1.00  0.00    -0.205 F 
HETATM    9  C6  UNL     1      22.853   0.563  52.514  1.00  0.00     0.052 C 
HETATM   10  C13 UNL     1      23.511  -0.602  53.096  1.00  0.00     0.043 A 
HETATM   11  C14 UNL     1      23.693  -0.681  54.580  1.00  0.00     0.016 A 
HETATM   12  C15 UNL     1      24.819  -0.271  53.746  1.00  0.00    -0.004 A 
HETATM   13  C16 UNL     1      25.868  -1.277  53.341  1.00  0.00     0.006 C 
HETATM   14  O2  UNL     1      27.138  -0.700  53.615  1.00  0.00     0.000 OA
HETATM   15  N2  UNL     1      27.117   0.474  52.984  1.00  0.00    -0.264 N 
HETATM   16  H14 UNL     1      27.775  -0.107  53.551  1.00  0.00     0.190 HD
ENDROOT
BRANCH   9  17
HETATM   17  N1  UNL     1      21.569   1.122  52.549  1.00  0.00    -0.356 N 
HETATM   18  H4  UNL     1      21.576   2.188  52.655  1.00  0.00     0.166 HD
BRANCH  17  19
HETATM   19  C7  UNL     1      20.304   0.520  52.455  1.00  0.00     0.054 A 
HETATM   20  C8  UNL     1      19.880  -0.384  53.444  1.00  0.00     0.032 A 
HETATM   21  C9  UNL     1      18.627  -1.000  53.327  1.00  0.00     0.020 A 
HETATM   22  C10 UNL     1      17.756  -0.747  52.241  1.00  0.00     0.008 A 
HETATM   23  I1  UNL     1      15.884  -1.654  52.023  1.00  0.00    -0.045 I 
HETATM   24  C11 UNL     1      18.245   0.138  51.337  1.00  0.00     0.044 A 
HETATM   25  C12 UNL     1      19.457   0.765  51.402  1.00  0.00     0.061 A 
HETATM   26 CL1  UNL     1      20.004   1.902  50.169  1.00  0.00    -0.082 Cl
ENDBRANCH  17  19
ENDBRANCH   9  17
TORSDOF 2
ENDMDL
MODEL 7
REMARK VINA RESULT:      -8.2      2.461      3.164
REMARK  2 active torsions:
REMARK  status: ('A' for Active; 'I' for Inactive)
REMARK    1  A    between atoms: C6_9  and  N1_10 
REMARK    2  A    between atoms: N1_10  and  C7_11 
ROOT
HETATM    1  O1  UNL     1      18.122  -2.096  53.756  1.00  0.00    -0.267 OA
HETATM    2  C1  UNL     1      18.749  -1.155  53.131  1.00  0.00     0.259 C 
HETATM    3  C2  UNL     1      18.184  -0.576  51.966  1.00  0.00     0.075 C 
HETATM    4  C3  UNL     1      18.584   0.365  51.135  1.00  0.00     0.022 C 
HETATM    5  C4  UNL     1      19.408   1.420  50.508  1.00  0.00     0.257 C 
HETATM    6  F1  UNL     1      18.849   2.668  50.704  1.00  0.00    -0.238 F 
HETATM    7  C5  UNL     1      20.850   1.348  50.924  1.00  0.00     0.154 C 
HETATM    8  F2  UNL     1      20.175   1.030  52.035  1.00  0.00    -0.205 F 
HETATM    9  C6  UNL     1      22.057   1.233  51.441  1.00  0.00     0.052 C 
HETATM   10  C13 UNL     1      22.594   0.843  52.740  1.00  0.00     0.043 A 
HETATM   11  C14 UNL     1      23.426  -0.397  52.852  1.00  0.00     0.016 A 
HETATM   12  C15 UNL     1      22.022  -0.444  53.247  1.00  0.00    -0.004 A 
HETATM   13  C16 UNL     1      21.639  -0.304  54.700  1.00  0.00     0.006 C 
HETATM   14  O2  UNL     1      20.737  -1.359  55.005  1.00  0.00     0.000 OA
HETATM   15  N2  UNL     1      19.774  -1.254  54.089  1.00  0.00    -0.264 N 
HETATM   16  H14 UNL     1      20.009  -1.834  54.926  1.00  0.00     0.190 HD
ENDROOT
BRANCH   9  17
HETATM   17  N1  UNL     1      22.583   1.658  50.215  1.00  0.00    -0.356 N 
HETATM   18  H4  UNL     1      22.266   1.056  49.388  1.00  0.00     0.166 HD
BRANCH  17  19
HETATM   19  C7  UNL     1      23.430   2.734  49.905  1.00  0.00     0.054 A 
HETATM   20  C8  UNL     1      24.693   2.835  50.514  1.00  0.00     0.032 A 
HETATM   21  C9  UNL     1      25.519   3.927  50.218  1.00  0.00     0.020 A 
HETATM   22  C10 UNL     1      25.134   4.948  49.318  1.00  0.00     0.008 A 
HETATM   23  I1  UNL     1      26.332   6.600  48.859  1.00  0.00    -0.045 I 
HETATM   24  C11 UNL     1      23.903   4.770  48.777  1.00  0.00     0.044 A 
HETATM   25  C12 UNL     1      23.058   3.726  49.031  1.00  0.00     0.061 A 
HETATM   26 CL1  UNL     1      21.470   3.587  48.274  1.00  0.00    -0.082 Cl
ENDBRANCH  17  19
ENDBRANCH   9  17
TORSDOF 2
ENDMDL
MODEL 8
REMARK VINA RESULT:      -8.1      4.514      6.983
REMARK  2 active torsions:
REMARK  status: ('A' for Active; 'I' for Inactive)
REMARK    1  A    between atoms: C6_9  and  N1_10 
REMARK    2  A    between atoms: N1_10  and  C7_11 
ROOT
HETATM    1  O1  UNL     1      27.906   2.282  52.030  1.00  0.00    -0.267 OA
HETATM    2  C1  UNL     1      26.728   1.830  52.307  1.00  0.00     0.259 C 
HETATM    3  C2  UNL     1      26.581   0.569  52.938  1.00  0.00     0.075 C 
HETATM    4  C3  UNL     1      25.537  -0.137  53.324  1.00  0.00     0.022 C 
HETATM    5  C4  UNL     1      24.137  -0.543  53.572  1.00  0.00     0.257 C 
HETATM    6  F1  UNL     1      23.834  -0.476  54.919  1.00  0.00    -0.238 F 
HETATM    7  C5  UNL     1      23.159   0.202  52.710  1.00  0.00     0.154 C 
HETATM    8  F2  UNL     1      24.083   1.119  53.020  1.00  0.00    -0.205 F 
HETATM    9  C6  UNL     1      22.406   0.990  51.969  1.00  0.00     0.052 C 
HETATM   10  C13 UNL     1      22.484   2.377  51.522  1.00  0.00     0.043 A 
HETATM   11  C14 UNL     1      22.632   2.673  50.062  1.00  0.00     0.016 A 
HETATM   12  C15 UNL     1      23.811   2.724  50.922  1.00  0.00    -0.004 A 
HETATM   13  C16 UNL     1      24.295   4.046  51.466  1.00  0.00     0.006 C 
HETATM   14  O2  UNL     1      25.693   4.120  51.218  1.00  0.00     0.000 OA
HETATM   15  N2  UNL     1      26.189   3.003  51.750  1.00  0.00    -0.264 N 
HETATM   16  H14 UNL     1      26.526   3.868  51.269  1.00  0.00     0.190 HD
ENDROOT
BRANCH   9  17
HETATM   17  N1  UNL     1      21.508  -0.073  51.816  1.00  0.00    -0.356 N 
HETATM   18  H4  UNL     1      21.990  -1.007  51.608  1.00  0.00     0.166 HD
BRANCH  17  19
HETATM   19  C7  UNL     1      20.106  -0.110  51.905  1.00  0.00     0.054 A 
HETATM   20  C8  UNL     1      19.323   0.556  50.947  1.00  0.00     0.032 A 
HETATM   21  C9  UNL     1      17.926   0.537  51.060  1.00  0.00     0.020 A 
HETATM   22  C10 UNL     1      17.260  -0.135  52.111  1.00  0.00     0.008 A 
HETATM   23  I1  UNL     1      15.180  -0.179  52.323  1.00  0.00    -0.045 I 
HETATM   24  C11 UNL     1      18.093  -0.750  52.987  1.00  0.00     0.044 A 
HETATM   25  C12 UNL     1      19.458  -0.762  52.924  1.00  0.00     0.061 A 
HETATM   26 CL1  UNL     1      20.455  -1.593  54.119  1.00  0.00    -0.082 Cl
ENDBRANCH  17  19
ENDBRANCH   9  17
TORSDOF 2
ENDMDL
MODEL 9
REMARK VINA RESULT:      -8.0      3.974      5.692
REMARK  2 active torsions:
REMARK  status: ('A' for Active; 'I' for Inactive)
REMARK    1  A    between atoms: C6_9  and  N1_10 
REMARK    2  A    between atoms: N1_10  and  C7_11 
ROOT
HETATM    1  O1  UNL     1      27.254   0.029  55.350  1.00  0.00    -0.267 OA
HETATM    2  C1  UNL     1      26.031   0.043  54.933  1.00  0.00     0.259 C 
HETATM    3  C2  UNL     1      25.174  -1.053  55.204  1.00  0.00     0.075 C 
HETATM    4  C3  UNL     1      23.918  -1.318  54.905  1.00  0.00     0.022 C 
HETATM    5  C4  UNL     1      22.551  -1.182  54.360  1.00  0.00     0.257 C 
HETATM    6  F1  UNL     1      21.635  -0.955  55.369  1.00  0.00    -0.238 F 
HETATM    7  C5  UNL     1      22.471  -0.170  53.252  1.00  0.00     0.154 C 
HETATM    8  F2  UNL     1      23.340   0.364  54.118  1.00  0.00    -0.205 F 
HETATM    9  C6  UNL     1      22.519   0.805  52.367  1.00  0.00     0.052 C 
HETATM   10  C13 UNL     1      23.267   2.051  52.238  1.00  0.00     0.043 A 
HETATM   11  C14 UNL     1      24.238   2.214  51.111  1.00  0.00     0.016 A 
HETATM   12  C15 UNL     1      24.740   1.872  52.438  1.00  0.00    -0.004 A 
HETATM   13  C16 UNL     1      25.274   2.951  53.348  1.00  0.00     0.006 C 
HETATM   14  O2  UNL     1      26.530   2.506  53.842  1.00  0.00     0.000 OA
HETATM   15  N2  UNL     1      26.280   1.308  54.370  1.00  0.00    -0.264 N 
HETATM   16  H14 UNL     1      27.079   1.973  54.260  1.00  0.00     0.190 HD
ENDROOT
BRANCH   9  17
HETATM   17  N1  UNL     1      21.539   0.131  51.626  1.00  0.00    -0.356 N 
HETATM   18  H4  UNL     1      21.721  -0.921  51.544  1.00  0.00     0.166 HD
BRANCH  17  19
HETATM   19  C7  UNL     1      20.375   0.606  51.000  1.00  0.00     0.054 A 
HETATM   20  C8  UNL     1      20.471   1.410  49.851  1.00  0.00     0.032 A 
HETATM   21  C9  UNL     1      19.305   1.901  49.250  1.00  0.00     0.020 A 
HETATM   22  C10 UNL     1      18.015   1.618  49.756  1.00  0.00     0.008 A 
HETATM   23  I1  UNL     1      16.250   2.341  48.896  1.00  0.00    -0.045 I 
HETATM   24  C11 UNL     1      18.016   0.836  50.864  1.00  0.00     0.044 A 
HETATM   25  C12 UNL     1      19.122   0.332  51.489  1.00  0.00     0.061 A 
HETATM   26 CL1  UNL     1      19.017  -0.677  52.932  1.00  0.00    -0.082 Cl
ENDBRANCH  17  19
ENDBRANCH   9  17
TORSDOF 2
ENDMDL
