MODEL 1
REMARK VINA RESULT:      -7.9      0.000      0.000
REMARK  7 active torsions:
REMARK  status: ('A' for Active; 'I' for Inactive)
REMARK       I    between atoms: N1_1  and  C1_2 
REMARK    1  A    between atoms: C1_2  and  C2_4 
REMARK    2  A    between atoms: C4_6  and  C5_7 
REMARK    3  A    between atoms: C10_13  and  O2_14 
REMARK    4  A    between atoms: O2_14  and  C11_15 
REMARK    5  A    between atoms: C11_15  and  C12_17 
REMARK    6  A    between atoms: C12_17  and  C13_19 
REMARK    7  A    between atoms: C14_20  and  C15_21 
ROOT
HETATM    1  C5  UNL     1      25.364  -0.370  54.423  1.00  0.00    -0.035 A 
HETATM    2  C6  UNL     1      24.783  -1.123  55.427  1.00  0.00     0.124 A 
HETATM    3  N2  UNL     1      23.461  -1.393  55.455  1.00  0.00    -0.260 NA
HETATM    4  C7  UNL     1      22.633  -0.939  54.499  1.00  0.00     0.067 A 
HETATM    5  C8  UNL     1      21.285  -1.248  54.582  1.00  0.00     0.035 A 
HETATM    6  C9  UNL     1      20.449  -0.777  53.596  1.00  0.00     0.039 A 
HETATM    7  C10 UNL     1      20.920  -0.014  52.544  1.00  0.00     0.071 A 
HETATM    8  C16 UNL     1      22.286   0.279  52.491  1.00  0.00     0.050 A 
HETATM    9  C17 UNL     1      23.164  -0.183  53.475  1.00  0.00    -0.004 A 
HETATM   10  C18 UNL     1      24.517   0.099  53.437  1.00  0.00     0.023 A 
ENDROOT
BRANCH   7  11
HETATM   11  O2  UNL     1      20.250   0.533  51.489  1.00  0.00    -0.328 OA
BRANCH  11  12
HETATM   12  C11 UNL     1      20.525   1.705  50.798  1.00  0.00     0.262 C 
HETATM   13 CL1  UNL     1      20.038   1.447  49.103  1.00  0.00    -0.091 Cl
BRANCH  12  14
HETATM   14  C12 UNL     1      19.720   2.889  51.307  1.00  0.00     0.237 C 
HETATM   15  F1  UNL     1      18.646   2.512  52.072  1.00  0.00    -0.241 F 
BRANCH  14  16
HETATM   16  C13 UNL     1      20.556   3.923  51.960  1.00  0.00     0.011 C 
HETATM   17  C14 UNL     1      21.873   3.907  51.998  1.00  0.00    -0.013 C 
BRANCH  17  18
HETATM   18  C15 UNL     1      23.051   4.674  52.504  1.00  0.00     0.141 C 
HETATM   19 CL2  UNL     1      24.231   3.536  53.184  1.00  0.00    -0.126 Cl
ENDBRANCH  17  18
ENDBRANCH  14  16
ENDBRANCH  12  14
ENDBRANCH  11  12
ENDBRANCH   7  11
BRANCH   1  20
HETATM   20  C4  UNL     1      26.815  -0.086  54.411  1.00  0.00     0.034 A 
HETATM   21  C2  UNL     1      27.450   0.752  53.396  1.00  0.00     0.087 A 
HETATM   22  C3  UNL     1      27.636  -0.754  53.272  1.00  0.00     0.025 A 
BRANCH  21  23
HETATM   23  C1  UNL     1      28.721   1.438  53.699  1.00  0.00     0.220 C 
HETATM   24  N1  UNL     1      29.997   0.829  53.534  1.00  0.00    -0.370 N 
HETATM   25  H1  UNL     1      30.385   0.677  54.511  1.00  0.00     0.159 HD
HETATM   26  H2  UNL     1      30.892   0.396  53.167  1.00  0.00     0.159 HD
HETATM   27  O1  UNL     1      28.720   2.622  54.129  1.00  0.00    -0.273 OA
ENDBRANCH  21  23
ENDBRANCH   1  20
TORSDOF 7
ENDMDL
MODEL 2
REMARK VINA RESULT:      -7.7      3.093      3.919
REMARK  7 active torsions:
REMARK  status: ('A' for Active; 'I' for Inactive)
REMARK       I    between atoms: N1_1  and  C1_2 
REMARK    1  A    between atoms: C1_2  and  C2_4 
REMARK    2  A    between atoms: C4_6  and  C5_7 
REMARK    3  A    between atoms: C10_13  and  O2_14 
REMARK    4  A    between atoms: O2_14  and  C11_15 
REMARK    5  A    between atoms: C11_15  and  C12_17 
REMARK    6  A    between atoms: C12_17  and  C13_19 
REMARK    7  A    between atoms: C14_20  and  C15_21 
ROOT
HETATM    1  C5  UNL     1      24.823   0.345  53.226  1.00  0.00    -0.035 A 
HETATM    2  C6  UNL     1      23.644  -0.377  53.282  1.00  0.00     0.124 A 
HETATM    3  N2  UNL     1      22.439   0.188  53.058  1.00  0.00    -0.260 NA
HETATM    4  C7  UNL     1      22.322   1.495  52.767  1.00  0.00     0.067 A 
HETATM    5  C8  UNL     1      21.059   2.019  52.548  1.00  0.00     0.035 A 
HETATM    6  C9  UNL     1      20.953   3.358  52.250  1.00  0.00     0.039 A 
HETATM    7  C10 UNL     1      22.064   4.176  52.168  1.00  0.00     0.071 A 
HETATM    8  C16 UNL     1      23.325   3.615  52.395  1.00  0.00     0.050 A 
HETATM    9  C17 UNL     1      23.470   2.258  52.700  1.00  0.00    -0.004 A 
HETATM   10  C18 UNL     1      24.708   1.689  52.927  1.00  0.00     0.023 A 
ENDROOT
BRANCH   7  11
HETATM   11  O2  UNL     1      22.154   5.507  51.888  1.00  0.00    -0.328 OA
BRANCH  11  12
HETATM   12  C11 UNL     1      22.285   6.130  50.654  1.00  0.00     0.262 C 
HETATM   13 CL1  UNL     1      21.249   7.581  50.681  1.00  0.00    -0.091 Cl
BRANCH  12  14
HETATM   14  C12 UNL     1      23.700   6.612  50.386  1.00  0.00     0.237 C 
HETATM   15  F1  UNL     1      24.380   6.930  51.534  1.00  0.00    -0.241 F 
BRANCH  14  16
HETATM   16  C13 UNL     1      24.464   5.705  49.499  1.00  0.00     0.011 C 
HETATM   17  C14 UNL     1      25.640   5.189  49.789  1.00  0.00    -0.013 C 
BRANCH  17  18
HETATM   18  C15 UNL     1      26.706   4.293  49.246  1.00  0.00     0.141 C 
HETATM   19 CL2  UNL     1      26.594   2.713  50.049  1.00  0.00    -0.126 Cl
ENDBRANCH  17  18
ENDBRANCH  14  16
ENDBRANCH  12  14
ENDBRANCH  11  12
ENDBRANCH   7  11
BRANCH   1  20
HETATM   20  C4  UNL     1      26.133  -0.294  53.475  1.00  0.00     0.034 A 
HETATM   21  C2  UNL     1      27.378   0.197  52.888  1.00  0.00     0.087 A 
HETATM   22  C3  UNL     1      26.765  -1.055  52.275  1.00  0.00     0.025 A 
BRANCH  21  23
HETATM   23  C1  UNL     1      28.666  -0.091  53.549  1.00  0.00     0.220 C 
HETATM   24  N1  UNL     1      29.742   0.840  53.604  1.00  0.00    -0.370 N 
HETATM   25  H1  UNL     1      30.507   0.451  52.979  1.00  0.00     0.159 HD
HETATM   26  H2  UNL     1      30.389   1.655  53.802  1.00  0.00     0.159 HD
HETATM   27  O1  UNL     1      28.865  -1.205  54.102  1.00  0.00    -0.273 OA
ENDBRANCH  21  23
ENDBRANCH   1  20
TORSDOF 7
ENDMDL
MODEL 3
REMARK VINA RESULT:      -7.6      2.563      4.087
REMARK  7 active torsions:
REMARK  status: ('A' for Active; 'I' for Inactive)
REMARK       I    between atoms: N1_1  and  C1_2 
REMARK    1  A    between atoms: C1_2  and  C2_4 
REMARK    2  A    between atoms: C4_6  and  C5_7 
REMARK    3  A    between atoms: C10_13  and  O2_14 
REMARK    4  A    between atoms: O2_14  and  C11_15 
REMARK    5  A    between atoms: C11_15  and  C12_17 
REMARK    6  A    between atoms: C12_17  and  C13_19 
REMARK    7  A    between atoms: C14_20  and  C15_21 
ROOT
HETATM    1  C5  UNL     1      26.497   1.313  52.058  1.00  0.00    -0.035 A 
HETATM    2  C6  UNL     1      26.835   2.458  51.360  1.00  0.00     0.124 A 
HETATM    3  N2  UNL     1      25.918   3.207  50.712  1.00  0.00    -0.260 NA
HETATM    4  C7  UNL     1      24.616   2.875  50.711  1.00  0.00     0.067 A 
HETATM    5  C8  UNL     1      23.721   3.681  50.028  1.00  0.00     0.035 A 
HETATM    6  C9  UNL     1      22.391   3.329  50.036  1.00  0.00     0.039 A 
HETATM    7  C10 UNL     1      21.939   2.205  50.701  1.00  0.00     0.071 A 
HETATM    8  C16 UNL     1      22.869   1.412  51.381  1.00  0.00     0.050 A 
HETATM    9  C17 UNL     1      24.228   1.740  51.394  1.00  0.00    -0.004 A 
HETATM   10  C18 UNL     1      25.159   0.967  52.061  1.00  0.00     0.023 A 
ENDROOT
BRANCH   7  11
HETATM   11  O2  UNL     1      20.676   1.705  50.818  1.00  0.00    -0.328 OA
BRANCH  11  12
HETATM   12  C11 UNL     1      19.810   1.774  51.901  1.00  0.00     0.262 C 
HETATM   13 CL1  UNL     1      18.560   2.980  51.502  1.00  0.00    -0.091 Cl
BRANCH  12  14
HETATM   14  C12 UNL     1      19.085   0.465  52.157  1.00  0.00     0.237 C 
HETATM   15  F1  UNL     1      18.654  -0.140  51.004  1.00  0.00    -0.241 F 
BRANCH  14  16
HETATM   16  C13 UNL     1      19.839  -0.455  53.039  1.00  0.00     0.011 C 
HETATM   17  C14 UNL     1      20.690  -0.072  53.968  1.00  0.00    -0.013 C 
BRANCH  17  18
HETATM   18  C15 UNL     1      21.612  -0.599  55.019  1.00  0.00     0.141 C 
HETATM   19 CL2  UNL     1      23.199  -0.913  54.287  1.00  0.00    -0.126 Cl
ENDBRANCH  17  18
ENDBRANCH  14  16
ENDBRANCH  12  14
ENDBRANCH  11  12
ENDBRANCH   7  11
BRANCH   1  20
HETATM   20  C4  UNL     1      27.517   0.507  52.762  1.00  0.00     0.034 A 
HETATM   21  C2  UNL     1      27.363  -0.925  53.011  1.00  0.00     0.087 A 
HETATM   22  C3  UNL     1      27.140   0.015  54.188  1.00  0.00     0.025 A 
BRANCH  21  23
HETATM   23  C1  UNL     1      28.557  -1.771  53.203  1.00  0.00     0.220 C 
HETATM   24  N1  UNL     1      28.529  -3.192  53.125  1.00  0.00    -0.370 N 
HETATM   25  H1  UNL     1      28.689  -3.549  54.111  1.00  0.00     0.159 HD
HETATM   26  H2  UNL     1      28.469  -4.206  52.822  1.00  0.00     0.159 HD
HETATM   27  O1  UNL     1      29.675  -1.249  53.451  1.00  0.00    -0.273 OA
ENDBRANCH  21  23
ENDBRANCH   1  20
TORSDOF 7
ENDMDL
MODEL 4
REMARK VINA RESULT:      -7.6      1.503      1.557
REMARK  7 active torsions:
REMARK  status: ('A' for Active; 'I' for Inactive)
REMARK       I    between atoms: N1_1  and  C1_2 
REMARK    1  A    between atoms: C1_2  and  C2_4 
REMARK    2  A    between atoms: C4_6  and  C5_7 
REMARK    3  A    between atoms: C10_13  and  O2_14 
REMARK    4  A    between atoms: O2_14  and  C11_15 
REMARK    5  A    between atoms: C11_15  and  C12_17 
REMARK    6  A    between atoms: C12_17  and  C13_19 
REMARK    7  A    between atoms: C14_20  and  C15_21 
ROOT
HETATM    1  C5  UNL     1      25.258  -0.320  54.272  1.00  0.00    -0.035 A 
HETATM    2  C6  UNL     1      24.699  -1.139  55.236  1.00  0.00     0.124 A 
HETATM    3  N2  UNL     1      23.369  -1.354  55.319  1.00  0.00    -0.260 NA
HETATM    4  C7  UNL     1      22.512  -0.779  54.460  1.00  0.00     0.067 A 
HETATM    5  C8  UNL     1      21.157  -1.036  54.594  1.00  0.00     0.035 A 
HETATM    6  C9  UNL     1      20.291  -0.440  53.707  1.00  0.00     0.039 A 
HETATM    7  C10 UNL     1      20.739   0.396  52.702  1.00  0.00     0.071 A 
HETATM    8  C16 UNL     1      22.112   0.636  52.594  1.00  0.00     0.050 A 
HETATM    9  C17 UNL     1      23.021   0.048  53.478  1.00  0.00    -0.004 A 
HETATM   10  C18 UNL     1      24.381   0.274  53.385  1.00  0.00     0.023 A 
ENDROOT
BRANCH   7  11
HETATM   11  O2  UNL     1      20.038   1.067  51.744  1.00  0.00    -0.328 OA
BRANCH  11  12
HETATM   12  C11 UNL     1      19.919   0.778  50.391  1.00  0.00     0.262 C 
HETATM   13 CL1  UNL     1      18.194   0.467  50.066  1.00  0.00    -0.091 Cl
BRANCH  12  14
HETATM   14  C12 UNL     1      20.325   1.941  49.503  1.00  0.00     0.237 C 
HETATM   15  F1  UNL     1      19.940   3.156  50.009  1.00  0.00    -0.241 F 
BRANCH  14  16
HETATM   16  C13 UNL     1      21.756   1.906  49.118  1.00  0.00     0.011 C 
HETATM   17  C14 UNL     1      22.653   2.794  49.493  1.00  0.00    -0.013 C 
BRANCH  17  18
HETATM   18  C15 UNL     1      24.101   3.140  49.362  1.00  0.00     0.141 C 
HETATM   19 CL2  UNL     1      24.923   2.765  50.889  1.00  0.00    -0.126 Cl
ENDBRANCH  17  18
ENDBRANCH  14  16
ENDBRANCH  12  14
ENDBRANCH  11  12
ENDBRANCH   7  11
BRANCH   1  20
HETATM   20  C4  UNL     1      26.718  -0.098  54.199  1.00  0.00     0.034 A 
HETATM   21  C2  UNL     1      27.322   0.927  53.350  1.00  0.00     0.087 A 
HETATM   22  C3  UNL     1      27.411  -0.516  52.871  1.00  0.00     0.025 A 
BRANCH  21  23
HETATM   23  C1  UNL     1      28.650   1.475  53.689  1.00  0.00     0.220 C 
HETATM   24  N1  UNL     1      29.861   0.742  53.535  1.00  0.00    -0.370 N 
HETATM   25  H1  UNL     1      30.212   0.533  54.515  1.00  0.00     0.159 HD
HETATM   26  H2  UNL     1      30.714   0.227  53.175  1.00  0.00     0.159 HD
HETATM   27  O1  UNL     1      28.761   2.644  54.142  1.00  0.00    -0.273 OA
ENDBRANCH  21  23
ENDBRANCH   1  20
TORSDOF 7
ENDMDL
MODEL 5
REMARK VINA RESULT:      -7.5      2.164      3.266
REMARK  7 active torsions:
REMARK  status: ('A' for Active; 'I' for Inactive)
REMARK       I    between atoms: N1_1  and  C1_2 
REMARK    1  A    between atoms: C1_2  and  C2_4 
REMARK    2  A    between atoms: C4_6  and  C5_7 
REMARK    3  A    between atoms: C10_13  and  O2_14 
REMARK    4  A    between atoms: O2_14  and  C11_15 
REMARK    5  A    between atoms: C11_15  and  C12_17 
REMARK    6  A    between atoms: C12_17  and  C13_19 
REMARK    7  A    between atoms: C14_20  and  C15_21 
ROOT
HETATM    1  C5  UNL     1      25.437  -0.312  54.391  1.00  0.00    -0.035 A 
HETATM    2  C6  UNL     1      24.843  -1.141  55.325  1.00  0.00     0.124 A 
HETATM    3  N2  UNL     1      23.509  -1.336  55.374  1.00  0.00    -0.260 NA
HETATM    4  C7  UNL     1      22.680  -0.729  54.509  1.00  0.00     0.067 A 
HETATM    5  C8  UNL     1      21.319  -0.967  54.608  1.00  0.00     0.035 A 
HETATM    6  C9  UNL     1      20.482  -0.338  53.716  1.00  0.00     0.039 A 
HETATM    7  C10 UNL     1      20.965   0.512  52.739  1.00  0.00     0.071 A 
HETATM    8  C16 UNL     1      22.344   0.731  52.666  1.00  0.00     0.050 A 
HETATM    9  C17 UNL     1      23.224   0.110  53.557  1.00  0.00    -0.004 A 
HETATM   10  C18 UNL     1      24.589   0.316  53.498  1.00  0.00     0.023 A 
ENDROOT
BRANCH   7  11
HETATM   11  O2  UNL     1      20.296   1.214  51.780  1.00  0.00    -0.328 OA
BRANCH  11  12
HETATM   12  C11 UNL     1      19.024   1.767  51.835  1.00  0.00     0.262 C 
HETATM   13 CL1  UNL     1      19.184   3.502  51.459  1.00  0.00    -0.091 Cl
BRANCH  12  14
HETATM   14  C12 UNL     1      18.084   1.182  50.796  1.00  0.00     0.237 C 
HETATM   15  F1  UNL     1      18.747   0.591  49.751  1.00  0.00    -0.241 F 
BRANCH  14  16
HETATM   16  C13 UNL     1      17.041   0.308  51.381  1.00  0.00     0.011 C 
HETATM   17  C14 UNL     1      17.281  -0.809  52.036  1.00  0.00    -0.013 C 
BRANCH  17  18
HETATM   18  C15 UNL     1      16.600  -1.932  52.749  1.00  0.00     0.141 C 
HETATM   19 CL2  UNL     1      17.789  -2.774  53.763  1.00  0.00    -0.126 Cl
ENDBRANCH  17  18
ENDBRANCH  14  16
ENDBRANCH  12  14
ENDBRANCH  11  12
ENDBRANCH   7  11
BRANCH   1  20
HETATM   20  C4  UNL     1      26.901  -0.111  54.354  1.00  0.00     0.034 A 
HETATM   21  C2  UNL     1      27.553   0.811  53.426  1.00  0.00     0.087 A 
HETATM   22  C3  UNL     1      27.641  -0.676  53.109  1.00  0.00     0.025 A 
BRANCH  21  23
HETATM   23  C1  UNL     1      28.873   1.380  53.759  1.00  0.00     0.220 C 
HETATM   24  N1  UNL     1      30.103   0.721  53.476  1.00  0.00    -0.370 N 
HETATM   25  H1  UNL     1      30.509   0.430  54.412  1.00  0.00     0.159 HD
HETATM   26  H2  UNL     1      30.956   0.282  53.027  1.00  0.00     0.159 HD
HETATM   27  O1  UNL     1      28.960   2.501  54.324  1.00  0.00    -0.273 OA
ENDBRANCH  21  23
ENDBRANCH   1  20
TORSDOF 7
ENDMDL
MODEL 6
REMARK VINA RESULT:      -7.1      5.368      6.968
REMARK  7 active torsions:
REMARK  status: ('A' for Active; 'I' for Inactive)
REMARK       I    between atoms: N1_1  and  C1_2 
REMARK    1  A    between atoms: C1_2  and  C2_4 
REMARK    2  A    between atoms: C4_6  and  C5_7 
REMARK    3  A    between atoms: C10_13  and  O2_14 
REMARK    4  A    between atoms: O2_14  and  C11_15 
REMARK    5  A    between atoms: C11_15  and  C12_17 
REMARK    6  A    between atoms: C12_17  and  C13_19 
REMARK    7  A    between atoms: C14_20  and  C15_21 
ROOT
HETATM    1  C5  UNL     1      25.626   1.212  52.050  1.00  0.00    -0.035 A 
HETATM    2  C6  UNL     1      24.251   1.240  51.902  1.00  0.00     0.124 A 
HETATM    3  N2  UNL     1      23.627   2.147  51.121  1.00  0.00    -0.260 NA
HETATM    4  C7  UNL     1      24.316   3.078  50.441  1.00  0.00     0.067 A 
HETATM    5  C8  UNL     1      23.620   3.983  49.656  1.00  0.00     0.035 A 
HETATM    6  C9  UNL     1      24.339   4.931  48.964  1.00  0.00     0.039 A 
HETATM    7  C10 UNL     1      25.717   4.996  49.037  1.00  0.00     0.071 A 
HETATM    8  C16 UNL     1      26.389   4.068  49.839  1.00  0.00     0.050 A 
HETATM    9  C17 UNL     1      25.691   3.092  50.555  1.00  0.00    -0.004 A 
HETATM   10  C18 UNL     1      26.340   2.168  51.351  1.00  0.00     0.023 A 
ENDROOT
BRANCH   7  11
HETATM   11  O2  UNL     1      26.587   5.855  48.431  1.00  0.00    -0.328 OA
BRANCH  11  12
HETATM   12  C11 UNL     1      26.633   7.240  48.503  1.00  0.00     0.262 C 
HETATM   13 CL1  UNL     1      26.234   7.696  50.180  1.00  0.00    -0.091 Cl
BRANCH  12  14
HETATM   14  C12 UNL     1      28.017   7.797  48.220  1.00  0.00     0.237 C 
HETATM   15  F1  UNL     1      28.594   8.376  49.321  1.00  0.00    -0.241 F 
BRANCH  14  16
HETATM   16  C13 UNL     1      28.909   6.822  47.550  1.00  0.00     0.011 C 
HETATM   17  C14 UNL     1      29.912   6.200  48.135  1.00  0.00    -0.013 C 
BRANCH  17  18
HETATM   18  C15 UNL     1      31.001   5.209  47.879  1.00  0.00     0.141 C 
HETATM   19 CL2  UNL     1      32.411   5.635  48.868  1.00  0.00    -0.126 Cl
ENDBRANCH  17  18
ENDBRANCH  14  16
ENDBRANCH  12  14
ENDBRANCH  11  12
ENDBRANCH   7  11
BRANCH   1  20
HETATM   20  C4  UNL     1      26.291   0.210  52.910  1.00  0.00     0.034 A 
HETATM   21  C2  UNL     1      27.685  -0.190  52.730  1.00  0.00     0.087 A 
HETATM   22  C3  UNL     1      26.614  -1.159  52.247  1.00  0.00     0.025 A 
BRANCH  21  23
HETATM   23  C1  UNL     1      28.446  -0.738  53.869  1.00  0.00     0.220 C 
HETATM   24  N1  UNL     1      29.434  -1.755  53.734  1.00  0.00    -0.370 N 
HETATM   25  H1  UNL     1      29.029  -2.626  54.184  1.00  0.00     0.159 HD
HETATM   26  H2  UNL     1      30.298  -2.328  53.519  1.00  0.00     0.159 HD
HETATM   27  O1  UNL     1      28.242  -0.313  55.036  1.00  0.00    -0.273 OA
ENDBRANCH  21  23
ENDBRANCH   1  20
TORSDOF 7
ENDMDL
MODEL 7
REMARK VINA RESULT:      -6.9      3.501      6.777
REMARK  7 active torsions:
REMARK  status: ('A' for Active; 'I' for Inactive)
REMARK       I    between atoms: N1_1  and  C1_2 
REMARK    1  A    between atoms: C1_2  and  C2_4 
REMARK    2  A    between atoms: C4_6  and  C5_7 
REMARK    3  A    between atoms: C10_13  and  O2_14 
REMARK    4  A    between atoms: O2_14  and  C11_15 
REMARK    5  A    between atoms: C11_15  and  C12_17 
REMARK    6  A    between atoms: C12_17  and  C13_19 
REMARK    7  A    between atoms: C14_20  and  C15_21 
ROOT
HETATM    1  C5  UNL     1      19.875   0.492  51.781  1.00  0.00    -0.035 A 
HETATM    2  C6  UNL     1      19.251  -0.152  52.834  1.00  0.00     0.124 A 
HETATM    3  N2  UNL     1      19.942  -0.732  53.837  1.00  0.00    -0.260 NA
HETATM    4  C7  UNL     1      21.285  -0.715  53.864  1.00  0.00     0.067 A 
HETATM    5  C8  UNL     1      21.940  -1.328  54.919  1.00  0.00     0.035 A 
HETATM    6  C9  UNL     1      23.316  -1.302  54.934  1.00  0.00     0.039 A 
HETATM    7  C10 UNL     1      24.044  -0.686  53.934  1.00  0.00     0.071 A 
HETATM    8  C16 UNL     1      23.352  -0.076  52.883  1.00  0.00     0.050 A 
HETATM    9  C17 UNL     1      21.955  -0.084  52.835  1.00  0.00    -0.004 A 
HETATM   10  C18 UNL     1      21.256   0.514  51.804  1.00  0.00     0.023 A 
ENDROOT
BRANCH   7  11
HETATM   11  O2  UNL     1      25.393  -0.561  53.782  1.00  0.00    -0.328 OA
BRANCH  11  12
HETATM   12  C11 UNL     1      26.151   0.596  53.657  1.00  0.00     0.262 C 
HETATM   13 CL1  UNL     1      27.480   0.488  54.841  1.00  0.00    -0.091 Cl
BRANCH  12  14
HETATM   14  C12 UNL     1      26.797   0.730  52.290  1.00  0.00     0.237 C 
HETATM   15  F1  UNL     1      26.767  -0.437  51.570  1.00  0.00    -0.241 F 
BRANCH  14  16
HETATM   16  C13 UNL     1      26.292   1.892  51.520  1.00  0.00     0.011 C 
HETATM   17  C14 UNL     1      25.219   2.588  51.833  1.00  0.00    -0.013 C 
BRANCH  17  18
HETATM   18  C15 UNL     1      24.392   3.750  51.388  1.00  0.00     0.141 C 
HETATM   19 CL2  UNL     1      22.869   3.756  52.301  1.00  0.00    -0.126 Cl
ENDBRANCH  17  18
ENDBRANCH  14  16
ENDBRANCH  12  14
ENDBRANCH  11  12
ENDBRANCH   7  11
BRANCH   1  20
HETATM   20  C4  UNL     1      19.099   1.123  50.691  1.00  0.00     0.034 A 
HETATM   21  C2  UNL     1      19.552   2.318  49.983  1.00  0.00     0.087 A 
HETATM   22  C3  UNL     1      18.448   2.497  51.017  1.00  0.00     0.025 A 
BRANCH  21  23
HETATM   23  C1  UNL     1      19.071   2.590  48.615  1.00  0.00     0.220 C 
HETATM   24  N1  UNL     1      19.927   2.627  47.478  1.00  0.00    -0.370 N 
HETATM   25  H1  UNL     1      19.967   3.641  47.166  1.00  0.00     0.159 HD
HETATM   26  H2  UNL     1      20.580   2.407  46.673  1.00  0.00     0.159 HD
HETATM   27  O1  UNL     1      17.850   2.806  48.399  1.00  0.00    -0.273 OA
ENDBRANCH  21  23
ENDBRANCH   1  20
TORSDOF 7
ENDMDL
MODEL 8
REMARK VINA RESULT:      -6.9      5.775      7.866
REMARK  7 active torsions:
REMARK  status: ('A' for Active; 'I' for Inactive)
REMARK       I    between atoms: N1_1  and  C1_2 
REMARK    1  A    between atoms: C1_2  and  C2_4 
REMARK    2  A    between atoms: C4_6  and  C5_7 
REMARK    3  A    between atoms: C10_13  and  O2_14 
REMARK    4  A    between atoms: O2_14  and  C11_15 
REMARK    5  A    between atoms: C11_15  and  C12_17 
REMARK    6  A    between atoms: C12_17  and  C13_19 
REMARK    7  A    between atoms: C14_20  and  C15_21 
ROOT
HETATM    1  C5  UNL     1      28.749   6.215  47.994  1.00  0.00    -0.035 A 
HETATM    2  C6  UNL     1      27.929   7.293  47.717  1.00  0.00     0.124 A 
HETATM    3  N2  UNL     1      26.610   7.290  48.004  1.00  0.00    -0.260 NA
HETATM    4  C7  UNL     1      26.020   6.227  48.578  1.00  0.00     0.067 A 
HETATM    5  C8  UNL     1      24.663   6.282  48.847  1.00  0.00     0.035 A 
HETATM    6  C9  UNL     1      24.073   5.187  49.435  1.00  0.00     0.039 A 
HETATM    7  C10 UNL     1      24.796   4.054  49.756  1.00  0.00     0.071 A 
HETATM    8  C16 UNL     1      26.164   4.031  49.470  1.00  0.00     0.050 A 
HETATM    9  C17 UNL     1      26.797   5.125  48.873  1.00  0.00    -0.004 A 
HETATM   10  C18 UNL     1      28.148   5.119  48.584  1.00  0.00     0.023 A 
ENDROOT
BRANCH   7  11
HETATM   11  O2  UNL     1      24.388   2.888  50.335  1.00  0.00    -0.328 OA
BRANCH  11  12
HETATM   12  C11 UNL     1      23.876   2.682  51.609  1.00  0.00     0.262 C 
HETATM   13 CL1  UNL     1      23.255   1.012  51.666  1.00  0.00    -0.091 Cl
BRANCH  12  14
HETATM   14  C12 UNL     1      24.936   2.789  52.691  1.00  0.00     0.237 C 
HETATM   15  F1  UNL     1      24.474   3.398  53.830  1.00  0.00    -0.241 F 
BRANCH  14  16
HETATM   16  C13 UNL     1      25.619   1.503  52.964  1.00  0.00     0.011 C 
HETATM   17  C14 UNL     1      26.429   1.287  53.980  1.00  0.00    -0.013 C 
BRANCH  17  18
HETATM   18  C15 UNL     1      27.281   0.233  54.610  1.00  0.00     0.141 C 
HETATM   19 CL2  UNL     1      28.540  -0.255  53.458  1.00  0.00    -0.126 Cl
ENDBRANCH  17  18
ENDBRANCH  14  16
ENDBRANCH  12  14
ENDBRANCH  11  12
ENDBRANCH   7  11
BRANCH   1  20
HETATM   20  C4  UNL     1      30.192   6.238  47.672  1.00  0.00     0.034 A 
HETATM   21  C2  UNL     1      31.187   5.482  48.430  1.00  0.00     0.087 A 
HETATM   22  C3  UNL     1      31.110   6.982  48.684  1.00  0.00     0.025 A 
BRANCH  21  23
HETATM   23  C1  UNL     1      32.462   5.099  47.794  1.00  0.00     0.220 C 
HETATM   24  N1  UNL     1      33.237   3.978  48.208  1.00  0.00    -0.370 N 
HETATM   25  H1  UNL     1      34.115   4.372  48.657  1.00  0.00     0.159 HD
HETATM   26  H2  UNL     1      33.622   3.014  48.418  1.00  0.00     0.159 HD
HETATM   27  O1  UNL     1      32.923   5.770  46.834  1.00  0.00    -0.273 OA
ENDBRANCH  21  23
ENDBRANCH   1  20
TORSDOF 7
ENDMDL
MODEL 9
REMARK VINA RESULT:      -6.8      4.019      4.914
REMARK  7 active torsions:
REMARK  status: ('A' for Active; 'I' for Inactive)
REMARK       I    between atoms: N1_1  and  C1_2 
REMARK    1  A    between atoms: C1_2  and  C2_4 
REMARK    2  A    between atoms: C4_6  and  C5_7 
REMARK    3  A    between atoms: C10_13  and  O2_14 
REMARK    4  A    between atoms: O2_14  and  C11_15 
REMARK    5  A    between atoms: C11_15  and  C12_17 
REMARK    6  A    between atoms: C12_17  and  C13_19 
REMARK    7  A    between atoms: C14_20  and  C15_21 
ROOT
HETATM    1  C5  UNL     1      25.253  -0.005  53.075  1.00  0.00    -0.035 A 
HETATM    2  C6  UNL     1      23.939  -0.279  53.409  1.00  0.00     0.124 A 
HETATM    3  N2  UNL     1      22.933   0.583  53.152  1.00  0.00    -0.260 NA
HETATM    4  C7  UNL     1      23.159   1.765  52.554  1.00  0.00     0.067 A 
HETATM    5  C8  UNL     1      22.087   2.610  52.317  1.00  0.00     0.035 A 
HETATM    6  C9  UNL     1      22.334   3.816  51.703  1.00  0.00     0.039 A 
HETATM    7  C10 UNL     1      23.608   4.195  51.326  1.00  0.00     0.071 A 
HETATM    8  C16 UNL     1      24.668   3.319  51.580  1.00  0.00     0.050 A 
HETATM    9  C17 UNL     1      24.455   2.085  52.201  1.00  0.00    -0.004 A 
HETATM   10  C18 UNL     1      25.491   1.209  52.459  1.00  0.00     0.023 A 
ENDROOT
BRANCH   7  11
HETATM   11  O2  UNL     1      24.039   5.335  50.715  1.00  0.00    -0.328 OA
BRANCH  11  12
HETATM   12  C11 UNL     1      23.418   6.075  49.717  1.00  0.00     0.262 C 
HETATM   13 CL1  UNL     1      23.292   7.754  50.305  1.00  0.00    -0.091 Cl
BRANCH  12  14
HETATM   14  C12 UNL     1      24.226   6.124  48.433  1.00  0.00     0.237 C 
HETATM   15  F1  UNL     1      23.836   7.138  47.597  1.00  0.00    -0.241 F 
BRANCH  14  16
HETATM   16  C13 UNL     1      25.689   6.103  48.666  1.00  0.00     0.011 C 
HETATM   17  C14 UNL     1      26.486   7.140  48.518  1.00  0.00    -0.013 C 
BRANCH  17  18
HETATM   18  C15 UNL     1      27.916   7.559  48.630  1.00  0.00     0.141 C 
HETATM   19 CL2  UNL     1      28.752   7.165  47.114  1.00  0.00    -0.126 Cl
ENDBRANCH  17  18
ENDBRANCH  14  16
ENDBRANCH  12  14
ENDBRANCH  11  12
ENDBRANCH   7  11
BRANCH   1  20
HETATM   20  C4  UNL     1      26.340  -0.964  53.365  1.00  0.00     0.034 A 
HETATM   21  C2  UNL     1      27.658  -0.882  52.739  1.00  0.00     0.087 A 
HETATM   22  C3  UNL     1      26.707  -1.954  52.223  1.00  0.00     0.025 A 
BRANCH  21  23
HETATM   23  C1  UNL     1      28.831  -1.470  53.414  1.00  0.00     0.220 C 
HETATM   24  N1  UNL     1      29.140  -2.860  53.377  1.00  0.00    -0.370 N 
HETATM   25  H1  UNL     1      28.973  -3.229  54.358  1.00  0.00     0.159 HD
HETATM   26  H2  UNL     1      29.422  -3.845  53.108  1.00  0.00     0.159 HD
HETATM   27  O1  UNL     1      29.623  -0.741  54.067  1.00  0.00    -0.273 OA
ENDBRANCH  21  23
ENDBRANCH   1  20
TORSDOF 7
ENDMDL
