MODEL 1
REMARK VINA RESULT:      -8.5      0.000      0.000
REMARK  7 active torsions:
REMARK  status: ('A' for Active; 'I' for Inactive)
REMARK    1  A    between atoms: N1_1  and  C1_2 
REMARK    2  A    between atoms: C6_8  and  C7_9 
REMARK    3  A    between atoms: C7_9  and  N2_10 
REMARK    4  A    between atoms: N2_10  and  C8_11 
REMARK    5  A    between atoms: C8_11  and  C9_12 
REMARK    6  A    between atoms: C12_17  and  N5_18 
REMARK    7  A    between atoms: N5_18  and  C13_19 
ROOT
HETATM    1  C9  UNL     1      27.000   1.499  52.913  1.00  0.00     0.033 A 
HETATM    2  C10 UNL     1      28.000   2.293  53.443  1.00  0.00     0.130 A 
HETATM    3  N3  UNL     1      28.786   1.756  54.391  1.00  0.00    -0.253 NA
HETATM    4  C11 UNL     1      28.629   0.474  54.836  1.00  0.00     0.234 A 
HETATM    5  N4  UNL     1      27.644  -0.294  54.307  1.00  0.00    -0.224 NA
HETATM    6  C12 UNL     1      26.825   0.203  53.348  1.00  0.00     0.139 A 
ENDROOT
BRANCH   1   7
HETATM    7  C8  UNL     1      26.136   2.088  51.874  1.00  0.00     0.314 C 
BRANCH   7   8
HETATM    8  N2  UNL     1      26.757   3.200  51.181  1.00  0.00     0.092 N 
HETATM    9  H8  UNL     1      27.774   3.170  51.410  1.00  0.00     0.316 HD
BRANCH   8  10
HETATM   10  C7  UNL     1      26.609   3.118  49.751  1.00  0.00     0.312 C 
BRANCH  10  11
HETATM   11  C6  UNL     1      26.050   4.403  49.252  1.00  0.00     0.018 A 
HETATM   12  C1  UNL     1      26.830   5.484  48.872  1.00  0.00     0.035 A 
HETATM   13  C2  UNL     1      26.305   6.672  48.410  1.00  0.00     0.029 A 
HETATM   14  C3  UNL     1      24.929   6.816  48.312  1.00  0.00     0.004 A 
HETATM   15  C4  UNL     1      24.122   5.764  48.679  1.00  0.00     0.024 A 
HETATM   16  C5  UNL     1      24.664   4.565  49.146  1.00  0.00     0.044 A 
HETATM   17 CL1  UNL     1      23.665   3.187  49.630  1.00  0.00    -0.084 Cl
BRANCH  12  18
HETATM   18  N1  UNL     1      28.240   5.376  48.958  1.00  0.00    -0.399 N 
HETATM   19  H1  UNL     1      28.721   6.291  48.827  1.00  0.00     0.156 HD
HETATM   20  H2  UNL     1      28.991   4.671  49.112  1.00  0.00     0.156 HD
ENDBRANCH  12  18
ENDBRANCH  10  11
ENDBRANCH   8  10
ENDBRANCH   7   8
ENDBRANCH   1   7
BRANCH   6  21
HETATM   21  N5  UNL     1      25.806  -0.638  52.819  1.00  0.00    -0.340 N 
HETATM   22  H13 UNL     1      25.891  -1.232  51.987  1.00  0.00     0.167 HD
BRANCH  21  23
HETATM   23  C13 UNL     1      24.566  -0.635  53.526  1.00  0.00     0.035 A 
HETATM   24  C14 UNL     1      24.436  -1.222  54.771  1.00  0.00     0.029 A 
HETATM   25  C15 UNL     1      23.274  -1.261  55.517  1.00  0.00     0.004 A 
HETATM   26  C16 UNL     1      22.181  -0.658  54.948  1.00  0.00     0.019 A 
HETATM   27  C17 UNL     1      22.230  -0.047  53.701  1.00  0.00     0.013 A 
HETATM   28 BR1  UNL     1      20.702   0.775  52.942  1.00  0.00    -0.051 Br
HETATM   29  C18 UNL     1      23.431  -0.049  53.012  1.00  0.00     0.048 A 
ENDBRANCH  21  23
ENDBRANCH   6  21
TORSDOF 7
ENDMDL
MODEL 2
REMARK VINA RESULT:      -8.4      3.394      7.488
REMARK  7 active torsions:
REMARK  status: ('A' for Active; 'I' for Inactive)
REMARK    1  A    between atoms: N1_1  and  C1_2 
REMARK    2  A    between atoms: C6_8  and  C7_9 
REMARK    3  A    between atoms: C7_9  and  N2_10 
REMARK    4  A    between atoms: N2_10  and  C8_11 
REMARK    5  A    between atoms: C8_11  and  C9_12 
REMARK    6  A    between atoms: C12_17  and  N5_18 
REMARK    7  A    between atoms: N5_18  and  C13_19 
ROOT
HETATM    1  C9  UNL     1      23.902   2.722  51.771  1.00  0.00     0.033 A 
HETATM    2  C10 UNL     1      23.246   1.528  51.538  1.00  0.00     0.130 A 
HETATM    3  N3  UNL     1      22.569   1.404  50.384  1.00  0.00    -0.253 NA
HETATM    4  C11 UNL     1      22.512   2.403  49.455  1.00  0.00     0.234 A 
HETATM    5  N4  UNL     1      23.160   3.570  49.697  1.00  0.00    -0.224 NA
HETATM    6  C12 UNL     1      23.856   3.743  50.847  1.00  0.00     0.139 A 
ENDROOT
BRANCH   1   7
HETATM    7  C8  UNL     1      24.644   2.860  53.037  1.00  0.00     0.314 C 
BRANCH   7   8
HETATM    8  N2  UNL     1      26.013   2.389  52.948  1.00  0.00     0.092 N 
HETATM    9  H8  UNL     1      26.606   3.219  52.732  1.00  0.00     0.316 HD
BRANCH   8  10
HETATM   10  C7  UNL     1      26.481   1.801  54.176  1.00  0.00     0.312 C 
BRANCH  10  11
HETATM   11  C6  UNL     1      27.504   0.770  53.856  1.00  0.00     0.018 A 
HETATM   12  C1  UNL     1      28.870   0.997  53.923  1.00  0.00     0.035 A 
HETATM   13  C2  UNL     1      29.813   0.037  53.625  1.00  0.00     0.029 A 
HETATM   14  C3  UNL     1      29.398  -1.228  53.235  1.00  0.00     0.004 A 
HETATM   15  C4  UNL     1      28.050  -1.491  53.157  1.00  0.00     0.024 A 
HETATM   16  C5  UNL     1      27.102  -0.511  53.461  1.00  0.00     0.044 A 
HETATM   17 CL1  UNL     1      25.359  -0.804  53.375  1.00  0.00    -0.084 Cl
BRANCH  12  18
HETATM   18  N1  UNL     1      29.334   2.276  54.317  1.00  0.00    -0.399 N 
HETATM   19  H1  UNL     1      30.355   2.286  54.524  1.00  0.00     0.156 HD
HETATM   20  H2  UNL     1      28.995   3.247  54.478  1.00  0.00     0.156 HD
ENDBRANCH  12  18
ENDBRANCH  10  11
ENDBRANCH   8  10
ENDBRANCH   7   8
ENDBRANCH   1   7
BRANCH   6  21
HETATM   21  N5  UNL     1      24.523   4.982  51.059  1.00  0.00    -0.340 N 
HETATM   22  H13 UNL     1      24.313   5.656  51.804  1.00  0.00     0.167 HD
BRANCH  21  23
HETATM   23  C13 UNL     1      25.572   5.292  50.141  1.00  0.00     0.035 A 
HETATM   24  C14 UNL     1      26.448   4.323  49.683  1.00  0.00     0.029 A 
HETATM   25  C15 UNL     1      27.484   4.541  48.797  1.00  0.00     0.004 A 
HETATM   26  C16 UNL     1      27.628   5.832  48.356  1.00  0.00     0.019 A 
HETATM   27  C17 UNL     1      26.790   6.861  48.769  1.00  0.00     0.013 A 
HETATM   28 BR1  UNL     1      27.016   8.633  48.141  1.00  0.00    -0.051 Br
HETATM   29  C18 UNL     1      25.772   6.565  49.660  1.00  0.00     0.048 A 
ENDBRANCH  21  23
ENDBRANCH   6  21
TORSDOF 7
ENDMDL
MODEL 3
REMARK VINA RESULT:      -8.3      2.267      6.030
REMARK  7 active torsions:
REMARK  status: ('A' for Active; 'I' for Inactive)
REMARK    1  A    between atoms: N1_1  and  C1_2 
REMARK    2  A    between atoms: C6_8  and  C7_9 
REMARK    3  A    between atoms: C7_9  and  N2_10 
REMARK    4  A    between atoms: N2_10  and  C8_11 
REMARK    5  A    between atoms: C8_11  and  C9_12 
REMARK    6  A    between atoms: C12_17  and  N5_18 
REMARK    7  A    between atoms: N5_18  and  C13_19 
ROOT
HETATM    1  C9  UNL     1      26.013   3.600  50.458  1.00  0.00     0.033 A 
HETATM    2  C10 UNL     1      26.792   4.009  49.392  1.00  0.00     0.130 A 
HETATM    3  N3  UNL     1      26.422   5.124  48.742  1.00  0.00    -0.253 NA
HETATM    4  C11 UNL     1      25.320   5.850  49.096  1.00  0.00     0.234 A 
HETATM    5  N4  UNL     1      24.565   5.437  50.144  1.00  0.00    -0.224 NA
HETATM    6  C12 UNL     1      24.898   4.318  50.832  1.00  0.00     0.139 A 
ENDROOT
BRANCH   1   7
HETATM    7  C8  UNL     1      26.417   2.375  51.172  1.00  0.00     0.314 C 
BRANCH   7   8
HETATM    8  N2  UNL     1      27.240   2.642  52.337  1.00  0.00     0.092 N 
HETATM    9  H8  UNL     1      27.069   3.635  52.608  1.00  0.00     0.316 HD
BRANCH   8  10
HETATM   10  C7  UNL     1      26.908   1.800  53.457  1.00  0.00     0.312 C 
BRANCH  10  11
HETATM   11  C6  UNL     1      27.821   0.627  53.463  1.00  0.00     0.018 A 
HETATM   12  C1  UNL     1      29.156   0.694  53.829  1.00  0.00     0.035 A 
HETATM   13  C2  UNL     1      29.998  -0.398  53.833  1.00  0.00     0.029 A 
HETATM   14  C3  UNL     1      29.506  -1.638  53.453  1.00  0.00     0.004 A 
HETATM   15  C4  UNL     1      28.184  -1.744  53.082  1.00  0.00     0.024 A 
HETATM   16  C5  UNL     1      27.341  -0.632  53.083  1.00  0.00     0.044 A 
HETATM   17 CL1  UNL     1      25.637  -0.721  52.615  1.00  0.00    -0.084 Cl
BRANCH  12  18
HETATM   18  N1  UNL     1      29.697   1.943  54.223  1.00  0.00    -0.399 N 
HETATM   19  H1  UNL     1      29.120   2.420  54.947  1.00  0.00     0.156 HD
HETATM   20  H2  UNL     1      30.504   2.573  54.031  1.00  0.00     0.156 HD
ENDBRANCH  12  18
ENDBRANCH  10  11
ENDBRANCH   8  10
ENDBRANCH   7   8
ENDBRANCH   1   7
BRANCH   6  21
HETATM   21  N5  UNL     1      24.078   3.921  51.926  1.00  0.00    -0.340 N 
HETATM   22  H13 UNL     1      24.020   4.395  52.834  1.00  0.00     0.167 HD
BRANCH  21  23
HETATM   23  C13 UNL     1      23.278   2.758  51.716  1.00  0.00     0.035 A 
HETATM   24  C14 UNL     1      22.671   2.501  50.500  1.00  0.00     0.029 A 
HETATM   25  C15 UNL     1      21.885   1.402  50.217  1.00  0.00     0.004 A 
HETATM   26  C16 UNL     1      21.713   0.513  51.248  1.00  0.00     0.019 A 
HETATM   27  C17 UNL     1      22.289   0.699  52.499  1.00  0.00     0.013 A 
HETATM   28 BR1  UNL     1      22.031  -0.547  53.902  1.00  0.00    -0.051 Br
HETATM   29  C18 UNL     1      23.065   1.827  52.707  1.00  0.00     0.048 A 
ENDBRANCH  21  23
ENDBRANCH   6  21
TORSDOF 7
ENDMDL
MODEL 4
REMARK VINA RESULT:      -8.2      2.939      5.662
REMARK  7 active torsions:
REMARK  status: ('A' for Active; 'I' for Inactive)
REMARK    1  A    between atoms: N1_1  and  C1_2 
REMARK    2  A    between atoms: C6_8  and  C7_9 
REMARK    3  A    between atoms: C7_9  and  N2_10 
REMARK    4  A    between atoms: N2_10  and  C8_11 
REMARK    5  A    between atoms: C8_11  and  C9_12 
REMARK    6  A    between atoms: C12_17  and  N5_18 
REMARK    7  A    between atoms: N5_18  and  C13_19 
ROOT
HETATM    1  C9  UNL     1      23.999   2.922  51.738  1.00  0.00     0.033 A 
HETATM    2  C10 UNL     1      24.242   4.256  52.004  1.00  0.00     0.130 A 
HETATM    3  N3  UNL     1      23.182   5.077  52.095  1.00  0.00    -0.253 NA
HETATM    4  C11 UNL     1      21.898   4.640  51.934  1.00  0.00     0.234 A 
HETATM    5  N4  UNL     1      21.674   3.328  51.673  1.00  0.00    -0.224 NA
HETATM    6  C12 UNL     1      22.711   2.460  51.572  1.00  0.00     0.139 A 
ENDROOT
BRANCH   1   7
HETATM    7  C8  UNL     1      25.160   2.020  51.637  1.00  0.00     0.314 C 
BRANCH   7   8
HETATM    8  N2  UNL     1      26.281   2.444  52.454  1.00  0.00     0.092 N 
HETATM    9  H8  UNL     1      26.121   3.447  52.692  1.00  0.00     0.316 HD
BRANCH   8  10
HETATM   10  C7  UNL     1      26.390   1.696  53.681  1.00  0.00     0.312 C 
BRANCH  10  11
HETATM   11  C6  UNL     1      27.537   0.756  53.569  1.00  0.00     0.018 A 
HETATM   12  C1  UNL     1      28.859   1.134  53.744  1.00  0.00     0.035 A 
HETATM   13  C2  UNL     1      29.918   0.257  53.640  1.00  0.00     0.029 A 
HETATM   14  C3  UNL     1      29.672  -1.076  53.345  1.00  0.00     0.004 A 
HETATM   15  C4  UNL     1      28.371  -1.489  53.165  1.00  0.00     0.024 A 
HETATM   16  C5  UNL     1      27.306  -0.592  53.273  1.00  0.00     0.044 A 
HETATM   17 CL1  UNL     1      25.619  -1.077  53.050  1.00  0.00    -0.084 Cl
BRANCH  12  18
HETATM   18  N1  UNL     1      29.153   2.486  54.046  1.00  0.00    -0.399 N 
HETATM   19  H1  UNL     1      29.238   3.079  53.193  1.00  0.00     0.156 HD
HETATM   20  H2  UNL     1      29.320   3.117  54.857  1.00  0.00     0.156 HD
ENDBRANCH  12  18
ENDBRANCH  10  11
ENDBRANCH   8  10
ENDBRANCH   7   8
ENDBRANCH   1   7
BRANCH   6  21
HETATM   21  N5  UNL     1      22.430   1.092  51.299  1.00  0.00    -0.340 N 
HETATM   22  H13 UNL     1      22.636   0.601  50.422  1.00  0.00     0.167 HD
BRANCH  21  23
HETATM   23  C13 UNL     1      21.804   0.361  52.353  1.00  0.00     0.035 A 
HETATM   24  C14 UNL     1      22.496  -0.007  53.494  1.00  0.00     0.029 A 
HETATM   25  C15 UNL     1      21.964  -0.712  54.556  1.00  0.00     0.004 A 
HETATM   26  C16 UNL     1      20.642  -1.059  54.437  1.00  0.00     0.019 A 
HETATM   27  C17 UNL     1      19.880  -0.727  53.324  1.00  0.00     0.013 A 
HETATM   28 BR1  UNL     1      18.056  -1.222  53.190  1.00  0.00    -0.051 Br
HETATM   29  C18 UNL     1      20.483  -0.019  52.298  1.00  0.00     0.048 A 
ENDBRANCH  21  23
ENDBRANCH   6  21
TORSDOF 7
ENDMDL
MODEL 5
REMARK VINA RESULT:      -8.0      2.721      6.027
REMARK  7 active torsions:
REMARK  status: ('A' for Active; 'I' for Inactive)
REMARK    1  A    between atoms: N1_1  and  C1_2 
REMARK    2  A    between atoms: C6_8  and  C7_9 
REMARK    3  A    between atoms: C7_9  and  N2_10 
REMARK    4  A    between atoms: N2_10  and  C8_11 
REMARK    5  A    between atoms: C8_11  and  C9_12 
REMARK    6  A    between atoms: C12_17  and  N5_18 
REMARK    7  A    between atoms: N5_18  and  C13_19 
ROOT
HETATM    1  C9  UNL     1      24.279   3.133  51.559  1.00  0.00     0.033 A 
HETATM    2  C10 UNL     1      25.219   3.156  50.546  1.00  0.00     0.130 A 
HETATM    3  N3  UNL     1      24.785   3.403  49.299  1.00  0.00    -0.253 NA
HETATM    4  C11 UNL     1      23.469   3.625  49.009  1.00  0.00     0.234 A 
HETATM    5  N4  UNL     1      22.557   3.599  50.013  1.00  0.00    -0.224 NA
HETATM    6  C12 UNL     1      22.946   3.355  51.288  1.00  0.00     0.139 A 
ENDROOT
BRANCH   1   7
HETATM    7  C8  UNL     1      24.753   2.862  52.928  1.00  0.00     0.314 C 
BRANCH   7   8
HETATM    8  N2  UNL     1      26.158   2.503  52.983  1.00  0.00     0.092 N 
HETATM    9  H8  UNL     1      26.699   3.394  52.952  1.00  0.00     0.316 HD
BRANCH   8  10
HETATM   10  C7  UNL     1      26.506   1.799  54.190  1.00  0.00     0.312 C 
BRANCH  10  11
HETATM   11  C6  UNL     1      27.515   0.756  53.862  1.00  0.00     0.018 A 
HETATM   12  C1  UNL     1      28.883   0.956  53.957  1.00  0.00     0.035 A 
HETATM   13  C2  UNL     1      29.813  -0.015  53.653  1.00  0.00     0.029 A 
HETATM   14  C3  UNL     1      29.381  -1.263  53.228  1.00  0.00     0.004 A 
HETATM   15  C4  UNL     1      28.030  -1.499  53.121  1.00  0.00     0.024 A 
HETATM   16  C5  UNL     1      27.096  -0.508  53.432  1.00  0.00     0.044 A 
HETATM   17 CL1  UNL     1      25.349  -0.766  53.311  1.00  0.00    -0.084 Cl
BRANCH  12  18
HETATM   18  N1  UNL     1      29.365   2.216  54.388  1.00  0.00    -0.399 N 
HETATM   19  H1  UNL     1      29.162   2.978  53.706  1.00  0.00     0.156 HD
HETATM   20  H2  UNL     1      29.872   2.662  55.180  1.00  0.00     0.156 HD
ENDBRANCH  12  18
ENDBRANCH  10  11
ENDBRANCH   8  10
ENDBRANCH   7   8
ENDBRANCH   1   7
BRANCH   6  21
HETATM   21  N5  UNL     1      21.956   3.339  52.311  1.00  0.00    -0.340 N 
HETATM   22  H13 UNL     1      21.771   4.096  52.978  1.00  0.00     0.167 HD
BRANCH  21  23
HETATM   23  C13 UNL     1      21.167   2.152  52.396  1.00  0.00     0.035 A 
HETATM   24  C14 UNL     1      19.959   2.032  51.733  1.00  0.00     0.029 A 
HETATM   25  C15 UNL     1      19.139   0.921  51.764  1.00  0.00     0.004 A 
HETATM   26  C16 UNL     1      19.590  -0.130  52.523  1.00  0.00     0.019 A 
HETATM   27  C17 UNL     1      20.793  -0.087  53.218  1.00  0.00     0.013 A 
HETATM   28 BR1  UNL     1      21.386  -1.554  54.258  1.00  0.00    -0.051 Br
HETATM   29  C18 UNL     1      21.560   1.062  53.140  1.00  0.00     0.048 A 
ENDBRANCH  21  23
ENDBRANCH   6  21
TORSDOF 7
ENDMDL
MODEL 6
REMARK VINA RESULT:      -7.9      3.433      7.137
REMARK  7 active torsions:
REMARK  status: ('A' for Active; 'I' for Inactive)
REMARK    1  A    between atoms: N1_1  and  C1_2 
REMARK    2  A    between atoms: C6_8  and  C7_9 
REMARK    3  A    between atoms: C7_9  and  N2_10 
REMARK    4  A    between atoms: N2_10  and  C8_11 
REMARK    5  A    between atoms: C8_11  and  C9_12 
REMARK    6  A    between atoms: C12_17  and  N5_18 
REMARK    7  A    between atoms: N5_18  and  C13_19 
ROOT
HETATM    1  C9  UNL     1      25.274   2.414  52.531  1.00  0.00     0.033 A 
HETATM    2  C10 UNL     1      25.637   2.285  53.858  1.00  0.00     0.130 A 
HETATM    3  N3  UNL     1      26.948   2.214  54.141  1.00  0.00    -0.253 NA
HETATM    4  C11 UNL     1      27.913   2.265  53.176  1.00  0.00     0.234 A 
HETATM    5  N4  UNL     1      27.542   2.392  51.877  1.00  0.00    -0.224 NA
HETATM    6  C12 UNL     1      26.231   2.468  51.541  1.00  0.00     0.139 A 
ENDROOT
BRANCH   1   7
HETATM    7  C8  UNL     1      23.835   2.490  52.218  1.00  0.00     0.314 C 
BRANCH   7   8
HETATM    8  N2  UNL     1      23.026   1.618  53.049  1.00  0.00     0.092 N 
HETATM    9  H8  UNL     1      22.109   2.095  53.185  1.00  0.00     0.316 HD
BRANCH   8  10
HETATM   10  C7  UNL     1      22.788   0.335  52.441  1.00  0.00     0.312 C 
BRANCH  10  11
HETATM   11  C6  UNL     1      21.321   0.114  52.346  1.00  0.00     0.018 A 
HETATM   12  C1  UNL     1      20.564   0.451  51.234  1.00  0.00     0.035 A 
HETATM   13  C2  UNL     1      19.204   0.243  51.152  1.00  0.00     0.029 A 
HETATM   14  C3  UNL     1      18.536  -0.330  52.224  1.00  0.00     0.004 A 
HETATM   15  C4  UNL     1      19.254  -0.679  53.345  1.00  0.00     0.024 A 
HETATM   16  C5  UNL     1      20.632  -0.464  53.418  1.00  0.00     0.044 A 
HETATM   17 CL1  UNL     1      21.595  -0.895  54.839  1.00  0.00    -0.084 Cl
BRANCH  12  18
HETATM   18  N1  UNL     1      21.209   1.039  50.118  1.00  0.00    -0.399 N 
HETATM   19  H1  UNL     1      20.589   1.694  49.596  1.00  0.00     0.156 HD
HETATM   20  H2  UNL     1      22.123   1.043  49.620  1.00  0.00     0.156 HD
ENDBRANCH  12  18
ENDBRANCH  10  11
ENDBRANCH   8  10
ENDBRANCH   7   8
ENDBRANCH   1   7
BRANCH   6  21
HETATM   21  N5  UNL     1      25.887   2.603  50.167  1.00  0.00    -0.340 N 
HETATM   22  H13 UNL     1      25.552   1.849  49.556  1.00  0.00     0.167 HD
BRANCH  21  23
HETATM   23  C13 UNL     1      26.031   3.911  49.613  1.00  0.00     0.035 A 
HETATM   24  C14 UNL     1      24.964   4.788  49.532  1.00  0.00     0.029 A 
HETATM   25  C15 UNL     1      25.021   6.066  49.013  1.00  0.00     0.004 A 
HETATM   26  C16 UNL     1      26.249   6.466  48.550  1.00  0.00     0.019 A 
HETATM   27  C17 UNL     1      27.368   5.644  48.596  1.00  0.00     0.013 A 
HETATM   28 BR1  UNL     1      29.050   6.225  47.946  1.00  0.00    -0.051 Br
HETATM   29  C18 UNL     1      27.233   4.374  49.130  1.00  0.00     0.048 A 
ENDBRANCH  21  23
ENDBRANCH   6  21
TORSDOF 7
ENDMDL
MODEL 7
REMARK VINA RESULT:      -7.8      3.050      7.353
REMARK  7 active torsions:
REMARK  status: ('A' for Active; 'I' for Inactive)
REMARK    1  A    between atoms: N1_1  and  C1_2 
REMARK    2  A    between atoms: C6_8  and  C7_9 
REMARK    3  A    between atoms: C7_9  and  N2_10 
REMARK    4  A    between atoms: N2_10  and  C8_11 
REMARK    5  A    between atoms: C8_11  and  C9_12 
REMARK    6  A    between atoms: C12_17  and  N5_18 
REMARK    7  A    between atoms: N5_18  and  C13_19 
ROOT
HETATM    1  C9  UNL     1      24.914   2.908  52.086  1.00  0.00     0.033 A 
HETATM    2  C10 UNL     1      25.102   2.688  53.437  1.00  0.00     0.130 A 
HETATM    3  N3  UNL     1      26.323   2.299  53.840  1.00  0.00    -0.253 NA
HETATM    4  C11 UNL     1      27.361   2.118  52.972  1.00  0.00     0.234 A 
HETATM    5  N4  UNL     1      27.162   2.338  51.649  1.00  0.00    -0.224 NA
HETATM    6  C12 UNL     1      25.948   2.731  51.192  1.00  0.00     0.139 A 
ENDROOT
BRANCH   1   7
HETATM    7  C8  UNL     1      23.574   3.334  51.641  1.00  0.00     0.314 C 
BRANCH   7   8
HETATM    8  N2  UNL     1      22.511   2.488  52.149  1.00  0.00     0.092 N 
HETATM    9  H8  UNL     1      21.611   2.954  51.906  1.00  0.00     0.316 HD
BRANCH   8  10
HETATM   10  C7  UNL     1      22.518   1.173  51.562  1.00  0.00     0.312 C 
BRANCH  10  11
HETATM   11  C6  UNL     1      22.009   0.198  52.563  1.00  0.00     0.018 A 
HETATM   12  C1  UNL     1      22.830  -0.550  53.393  1.00  0.00     0.035 A 
HETATM   13  C2  UNL     1      22.351  -1.452  54.319  1.00  0.00     0.029 A 
HETATM   14  C3  UNL     1      20.982  -1.637  54.445  1.00  0.00     0.004 A 
HETATM   15  C4  UNL     1      20.135  -0.912  53.638  1.00  0.00     0.024 A 
HETATM   16  C5  UNL     1      20.631  -0.001  52.703  1.00  0.00     0.044 A 
HETATM   17 CL1  UNL     1      19.581   0.953  51.645  1.00  0.00    -0.084 Cl
BRANCH  12  18
HETATM   18  N1  UNL     1      24.234  -0.390  53.295  1.00  0.00    -0.399 N 
HETATM   19  H1  UNL     1      24.550   0.561  53.582  1.00  0.00     0.156 HD
HETATM   20  H2  UNL     1      25.092  -0.913  53.024  1.00  0.00     0.156 HD
ENDBRANCH  12  18
ENDBRANCH  10  11
ENDBRANCH   8  10
ENDBRANCH   7   8
ENDBRANCH   1   7
BRANCH   6  21
HETATM   21  N5  UNL     1      25.784   2.952  49.796  1.00  0.00    -0.340 N 
HETATM   22  H13 UNL     1      25.366   2.293  49.130  1.00  0.00     0.167 HD
BRANCH  21  23
HETATM   23  C13 UNL     1      26.252   4.208  49.304  1.00  0.00     0.035 A 
HETATM   24  C14 UNL     1      25.410   5.298  49.175  1.00  0.00     0.029 A 
HETATM   25  C15 UNL     1      25.784   6.543  48.709  1.00  0.00     0.004 A 
HETATM   26  C16 UNL     1      27.104   6.674  48.355  1.00  0.00     0.019 A 
HETATM   27  C17 UNL     1      28.011   5.627  48.455  1.00  0.00     0.013 A 
HETATM   28 BR1  UNL     1      29.826   5.840  47.957  1.00  0.00    -0.051 Br
HETATM   29  C18 UNL     1      27.562   4.407  48.931  1.00  0.00     0.048 A 
ENDBRANCH  21  23
ENDBRANCH   6  21
TORSDOF 7
ENDMDL
MODEL 8
REMARK VINA RESULT:      -7.7      2.021      2.622
REMARK  7 active torsions:
REMARK  status: ('A' for Active; 'I' for Inactive)
REMARK    1  A    between atoms: N1_1  and  C1_2 
REMARK    2  A    between atoms: C6_8  and  C7_9 
REMARK    3  A    between atoms: C7_9  and  N2_10 
REMARK    4  A    between atoms: N2_10  and  C8_11 
REMARK    5  A    between atoms: C8_11  and  C9_12 
REMARK    6  A    between atoms: C12_17  and  N5_18 
REMARK    7  A    between atoms: N5_18  and  C13_19 
ROOT
HETATM    1  C9  UNL     1      24.796   2.259  53.049  1.00  0.00     0.033 A 
HETATM    2  C10 UNL     1      25.877   2.500  53.876  1.00  0.00     0.130 A 
HETATM    3  N3  UNL     1      26.663   1.457  54.192  1.00  0.00    -0.253 NA
HETATM    4  C11 UNL     1      26.430   0.194  53.731  1.00  0.00     0.234 A 
HETATM    5  N4  UNL     1      25.366  -0.028  52.920  1.00  0.00    -0.224 NA
HETATM    6  C12 UNL     1      24.543   0.991  52.571  1.00  0.00     0.139 A 
ENDROOT
BRANCH   1   7
HETATM    7  C8  UNL     1      23.931   3.401  52.701  1.00  0.00     0.314 C 
BRANCH   7   8
HETATM    8  N2  UNL     1      24.615   4.415  51.922  1.00  0.00     0.092 N 
HETATM    9  H8  UNL     1      25.637   4.279  52.078  1.00  0.00     0.316 HD
BRANCH   8  10
HETATM   10  C7  UNL     1      24.350   4.306  50.511  1.00  0.00     0.312 C 
BRANCH  10  11
HETATM   11  C6  UNL     1      25.469   4.938  49.762  1.00  0.00     0.018 A 
HETATM   12  C1  UNL     1      25.475   6.268  49.369  1.00  0.00     0.035 A 
HETATM   13  C2  UNL     1      26.515   6.848  48.676  1.00  0.00     0.029 A 
HETATM   14  C3  UNL     1      27.623   6.083  48.343  1.00  0.00     0.004 A 
HETATM   15  C4  UNL     1      27.653   4.758  48.717  1.00  0.00     0.024 A 
HETATM   16  C5  UNL     1      26.594   4.180  49.419  1.00  0.00     0.044 A 
HETATM   17 CL1  UNL     1      26.589   2.483  49.920  1.00  0.00    -0.084 Cl
BRANCH  12  18
HETATM   18  N1  UNL     1      24.362   7.083  49.689  1.00  0.00    -0.399 N 
HETATM   19  H1  UNL     1      24.204   7.840  48.991  1.00  0.00     0.156 HD
HETATM   20  H2  UNL     1      23.618   7.193  50.410  1.00  0.00     0.156 HD
ENDBRANCH  12  18
ENDBRANCH  10  11
ENDBRANCH   8  10
ENDBRANCH   7   8
ENDBRANCH   1   7
BRANCH   6  21
HETATM   21  N5  UNL     1      23.439   0.713  51.717  1.00  0.00    -0.340 N 
HETATM   22  H13 UNL     1      23.435   0.802  50.695  1.00  0.00     0.167 HD
BRANCH  21  23
HETATM   23  C13 UNL     1      22.243   0.278  52.364  1.00  0.00     0.035 A 
HETATM   24  C14 UNL     1      22.262  -0.272  53.634  1.00  0.00     0.029 A 
HETATM   25  C15 UNL     1      21.153  -0.716  54.326  1.00  0.00     0.004 A 
HETATM   26  C16 UNL     1      19.953  -0.586  53.674  1.00  0.00     0.019 A 
HETATM   27  C17 UNL     1      19.851  -0.044  52.398  1.00  0.00     0.013 A 
HETATM   28 BR1  UNL     1      18.179   0.120  51.524  1.00  0.00    -0.051 Br
HETATM   29  C18 UNL     1      21.008   0.378  51.766  1.00  0.00     0.048 A 
ENDBRANCH  21  23
ENDBRANCH   6  21
TORSDOF 7
ENDMDL
MODEL 9
REMARK VINA RESULT:      -7.7      2.843      5.951
REMARK  7 active torsions:
REMARK  status: ('A' for Active; 'I' for Inactive)
REMARK    1  A    between atoms: N1_1  and  C1_2 
REMARK    2  A    between atoms: C6_8  and  C7_9 
REMARK    3  A    between atoms: C7_9  and  N2_10 
REMARK    4  A    between atoms: N2_10  and  C8_11 
REMARK    5  A    between atoms: C8_11  and  C9_12 
REMARK    6  A    between atoms: C12_17  and  N5_18 
REMARK    7  A    between atoms: N5_18  and  C13_19 
ROOT
HETATM    1  C9  UNL     1      24.139   3.038  51.189  1.00  0.00     0.033 A 
HETATM    2  C10 UNL     1      24.440   4.380  51.322  1.00  0.00     0.130 A 
HETATM    3  N3  UNL     1      23.433   5.260  51.194  1.00  0.00    -0.253 NA
HETATM    4  C11 UNL     1      22.148   4.874  50.942  1.00  0.00     0.234 A 
HETATM    5  N4  UNL     1      21.866   3.553  50.814  1.00  0.00    -0.224 NA
HETATM    6  C12 UNL     1      22.848   2.627  50.935  1.00  0.00     0.139 A 
ENDROOT
BRANCH   1   7
HETATM    7  C8  UNL     1      25.243   2.071  51.328  1.00  0.00     0.314 C 
BRANCH   7   8
HETATM    8  N2  UNL     1      26.289   2.527  52.225  1.00  0.00     0.092 N 
HETATM    9  H8  UNL     1      26.109   3.537  52.410  1.00  0.00     0.316 HD
BRANCH   8  10
HETATM   10  C7  UNL     1      26.288   1.825  53.482  1.00  0.00     0.312 C 
BRANCH  10  11
HETATM   11  C6  UNL     1      27.261   0.703  53.406  1.00  0.00     0.018 A 
HETATM   12  C1  UNL     1      26.898  -0.613  53.169  1.00  0.00     0.035 A 
HETATM   13  C2  UNL     1      27.806  -1.649  53.099  1.00  0.00     0.029 A 
HETATM   14  C3  UNL     1      29.156  -1.384  53.272  1.00  0.00     0.004 A 
HETATM   15  C4  UNL     1      29.555  -0.088  53.509  1.00  0.00     0.024 A 
HETATM   16  C5  UNL     1      28.627   0.953  53.578  1.00  0.00     0.044 A 
HETATM   17 CL1  UNL     1      29.093   2.633  53.881  1.00  0.00    -0.084 Cl
BRANCH  12  18
HETATM   18  N1  UNL     1      25.528  -0.926  52.987  1.00  0.00    -0.399 N 
HETATM   19  H1  UNL     1      25.362  -1.531  52.155  1.00  0.00     0.156 HD
HETATM   20  H2  UNL     1      24.594  -0.752  53.412  1.00  0.00     0.156 HD
ENDBRANCH  12  18
ENDBRANCH  10  11
ENDBRANCH   8  10
ENDBRANCH   7   8
ENDBRANCH   1   7
BRANCH   6  21
HETATM   21  N5  UNL     1      22.509   1.252  50.796  1.00  0.00    -0.340 N 
HETATM   22  H13 UNL     1      22.748   0.653  49.997  1.00  0.00     0.167 HD
BRANCH  21  23
HETATM   23  C13 UNL     1      21.770   0.679  51.874  1.00  0.00     0.035 A 
HETATM   24  C14 UNL     1      22.339   0.476  53.119  1.00  0.00     0.029 A 
HETATM   25  C15 UNL     1      21.692  -0.070  54.211  1.00  0.00     0.004 A 
HETATM   26  C16 UNL     1      20.383  -0.427  54.010  1.00  0.00     0.019 A 
HETATM   27  C17 UNL     1      19.741  -0.255  52.790  1.00  0.00     0.013 A 
HETATM   28 BR1  UNL     1      17.932  -0.760  52.545  1.00  0.00    -0.051 Br
HETATM   29  C18 UNL     1      20.454   0.298  51.740  1.00  0.00     0.048 A 
ENDBRANCH  21  23
ENDBRANCH   6  21
TORSDOF 7
ENDMDL
