MODEL 1
REMARK VINA RESULT:      -9.1      0.000      0.000
REMARK  4 active torsions:
REMARK  status: ('A' for Active; 'I' for Inactive)
REMARK    1  A    between atoms: C2_2  and  C3_3 
REMARK    2  A    between atoms: C4_4  and  C5_5 
REMARK    3  A    between atoms: C8_10  and  N3_11 
REMARK    4  A    between atoms: N3_11  and  C9_12 
ROOT
HETATM    1  C5  UNL     1      23.294   1.090  52.492  1.00  0.00     0.036 A 
HETATM    2  C6  UNL     1      22.081   1.155  53.140  1.00  0.00     0.134 A 
HETATM    3  N1  UNL     1      21.798   0.261  54.107  1.00  0.00    -0.253 NA
HETATM    4  C7  UNL     1      22.709  -0.692  54.430  1.00  0.00     0.234 A 
HETATM    5  N2  UNL     1      23.881  -0.752  53.800  1.00  0.00    -0.224 NA
HETATM    6  C8  UNL     1      24.217   0.100  52.838  1.00  0.00     0.141 A 
ENDROOT
BRANCH   1   7
HETATM    7  C4  UNL     1      23.591   2.078  51.423  1.00  0.00    -0.012 C 
HETATM    8  C3  UNL     1      22.958   2.153  50.236  1.00  0.00    -0.026 C 
HETATM    9  C21 UNL     1      23.518   3.124  49.280  1.00  0.00     0.206 C 
HETATM   10  O1  UNL     1      22.626   4.123  48.952  1.00  0.00    -0.386 OA
HETATM   11  C20 UNL     1      22.130   4.726  50.094  1.00  0.00     0.174 C 
HETATM   12  C18 UNL     1      23.065   5.312  51.058  1.00  0.00     0.027 C 
HETATM   13  C17 UNL     1      22.729   4.779  52.438  1.00  0.00     0.011 C 
HETATM   14  C19 UNL     1      24.520   5.220  50.856  1.00  0.00     0.121 C 
HETATM   15  C16 UNL     1      23.740   3.899  53.063  1.00  0.00     0.030 C 
HETATM   16  C15 UNL     1      24.523   3.077  52.001  1.00  0.00     0.111 C 
HETATM   17  N4  UNL     1      25.161   3.985  51.128  1.00  0.00    -0.413 N 
HETATM   18  H18 UNL     1      26.175   3.981  51.109  1.00  0.00     0.153 HD
BRANCH   8  19
HETATM   19  C2  UNL     1      21.893   1.191  50.002  1.00  0.00    -0.001 C 
HETATM   20  C1  UNL     1      21.227   1.031  48.871  1.00  0.00     0.012 C 
ENDBRANCH   8  19
ENDBRANCH   1   7
BRANCH   6  21
HETATM   21  N3  UNL     1      25.448  -0.054  52.152  1.00  0.00    -0.340 N 
HETATM   22  H6  UNL     1      25.387  -0.003  51.103  1.00  0.00     0.167 HD
BRANCH  21  23
HETATM   23  C9  UNL     1      26.744  -0.298  52.671  1.00  0.00     0.035 A 
HETATM   24  C10 UNL     1      27.401  -1.507  52.674  1.00  0.00     0.032 A 
HETATM   25  C11 UNL     1      28.648  -1.776  53.157  1.00  0.00     0.046 A 
HETATM   26  C12 UNL     1      29.308  -0.690  53.702  1.00  0.00     0.138 A 
HETATM   27  F1  UNL     1      30.548  -0.798  54.219  1.00  0.00    -0.204 F 
HETATM   28  C13 UNL     1      28.728   0.551  53.740  1.00  0.00     0.074 A 
HETATM   29 CL1  UNL     1      29.565   1.944  54.437  1.00  0.00    -0.081 Cl
HETATM   30  C14 UNL     1      27.464   0.747  53.232  1.00  0.00     0.056 A 
ENDBRANCH  21  23
ENDBRANCH   6  21
TORSDOF 4
ENDMDL
MODEL 2
REMARK VINA RESULT:      -8.7      2.093      3.045
REMARK  4 active torsions:
REMARK  status: ('A' for Active; 'I' for Inactive)
REMARK    1  A    between atoms: C2_2  and  C3_3 
REMARK    2  A    between atoms: C4_4  and  C5_5 
REMARK    3  A    between atoms: C8_10  and  N3_11 
REMARK    4  A    between atoms: N3_11  and  C9_12 
ROOT
HETATM    1  C5  UNL     1      23.478   3.297  51.720  1.00  0.00     0.036 A 
HETATM    2  C6  UNL     1      22.268   2.959  51.157  1.00  0.00     0.134 A 
HETATM    3  N1  UNL     1      21.629   1.850  51.575  1.00  0.00    -0.253 NA
HETATM    4  C7  UNL     1      22.184   1.078  52.545  1.00  0.00     0.234 A 
HETATM    5  N2  UNL     1      23.356   1.407  53.086  1.00  0.00    -0.224 NA
HETATM    6  C8  UNL     1      24.034   2.488  52.715  1.00  0.00     0.141 A 
ENDROOT
BRANCH   1   7
HETATM    7  C4  UNL     1      24.175   4.519  51.244  1.00  0.00    -0.012 C 
HETATM    8  C3  UNL     1      25.050   4.567  50.221  1.00  0.00    -0.026 C 
HETATM    9  C21 UNL     1      25.720   5.864  50.022  1.00  0.00     0.206 C 
HETATM   10  O1  UNL     1      25.432   6.428  48.797  1.00  0.00    -0.386 OA
HETATM   11  C20 UNL     1      24.065   6.503  48.606  1.00  0.00     0.174 C 
HETATM   12  C18 UNL     1      23.241   7.212  49.588  1.00  0.00     0.027 C 
HETATM   13  C17 UNL     1      22.097   6.306  49.999  1.00  0.00     0.011 C 
HETATM   14  C19 UNL     1      23.841   7.797  50.799  1.00  0.00     0.121 C 
HETATM   15  C16 UNL     1      22.107   5.832  51.401  1.00  0.00     0.030 C 
HETATM   16  C15 UNL     1      23.555   5.672  51.942  1.00  0.00     0.111 C 
HETATM   17  N4  UNL     1      24.194   6.929  51.862  1.00  0.00    -0.413 N 
HETATM   18  H18 UNL     1      24.480   7.363  52.733  1.00  0.00     0.153 HD
BRANCH   8  19
HETATM   19  C2  UNL     1      25.313   3.316  49.527  1.00  0.00    -0.001 C 
HETATM   20  C1  UNL     1      26.433   2.617  49.586  1.00  0.00     0.012 C 
ENDBRANCH   8  19
ENDBRANCH   1   7
BRANCH   6  21
HETATM   21  N3  UNL     1      25.310   2.752  53.274  1.00  0.00    -0.340 N 
HETATM   22  H6  UNL     1      25.420   3.701  53.714  1.00  0.00     0.167 HD
BRANCH  21  23
HETATM   23  C9  UNL     1      26.469   1.936  53.297  1.00  0.00     0.035 A 
HETATM   24  C10 UNL     1      27.747   2.354  53.587  1.00  0.00     0.032 A 
HETATM   25  C11 UNL     1      28.881   1.597  53.626  1.00  0.00     0.046 A 
HETATM   26  C12 UNL     1      28.698   0.257  53.338  1.00  0.00     0.138 A 
HETATM   27  F1  UNL     1      29.723  -0.617  53.337  1.00  0.00    -0.204 F 
HETATM   28  C13 UNL     1      27.457  -0.244  53.039  1.00  0.00     0.074 A 
HETATM   29 CL1  UNL     1      27.215  -1.956  52.667  1.00  0.00    -0.081 Cl
HETATM   30  C14 UNL     1      26.357   0.582  53.018  1.00  0.00     0.056 A 
ENDBRANCH  21  23
ENDBRANCH   6  21
TORSDOF 4
ENDMDL
MODEL 3
REMARK VINA RESULT:      -8.3      2.230      4.332
REMARK  4 active torsions:
REMARK  status: ('A' for Active; 'I' for Inactive)
REMARK    1  A    between atoms: C2_2  and  C3_3 
REMARK    2  A    between atoms: C4_4  and  C5_5 
REMARK    3  A    between atoms: C8_10  and  N3_11 
REMARK    4  A    between atoms: N3_11  and  C9_12 
ROOT
HETATM    1  C5  UNL     1      23.985   3.472  50.541  1.00  0.00     0.036 A 
HETATM    2  C6  UNL     1      23.826   4.210  49.389  1.00  0.00     0.134 A 
HETATM    3  N1  UNL     1      24.910   4.715  48.770  1.00  0.00    -0.253 NA
HETATM    4  C7  UNL     1      26.146   4.491  49.288  1.00  0.00     0.234 A 
HETATM    5  N2  UNL     1      26.296   3.778  50.403  1.00  0.00    -0.224 NA
HETATM    6  C8  UNL     1      25.265   3.256  51.058  1.00  0.00     0.141 A 
ENDROOT
BRANCH   1   7
HETATM    7  C4  UNL     1      22.780   2.927  51.217  1.00  0.00    -0.012 C 
HETATM    8  C3  UNL     1      21.902   3.649  51.941  1.00  0.00    -0.026 C 
HETATM    9  C21 UNL     1      20.861   2.868  52.633  1.00  0.00     0.206 C 
HETATM   10  O1  UNL     1      19.589   3.179  52.201  1.00  0.00    -0.386 OA
HETATM   11  C20 UNL     1      19.503   3.075  50.825  1.00  0.00     0.174 C 
HETATM   12  C18 UNL     1      19.858   1.808  50.178  1.00  0.00     0.027 C 
HETATM   13  C17 UNL     1      20.846   2.098  49.064  1.00  0.00     0.011 C 
HETATM   14  C19 UNL     1      20.354   0.668  50.966  1.00  0.00     0.121 C 
HETATM   15  C16 UNL     1      22.215   1.571  49.250  1.00  0.00     0.030 C 
HETATM   16  C15 UNL     1      22.615   1.529  50.751  1.00  0.00     0.111 C 
HETATM   17  N4  UNL     1      21.694   0.699  51.427  1.00  0.00    -0.413 N 
HETATM   18  H18 UNL     1      22.053  -0.150  51.851  1.00  0.00     0.153 HD
BRANCH   8  19
HETATM   19  C2  UNL     1      22.161   5.076  52.050  1.00  0.00    -0.001 C 
HETATM   20  C1  UNL     1      21.577   6.025  51.340  1.00  0.00     0.012 C 
ENDBRANCH   8  19
ENDBRANCH   1   7
BRANCH   6  21
HETATM   21  N3  UNL     1      25.476   2.566  52.279  1.00  0.00    -0.340 N 
HETATM   22  H6  UNL     1      24.774   2.767  53.036  1.00  0.00     0.167 HD
BRANCH  21  23
HETATM   23  C9  UNL     1      26.513   1.670  52.639  1.00  0.00     0.035 A 
HETATM   24  C10 UNL     1      27.715   2.011  53.215  1.00  0.00     0.032 A 
HETATM   25  C11 UNL     1      28.730   1.176  53.581  1.00  0.00     0.046 A 
HETATM   26  C12 UNL     1      28.499  -0.165  53.333  1.00  0.00     0.138 A 
HETATM   27  F1  UNL     1      29.408  -1.111  53.639  1.00  0.00    -0.204 F 
HETATM   28  C13 UNL     1      27.329  -0.593  52.762  1.00  0.00     0.074 A 
HETATM   29 CL1  UNL     1      27.028  -2.305  52.440  1.00  0.00    -0.081 Cl
HETATM   30  C14 UNL     1      26.348   0.310  52.419  1.00  0.00     0.056 A 
ENDBRANCH  21  23
ENDBRANCH   6  21
TORSDOF 4
ENDMDL
MODEL 4
REMARK VINA RESULT:      -8.2      2.814      4.789
REMARK  4 active torsions:
REMARK  status: ('A' for Active; 'I' for Inactive)
REMARK    1  A    between atoms: C2_2  and  C3_3 
REMARK    2  A    between atoms: C4_4  and  C5_5 
REMARK    3  A    between atoms: C8_10  and  N3_11 
REMARK    4  A    between atoms: N3_11  and  C9_12 
ROOT
HETATM    1  C5  UNL     1      24.866   4.034  49.488  1.00  0.00     0.036 A 
HETATM    2  C6  UNL     1      24.735   5.317  49.004  1.00  0.00     0.134 A 
HETATM    3  N1  UNL     1      25.834   6.004  48.640  1.00  0.00    -0.253 NA
HETATM    4  C7  UNL     1      27.058   5.425  48.753  1.00  0.00     0.234 A 
HETATM    5  N2  UNL     1      27.181   4.184  49.223  1.00  0.00    -0.224 NA
HETATM    6  C8  UNL     1      26.134   3.458  49.599  1.00  0.00     0.141 A 
ENDROOT
BRANCH   1   7
HETATM    7  C4  UNL     1      23.645   3.292  49.892  1.00  0.00    -0.012 C 
HETATM    8  C3  UNL     1      23.039   3.386  51.092  1.00  0.00    -0.026 C 
HETATM    9  C21 UNL     1      21.924   2.449  51.313  1.00  0.00     0.206 C 
HETATM   10  O1  UNL     1      20.720   3.091  51.512  1.00  0.00    -0.386 OA
HETATM   11  C20 UNL     1      20.469   3.982  50.484  1.00  0.00     0.174 C 
HETATM   12  C18 UNL     1      20.451   3.495  49.103  1.00  0.00     0.027 C 
HETATM   13  C17 UNL     1      21.356   4.382  48.269  1.00  0.00     0.011 C 
HETATM   14  C19 UNL     1      20.748   2.087  48.791  1.00  0.00     0.121 C 
HETATM   15  C16 UNL     1      22.578   3.746  47.729  1.00  0.00     0.030 C 
HETATM   16  C15 UNL     1      23.112   2.635  48.674  1.00  0.00     0.111 C 
HETATM   17  N4  UNL     1      22.099   1.661  48.822  1.00  0.00    -0.413 N 
HETATM   18  H18 UNL     1      22.294   0.728  48.478  1.00  0.00     0.153 HD
BRANCH   8  19
HETATM   19  C2  UNL     1      23.632   4.303  52.053  1.00  0.00    -0.001 C 
HETATM   20  C1  UNL     1      24.035   3.993  53.273  1.00  0.00     0.012 C 
ENDBRANCH   8  19
ENDBRANCH   1   7
BRANCH   6  21
HETATM   21  N3  UNL     1      26.328   2.170  50.158  1.00  0.00    -0.340 N 
HETATM   22  H6  UNL     1      26.392   1.384  49.462  1.00  0.00     0.167 HD
BRANCH  21  23
HETATM   23  C9  UNL     1      26.417   1.783  51.518  1.00  0.00     0.035 A 
HETATM   24  C10 UNL     1      27.351   2.226  52.427  1.00  0.00     0.032 A 
HETATM   25  C11 UNL     1      27.461   1.882  53.742  1.00  0.00     0.046 A 
HETATM   26  C12 UNL     1      26.512   0.980  54.190  1.00  0.00     0.138 A 
HETATM   27  F1  UNL     1      26.491   0.545  55.465  1.00  0.00    -0.204 F 
HETATM   28  C13 UNL     1      25.546   0.487  53.352  1.00  0.00     0.074 A 
HETATM   29 CL1  UNL     1      24.331  -0.667  53.917  1.00  0.00    -0.081 Cl
HETATM   30  C14 UNL     1      25.497   0.882  52.034  1.00  0.00     0.056 A 
ENDBRANCH  21  23
ENDBRANCH   6  21
TORSDOF 4
ENDMDL
MODEL 5
REMARK VINA RESULT:      -8.2      1.778      2.131
REMARK  4 active torsions:
REMARK  status: ('A' for Active; 'I' for Inactive)
REMARK    1  A    between atoms: C2_2  and  C3_3 
REMARK    2  A    between atoms: C4_4  and  C5_5 
REMARK    3  A    between atoms: C8_10  and  N3_11 
REMARK    4  A    between atoms: N3_11  and  C9_12 
ROOT
HETATM    1  C5  UNL     1      22.133   2.534  51.618  1.00  0.00     0.036 A 
HETATM    2  C6  UNL     1      20.811   2.859  51.822  1.00  0.00     0.134 A 
HETATM    3  N1  UNL     1      20.024   2.022  52.526  1.00  0.00    -0.253 NA
HETATM    4  C7  UNL     1      20.543   0.871  53.025  1.00  0.00     0.234 A 
HETATM    5  N2  UNL     1      21.822   0.559  52.823  1.00  0.00    -0.224 NA
HETATM    6  C8  UNL     1      22.646   1.343  52.137  1.00  0.00     0.141 A 
ENDROOT
BRANCH   1   7
HETATM    7  C4  UNL     1      22.987   3.463  50.833  1.00  0.00    -0.012 C 
HETATM    8  C3  UNL     1      23.043   3.519  49.488  1.00  0.00    -0.026 C 
HETATM    9  C21 UNL     1      24.066   4.424  48.935  1.00  0.00     0.206 C 
HETATM   10  O1  UNL     1      23.523   5.449  48.191  1.00  0.00    -0.386 OA
HETATM   11  C20 UNL     1      22.559   6.122  48.920  1.00  0.00     0.174 C 
HETATM   12  C18 UNL     1      22.917   6.701  50.218  1.00  0.00     0.027 C 
HETATM   13  C17 UNL     1      21.900   6.240  51.246  1.00  0.00     0.011 C 
HETATM   14  C19 UNL     1      24.267   6.531  50.778  1.00  0.00     0.121 C 
HETATM   15  C16 UNL     1      22.404   5.339  52.305  1.00  0.00     0.030 C 
HETATM   16  C15 UNL     1      23.561   4.439  51.792  1.00  0.00     0.111 C 
HETATM   17  N4  UNL     1      24.607   5.279  51.350  1.00  0.00    -0.413 N 
HETATM   18  H18 UNL     1      25.490   5.226  51.845  1.00  0.00     0.153 HD
BRANCH   8  19
HETATM   19  C2  UNL     1      22.183   2.601  48.759  1.00  0.00    -0.001 C 
HETATM   20  C1  UNL     1      22.474   2.009  47.614  1.00  0.00     0.012 C 
ENDBRANCH   8  19
ENDBRANCH   1   7
BRANCH   6  21
HETATM   21  N3  UNL     1      23.980   0.929  51.892  1.00  0.00    -0.340 N 
HETATM   22  H6  UNL     1      24.205   0.707  50.889  1.00  0.00     0.167 HD
BRANCH  21  23
HETATM   23  C9  UNL     1      25.046   0.741  52.807  1.00  0.00     0.035 A 
HETATM   24  C10 UNL     1      25.116  -0.228  53.781  1.00  0.00     0.032 A 
HETATM   25  C11 UNL     1      26.128  -0.443  54.670  1.00  0.00     0.046 A 
HETATM   26  C12 UNL     1      27.195   0.429  54.561  1.00  0.00     0.138 A 
HETATM   27  F1  UNL     1      28.270   0.344  55.369  1.00  0.00    -0.204 F 
HETATM   28  C13 UNL     1      27.208   1.425  53.618  1.00  0.00     0.074 A 
HETATM   29 CL1  UNL     1      28.569   2.545  53.473  1.00  0.00    -0.081 Cl
HETATM   30  C14 UNL     1      26.149   1.580  52.752  1.00  0.00     0.056 A 
ENDBRANCH  21  23
ENDBRANCH   6  21
TORSDOF 4
ENDMDL
MODEL 6
REMARK VINA RESULT:      -8.2      2.244      3.572
REMARK  4 active torsions:
REMARK  status: ('A' for Active; 'I' for Inactive)
REMARK    1  A    between atoms: C2_2  and  C3_3 
REMARK    2  A    between atoms: C4_4  and  C5_5 
REMARK    3  A    between atoms: C8_10  and  N3_11 
REMARK    4  A    between atoms: N3_11  and  C9_12 
ROOT
HETATM    1  C5  UNL     1      22.637   3.031  50.257  1.00  0.00     0.036 A 
HETATM    2  C6  UNL     1      22.019   2.762  49.056  1.00  0.00     0.134 A 
HETATM    3  N1  UNL     1      21.418   1.571  48.872  1.00  0.00    -0.253 NA
HETATM    4  C7  UNL     1      21.428   0.651  49.870  1.00  0.00     0.234 A 
HETATM    5  N2  UNL     1      22.028   0.914  51.030  1.00  0.00    -0.224 NA
HETATM    6  C8  UNL     1      22.638   2.069  51.270  1.00  0.00     0.141 A 
ENDROOT
BRANCH   1   7
HETATM    7  C4  UNL     1      23.302   4.347  50.444  1.00  0.00    -0.012 C 
HETATM    8  C3  UNL     1      24.542   4.658  50.020  1.00  0.00    -0.026 C 
HETATM    9  C21 UNL     1      25.042   5.978  50.442  1.00  0.00     0.206 C 
HETATM   10  O1  UNL     1      25.297   6.815  49.377  1.00  0.00    -0.386 OA
HETATM   11  C20 UNL     1      24.190   6.906  48.554  1.00  0.00     0.174 C 
HETATM   12  C18 UNL     1      22.910   7.340  49.119  1.00  0.00     0.027 C 
HETATM   13  C17 UNL     1      21.844   6.338  48.719  1.00  0.00     0.011 C 
HETATM   14  C19 UNL     1      22.775   7.628  50.557  1.00  0.00     0.121 C 
HETATM   15  C16 UNL     1      21.251   5.541  49.815  1.00  0.00     0.030 C 
HETATM   16  C15 UNL     1      22.273   5.284  50.957  1.00  0.00     0.111 C 
HETATM   17  N4  UNL     1      22.694   6.536  51.457  1.00  0.00    -0.413 N 
HETATM   18  H18 UNL     1      22.470   6.753  52.422  1.00  0.00     0.153 HD
BRANCH   8  19
HETATM   19  C2  UNL     1      25.272   3.617  49.313  1.00  0.00    -0.001 C 
HETATM   20  C1  UNL     1      26.458   3.139  49.646  1.00  0.00     0.012 C 
ENDBRANCH   8  19
ENDBRANCH   1   7
BRANCH   6  21
HETATM   21  N3  UNL     1      23.322   2.269  52.496  1.00  0.00    -0.340 N 
HETATM   22  H6  UNL     1      22.961   3.061  53.088  1.00  0.00     0.167 HD
BRANCH  21  23
HETATM   23  C9  UNL     1      24.440   1.579  53.026  1.00  0.00     0.035 A 
HETATM   24  C10 UNL     1      24.446   0.284  53.493  1.00  0.00     0.032 A 
HETATM   25  C11 UNL     1      25.503  -0.413  54.001  1.00  0.00     0.046 A 
HETATM   26  C12 UNL     1      26.696   0.286  54.042  1.00  0.00     0.138 A 
HETATM   27  F1  UNL     1      27.828  -0.268  54.517  1.00  0.00    -0.204 F 
HETATM   28  C13 UNL     1      26.779   1.580  53.597  1.00  0.00     0.074 A 
HETATM   29 CL1  UNL     1      28.301   2.480  53.648  1.00  0.00    -0.081 Cl
HETATM   30  C14 UNL     1      25.668   2.219  53.096  1.00  0.00     0.056 A 
ENDBRANCH  21  23
ENDBRANCH   6  21
TORSDOF 4
ENDMDL
MODEL 7
REMARK VINA RESULT:      -7.8      2.890      4.506
REMARK  4 active torsions:
REMARK  status: ('A' for Active; 'I' for Inactive)
REMARK    1  A    between atoms: C2_2  and  C3_3 
REMARK    2  A    between atoms: C4_4  and  C5_5 
REMARK    3  A    between atoms: C8_10  and  N3_11 
REMARK    4  A    between atoms: N3_11  and  C9_12 
ROOT
HETATM    1  C5  UNL     1      21.286   4.888  50.790  1.00  0.00     0.036 A 
HETATM    2  C6  UNL     1      20.196   5.112  49.979  1.00  0.00     0.134 A 
HETATM    3  N1  UNL     1      19.013   4.547  50.287  1.00  0.00    -0.253 NA
HETATM    4  C7  UNL     1      18.908   3.766  51.393  1.00  0.00     0.234 A 
HETATM    5  N2  UNL     1      19.965   3.550  52.174  1.00  0.00    -0.224 NA
HETATM    6  C8  UNL     1      21.157   4.078  51.921  1.00  0.00     0.141 A 
ENDROOT
BRANCH   1   7
HETATM    7  C4  UNL     1      22.586   5.511  50.433  1.00  0.00    -0.012 C 
HETATM    8  C3  UNL     1      23.395   5.105  49.435  1.00  0.00    -0.026 C 
HETATM    9  C21 UNL     1      24.698   5.788  49.360  1.00  0.00     0.206 C 
HETATM   10  O1  UNL     1      24.866   6.485  48.182  1.00  0.00    -0.386 OA
HETATM   11  C20 UNL     1      23.804   7.344  47.970  1.00  0.00     0.174 C 
HETATM   12  C18 UNL     1      23.473   8.340  48.992  1.00  0.00     0.027 C 
HETATM   13  C17 UNL     1      21.991   8.236  49.301  1.00  0.00     0.011 C 
HETATM   14  C19 UNL     1      24.218   8.402  50.259  1.00  0.00     0.121 C 
HETATM   15  C16 UNL     1      21.637   7.764  50.658  1.00  0.00     0.030 C 
HETATM   16  C15 UNL     1      22.694   6.768  51.213  1.00  0.00     0.111 C 
HETATM   17  N4  UNL     1      23.941   7.430  51.253  1.00  0.00    -0.413 N 
HETATM   18  H18 UNL     1      24.367   7.569  52.162  1.00  0.00     0.153 HD
BRANCH   8  19
HETATM   19  C2  UNL     1      22.939   3.973  48.644  1.00  0.00    -0.001 C 
HETATM   20  C1  UNL     1      23.269   2.708  48.838  1.00  0.00     0.012 C 
ENDBRANCH   8  19
ENDBRANCH   1   7
BRANCH   6  21
HETATM   21  N3  UNL     1      22.265   3.758  52.747  1.00  0.00    -0.340 N 
HETATM   22  H6  UNL     1      22.453   4.436  53.528  1.00  0.00     0.167 HD
BRANCH  21  23
HETATM   23  C9  UNL     1      23.174   2.675  52.653  1.00  0.00     0.035 A 
HETATM   24  C10 UNL     1      22.882   1.350  52.882  1.00  0.00     0.032 A 
HETATM   25  C11 UNL     1      23.728   0.284  52.794  1.00  0.00     0.046 A 
HETATM   26  C12 UNL     1      25.025   0.597  52.430  1.00  0.00     0.138 A 
HETATM   27  F1  UNL     1      25.976  -0.348  52.301  1.00  0.00    -0.204 F 
HETATM   28  C13 UNL     1      25.403   1.892  52.183  1.00  0.00     0.074 A 
HETATM   29 CL1  UNL     1      27.059   2.301  51.719  1.00  0.00    -0.081 Cl
HETATM   30  C14 UNL     1      24.491   2.918  52.292  1.00  0.00     0.056 A 
ENDBRANCH  21  23
ENDBRANCH   6  21
TORSDOF 4
ENDMDL
MODEL 8
REMARK VINA RESULT:      -7.6      7.915      9.679
REMARK  4 active torsions:
REMARK  status: ('A' for Active; 'I' for Inactive)
REMARK    1  A    between atoms: C2_2  and  C3_3 
REMARK    2  A    between atoms: C4_4  and  C5_5 
REMARK    3  A    between atoms: C8_10  and  N3_11 
REMARK    4  A    between atoms: N3_11  and  C9_12 
ROOT
HETATM    1  C5  UNL     1      28.668   7.124  48.167  1.00  0.00     0.036 A 
HETATM    2  C6  UNL     1      27.291   7.168  48.174  1.00  0.00     0.134 A 
HETATM    3  N1  UNL     1      26.593   6.048  48.441  1.00  0.00    -0.253 NA
HETATM    4  C7  UNL     1      27.253   4.889  48.701  1.00  0.00     0.234 A 
HETATM    5  N2  UNL     1      28.585   4.850  48.692  1.00  0.00    -0.224 NA
HETATM    6  C8  UNL     1      29.327   5.921  48.434  1.00  0.00     0.141 A 
ENDROOT
BRANCH   1   7
HETATM    7  C4  UNL     1      29.424   8.366  47.863  1.00  0.00    -0.012 C 
HETATM    8  C3  UNL     1      29.607   8.883  46.632  1.00  0.00    -0.026 C 
HETATM    9  C21 UNL     1      30.510  10.045  46.563  1.00  0.00     0.206 C 
HETATM   10  O1  UNL     1      29.878  11.184  46.112  1.00  0.00    -0.386 OA
HETATM   11  C20 UNL     1      28.742  11.438  46.860  1.00  0.00     0.174 C 
HETATM   12  C18 UNL     1      28.859  11.582  48.313  1.00  0.00     0.027 C 
HETATM   13  C17 UNL     1      27.838  10.672  48.970  1.00  0.00     0.011 C 
HETATM   14  C19 UNL     1      30.154  11.407  48.991  1.00  0.00     0.121 C 
HETATM   15  C16 UNL     1      28.377   9.537  49.749  1.00  0.00     0.030 C 
HETATM   16  C15 UNL     1      29.720   9.022  49.160  1.00  0.00     0.111 C 
HETATM   17  N4  UNL     1      30.644  10.090  49.178  1.00  0.00    -0.413 N 
HETATM   18  H18 UNL     1      31.468   9.985  49.760  1.00  0.00     0.153 HD
BRANCH   8  19
HETATM   19  C2  UNL     1      28.999   8.164  45.524  1.00  0.00    -0.001 C 
HETATM   20  C1  UNL     1      27.949   8.561  44.826  1.00  0.00     0.012 C 
ENDBRANCH   8  19
ENDBRANCH   1   7
BRANCH   6  21
HETATM   21  N3  UNL     1      30.739   5.807  48.368  1.00  0.00    -0.340 N 
HETATM   22  H6  UNL     1      31.257   6.144  49.219  1.00  0.00     0.167 HD
BRANCH  21  23
HETATM   23  C9  UNL     1      31.555   5.334  47.311  1.00  0.00     0.035 A 
HETATM   24  C10 UNL     1      31.843   4.017  47.037  1.00  0.00     0.032 A 
HETATM   25  C11 UNL     1      32.616   3.527  46.026  1.00  0.00     0.046 A 
HETATM   26  C12 UNL     1      33.163   4.486  45.193  1.00  0.00     0.138 A 
HETATM   27  F1  UNL     1      33.949   4.157  44.149  1.00  0.00    -0.204 F 
HETATM   28  C13 UNL     1      32.928   5.822  45.393  1.00  0.00     0.074 A 
HETATM   29 CL1  UNL     1      33.625   7.053  44.333  1.00  0.00    -0.081 Cl
HETATM   30  C14 UNL     1      32.135   6.242  46.437  1.00  0.00     0.056 A 
ENDBRANCH  21  23
ENDBRANCH   6  21
TORSDOF 4
ENDMDL
MODEL 9
REMARK VINA RESULT:      -7.6      3.695      5.226
REMARK  4 active torsions:
REMARK  status: ('A' for Active; 'I' for Inactive)
REMARK    1  A    between atoms: C2_2  and  C3_3 
REMARK    2  A    between atoms: C4_4  and  C5_5 
REMARK    3  A    between atoms: C8_10  and  N3_11 
REMARK    4  A    between atoms: N3_11  and  C9_12 
ROOT
HETATM    1  C5  UNL     1      20.651   4.694  50.587  1.00  0.00     0.036 A 
HETATM    2  C6  UNL     1      19.911   5.246  49.564  1.00  0.00     0.134 A 
HETATM    3  N1  UNL     1      18.573   5.101  49.561  1.00  0.00    -0.253 NA
HETATM    4  C7  UNL     1      17.968   4.414  50.565  1.00  0.00     0.234 A 
HETATM    5  N2  UNL     1      18.686   3.881  51.552  1.00  0.00    -0.224 NA
HETATM    6  C8  UNL     1      20.009   3.989  51.608  1.00  0.00     0.141 A 
ENDROOT
BRANCH   1   7
HETATM    7  C4  UNL     1      22.127   4.856  50.573  1.00  0.00    -0.012 C 
HETATM    8  C3  UNL     1      22.976   4.183  49.770  1.00  0.00    -0.026 C 
HETATM    9  C21 UNL     1      24.407   4.409  50.034  1.00  0.00     0.206 C 
HETATM   10  O1  UNL     1      25.061   4.982  48.964  1.00  0.00    -0.386 OA
HETATM   11  C20 UNL     1      24.410   6.131  48.555  1.00  0.00     0.174 C 
HETATM   12  C18 UNL     1      24.183   7.209  49.521  1.00  0.00     0.027 C 
HETATM   13  C17 UNL     1      22.717   7.596  49.473  1.00  0.00     0.011 C 
HETATM   14  C19 UNL     1      24.589   7.063  50.929  1.00  0.00     0.121 C 
HETATM   15  C16 UNL     1      21.922   7.300  50.685  1.00  0.00     0.030 C 
HETATM   16  C15 UNL     1      22.443   6.033  51.419  1.00  0.00     0.111 C 
HETATM   17  N4  UNL     1      23.790   6.259  51.780  1.00  0.00    -0.413 N 
HETATM   18  H18 UNL     1      24.011   6.279  52.770  1.00  0.00     0.153 HD
BRANCH   8  19
HETATM   19  C2  UNL     1      22.382   3.237  48.839  1.00  0.00    -0.001 C 
HETATM   20  C1  UNL     1      22.245   1.938  49.036  1.00  0.00     0.012 C 
ENDBRANCH   8  19
ENDBRANCH   1   7
BRANCH   6  21
HETATM   21  N3  UNL     1      20.730   3.342  52.643  1.00  0.00    -0.340 N 
HETATM   22  H6  UNL     1      20.979   3.948  53.465  1.00  0.00     0.167 HD
BRANCH  21  23
HETATM   23  C9  UNL     1      21.193   2.004  52.717  1.00  0.00     0.035 A 
HETATM   24  C10 UNL     1      20.406   0.879  52.813  1.00  0.00     0.032 A 
HETATM   25  C11 UNL     1      20.816  -0.420  52.877  1.00  0.00     0.046 A 
HETATM   26  C12 UNL     1      22.186  -0.601  52.842  1.00  0.00     0.138 A 
HETATM   27  F1  UNL     1      22.743  -1.827  52.897  1.00  0.00    -0.204 F 
HETATM   28  C13 UNL     1      23.044   0.464  52.748  1.00  0.00     0.074 A 
HETATM   29 CL1  UNL     1      24.797   0.240  52.704  1.00  0.00    -0.081 Cl
HETATM   30  C14 UNL     1      22.556   1.749  52.686  1.00  0.00     0.056 A 
ENDBRANCH  21  23
ENDBRANCH   6  21
TORSDOF 4
ENDMDL
