MODEL 1
REMARK VINA RESULT:      -8.4      0.000      0.000
REMARK  3 active torsions:
REMARK  status: ('A' for Active; 'I' for Inactive)
REMARK    1  A    between atoms: N1_4  and  C4_5 
REMARK    2  A    between atoms: C4_5  and  C5_6 
REMARK    3  A    between atoms: C10_11  and  N2_12 
ROOT
HETATM    1  C1  UNL     1      23.006  -1.633  55.426  1.00  0.00     0.045 C 
HETATM    2  C2  UNL     1      22.426  -0.776  54.366  1.00  0.00    -0.059 C 
HETATM    3  C3  UNL     1      23.545  -0.241  53.930  1.00  0.00     0.135 C 
HETATM    4  N1  UNL     1      24.339   0.580  53.124  1.00  0.00    -0.393 N 
HETATM    5  C11 UNL     1      24.343   1.376  51.880  1.00  0.00     0.201 C 
HETATM    6  S1  UNL     1      23.194   2.804  51.979  1.00  0.00    -0.066 SA
HETATM    7  C12 UNL     1      21.505   2.274  51.952  1.00  0.00     0.198 C 
HETATM    8  N3  UNL     1      20.634   3.240  52.013  1.00  0.00    -0.272 NA
HETATM    9  O1  UNL     1      21.070   0.994  51.877  1.00  0.00    -0.326 OA
HETATM   10  C13 UNL     1      19.783   0.564  52.205  1.00  0.00     0.205 C 
HETATM   11  C14 UNL     1      19.997  -0.360  53.393  1.00  0.00    -0.000 C 
HETATM   12  C15 UNL     1      20.952  -0.863  54.194  1.00  0.00     0.002 C 
HETATM   13  H17 UNL     1      21.056   4.188  52.068  1.00  0.00     0.189 HD
ENDROOT
BRANCH   4  14
HETATM   14  C4  UNL     1      25.573   0.567  53.843  1.00  0.00     0.129 C 
BRANCH  14  15
HETATM   15  C5  UNL     1      26.860   0.542  53.093  1.00  0.00     0.056 A 
HETATM   16  C6  UNL     1      27.212  -0.930  52.773  1.00  0.00     0.039 A 
HETATM   17  C7  UNL     1      28.588  -1.205  53.196  1.00  0.00    -0.026 A 
HETATM   18  C8  UNL     1      29.630  -0.587  53.726  1.00  0.00    -0.002 A 
HETATM   19  C9  UNL     1      29.282   0.834  53.972  1.00  0.00     0.024 A 
HETATM   20  C10 UNL     1      28.038   1.180  53.639  1.00  0.00     0.008 A 
BRANCH  20  21
HETATM   21  N2  UNL     1      27.997   2.609  53.820  1.00  0.00    -0.402 N 
HETATM   22  H13 UNL     1      28.029   3.631  53.984  1.00  0.00     0.156 HD
HETATM   23  H14 UNL     1      27.292   3.342  53.538  1.00  0.00     0.156 HD
ENDBRANCH  20  21
ENDBRANCH  14  15
ENDBRANCH   4  14
TORSDOF 3
ENDMDL
MODEL 2
REMARK VINA RESULT:      -7.7      1.907      3.471
REMARK  3 active torsions:
REMARK  status: ('A' for Active; 'I' for Inactive)
REMARK    1  A    between atoms: N1_4  and  C4_5 
REMARK    2  A    between atoms: C4_5  and  C5_6 
REMARK    3  A    between atoms: C10_11  and  N2_12 
ROOT
HETATM    1  C1  UNL     1      25.236   3.086  50.339  1.00  0.00     0.045 C 
HETATM    2  C2  UNL     1      24.080   2.585  51.117  1.00  0.00    -0.059 C 
HETATM    3  C3  UNL     1      24.704   1.637  51.781  1.00  0.00     0.135 C 
HETATM    4  N1  UNL     1      24.823   0.578  52.686  1.00  0.00    -0.393 N 
HETATM    5  C11 UNL     1      24.145  -0.111  53.803  1.00  0.00     0.201 C 
HETATM    6  S1  UNL     1      22.587  -0.918  53.262  1.00  0.00    -0.066 SA
HETATM    7  C12 UNL     1      21.338   0.280  52.888  1.00  0.00     0.198 C 
HETATM    8  N3  UNL     1      20.202  -0.227  52.504  1.00  0.00    -0.272 NA
HETATM    9  O1  UNL     1      21.470   1.624  52.969  1.00  0.00    -0.326 OA
HETATM   10  C13 UNL     1      20.628   2.551  52.352  1.00  0.00     0.205 C 
HETATM   11  C14 UNL     1      21.532   3.265  51.360  1.00  0.00    -0.000 C 
HETATM   12  C15 UNL     1      22.793   3.294  50.896  1.00  0.00     0.002 C 
HETATM   13  H17 UNL     1      20.190  -1.266  52.471  1.00  0.00     0.189 HD
ENDROOT
BRANCH   4  14
HETATM   14  C4  UNL     1      26.099   0.047  52.328  1.00  0.00     0.129 C 
BRANCH  14  15
HETATM   15  C5  UNL     1      27.041  -0.384  53.397  1.00  0.00     0.056 A 
HETATM   16  C6  UNL     1      27.813   0.859  53.901  1.00  0.00     0.039 A 
HETATM   17  C7  UNL     1      29.251   0.580  53.885  1.00  0.00    -0.026 A 
HETATM   18  C8  UNL     1      30.091  -0.405  53.615  1.00  0.00    -0.002 A 
HETATM   19  C9  UNL     1      29.323  -1.599  53.187  1.00  0.00     0.024 A 
HETATM   20  C10 UNL     1      28.000  -1.439  53.147  1.00  0.00     0.008 A 
BRANCH  20  21
HETATM   21  N2  UNL     1      27.483  -2.753  52.863  1.00  0.00    -0.402 N 
HETATM   22  H13 UNL     1      27.049  -3.677  52.685  1.00  0.00     0.156 HD
HETATM   23  H14 UNL     1      27.922  -3.615  52.441  1.00  0.00     0.156 HD
ENDBRANCH  20  21
ENDBRANCH  14  15
ENDBRANCH   4  14
TORSDOF 3
ENDMDL
MODEL 3
REMARK VINA RESULT:      -7.5      2.798      7.366
REMARK  3 active torsions:
REMARK  status: ('A' for Active; 'I' for Inactive)
REMARK    1  A    between atoms: N1_4  and  C4_5 
REMARK    2  A    between atoms: C4_5  and  C5_6 
REMARK    3  A    between atoms: C10_11  and  N2_12 
ROOT
HETATM    1  C1  UNL     1      23.690   3.423  52.427  1.00  0.00     0.045 C 
HETATM    2  C2  UNL     1      24.211   2.200  53.080  1.00  0.00    -0.059 C 
HETATM    3  C3  UNL     1      23.133   1.458  52.965  1.00  0.00     0.135 C 
HETATM    4  N1  UNL     1      22.352   0.307  53.116  1.00  0.00    -0.393 N 
HETATM    5  C11 UNL     1      22.412  -1.135  53.428  1.00  0.00     0.201 C 
HETATM    6  S1  UNL     1      22.961  -1.439  55.152  1.00  0.00    -0.066 SA
HETATM    7  C12 UNL     1      24.676  -1.049  55.359  1.00  0.00     0.198 C 
HETATM    8  N3  UNL     1      25.135  -1.249  56.561  1.00  0.00    -0.272 NA
HETATM    9  O1  UNL     1      25.510  -0.580  54.402  1.00  0.00    -0.326 OA
HETATM   10  C13 UNL     1      26.735   0.046  54.642  1.00  0.00     0.205 C 
HETATM   11  C14 UNL     1      26.534   1.458  54.115  1.00  0.00    -0.000 C 
HETATM   12  C15 UNL     1      25.623   2.262  53.540  1.00  0.00     0.002 C 
HETATM   13  H17 UNL     1      24.426  -1.610  57.231  1.00  0.00     0.189 HD
ENDROOT
BRANCH   4  14
HETATM   14  C4  UNL     1      21.049   0.816  52.830  1.00  0.00     0.129 C 
BRANCH  14  15
HETATM   15  C5  UNL     1      20.132   0.033  51.955  1.00  0.00     0.056 A 
HETATM   16  C6  UNL     1      20.066   0.722  50.572  1.00  0.00     0.039 A 
HETATM   17  C7  UNL     1      18.665   0.923  50.193  1.00  0.00    -0.026 A 
HETATM   18  C8  UNL     1      17.446   0.669  50.639  1.00  0.00    -0.002 A 
HETATM   19  C9  UNL     1      17.540  -0.039  51.938  1.00  0.00     0.024 A 
HETATM   20  C10 UNL     1      18.778  -0.251  52.382  1.00  0.00     0.008 A 
BRANCH  20  21
HETATM   21  N2  UNL     1      18.610  -1.075  53.552  1.00  0.00    -0.402 N 
HETATM   22  H13 UNL     1      18.558  -1.681  54.391  1.00  0.00     0.156 HD
HETATM   23  H14 UNL     1      17.768  -1.304  54.146  1.00  0.00     0.156 HD
ENDBRANCH  20  21
ENDBRANCH  14  15
ENDBRANCH   4  14
TORSDOF 3
ENDMDL
MODEL 4
REMARK VINA RESULT:      -7.5      1.877      2.451
REMARK  3 active torsions:
REMARK  status: ('A' for Active; 'I' for Inactive)
REMARK    1  A    between atoms: N1_4  and  C4_5 
REMARK    2  A    between atoms: C4_5  and  C5_6 
REMARK    3  A    between atoms: C10_11  and  N2_12 
ROOT
HETATM    1  C1  UNL     1      23.007  -0.600  53.447  1.00  0.00     0.045 C 
HETATM    2  C2  UNL     1      22.621   0.699  52.849  1.00  0.00    -0.059 C 
HETATM    3  C3  UNL     1      23.749   0.955  52.225  1.00  0.00     0.135 C 
HETATM    4  N1  UNL     1      24.628   1.694  51.426  1.00  0.00    -0.393 N 
HETATM    5  C11 UNL     1      24.703   2.811  50.463  1.00  0.00     0.201 C 
HETATM    6  S1  UNL     1      24.269   4.414  51.243  1.00  0.00    -0.066 SA
HETATM    7  C12 UNL     1      22.540   4.500  51.619  1.00  0.00     0.198 C 
HETATM    8  N3  UNL     1      22.162   5.618  52.170  1.00  0.00    -0.272 NA
HETATM    9  O1  UNL     1      21.623   3.532  51.387  1.00  0.00    -0.326 OA
HETATM   10  C13 UNL     1      20.366   3.459  51.989  1.00  0.00     0.205 C 
HETATM   11  C14 UNL     1      20.423   2.177  52.803  1.00  0.00    -0.000 C 
HETATM   12  C15 UNL     1      21.234   1.155  53.128  1.00  0.00     0.002 C 
HETATM   13  H17 UNL     1      22.931   6.303  52.310  1.00  0.00     0.189 HD
ENDROOT
BRANCH   4  14
HETATM   14  C4  UNL     1      25.869   1.044  51.703  1.00  0.00     0.129 C 
BRANCH  14  15
HETATM   15  C5  UNL     1      26.431   1.091  53.082  1.00  0.00     0.056 A 
HETATM   16  C6  UNL     1      27.276   2.380  53.223  1.00  0.00     0.039 A 
HETATM   17  C7  UNL     1      28.599   2.040  53.754  1.00  0.00    -0.026 A 
HETATM   18  C8  UNL     1      29.282   0.992  54.184  1.00  0.00    -0.002 A 
HETATM   19  C9  UNL     1      28.431  -0.218  54.088  1.00  0.00     0.024 A 
HETATM   20  C10 UNL     1      27.210  -0.016  53.594  1.00  0.00     0.008 A 
BRANCH  20  21
HETATM   21  N2  UNL     1      26.541  -1.284  53.746  1.00  0.00    -0.402 N 
HETATM   22  H13 UNL     1      26.115  -2.225  53.825  1.00  0.00     0.156 HD
HETATM   23  H14 UNL     1      25.611  -1.552  54.169  1.00  0.00     0.156 HD
ENDBRANCH  20  21
ENDBRANCH  14  15
ENDBRANCH   4  14
TORSDOF 3
ENDMDL
MODEL 5
REMARK VINA RESULT:      -7.3      1.829      2.274
REMARK  3 active torsions:
REMARK  status: ('A' for Active; 'I' for Inactive)
REMARK    1  A    between atoms: N1_4  and  C4_5 
REMARK    2  A    between atoms: C4_5  and  C5_6 
REMARK    3  A    between atoms: C10_11  and  N2_12 
ROOT
HETATM    1  C1  UNL     1      22.869  -0.409  53.104  1.00  0.00     0.045 C 
HETATM    2  C2  UNL     1      22.686   0.625  52.059  1.00  0.00    -0.059 C 
HETATM    3  C3  UNL     1      23.902   1.124  52.081  1.00  0.00     0.135 C 
HETATM    4  N1  UNL     1      24.938   1.981  51.698  1.00  0.00    -0.393 N 
HETATM    5  C11 UNL     1      25.365   2.933  50.653  1.00  0.00     0.201 C 
HETATM    6  S1  UNL     1      24.291   4.421  50.605  1.00  0.00    -0.066 SA
HETATM    7  C12 UNL     1      22.683   4.033  49.972  1.00  0.00     0.198 C 
HETATM    8  N3  UNL     1      21.870   5.047  49.904  1.00  0.00    -0.272 NA
HETATM    9  O1  UNL     1      22.255   2.812  49.571  1.00  0.00    -0.326 OA
HETATM   10  C13 UNL     1      20.918   2.444  49.412  1.00  0.00     0.205 C 
HETATM   11  C14 UNL     1      20.711   1.356  50.453  1.00  0.00    -0.000 C 
HETATM   12  C15 UNL     1      21.343   0.676  51.425  1.00  0.00     0.002 C 
HETATM   13  H17 UNL     1      22.282   5.943  50.231  1.00  0.00     0.189 HD
ENDROOT
BRANCH   4  14
HETATM   14  C4  UNL     1      25.876   1.775  52.755  1.00  0.00     0.129 C 
BRANCH  14  15
HETATM   15  C5  UNL     1      27.215   1.201  52.447  1.00  0.00     0.056 A 
HETATM   16  C6  UNL     1      27.079  -0.337  52.352  1.00  0.00     0.039 A 
HETATM   17  C7  UNL     1      28.092  -0.970  53.200  1.00  0.00    -0.026 A 
HETATM   18  C8  UNL     1      29.104  -0.646  53.987  1.00  0.00    -0.002 A 
HETATM   19  C9  UNL     1      29.246   0.830  54.017  1.00  0.00     0.024 A 
HETATM   20  C10 UNL     1      28.352   1.501  53.291  1.00  0.00     0.008 A 
BRANCH  20  21
HETATM   21  N2  UNL     1      28.788   2.873  53.355  1.00  0.00    -0.402 N 
HETATM   22  H13 UNL     1      29.104   3.853  53.471  1.00  0.00     0.156 HD
HETATM   23  H14 UNL     1      28.964   3.600  52.610  1.00  0.00     0.156 HD
ENDBRANCH  20  21
ENDBRANCH  14  15
ENDBRANCH   4  14
TORSDOF 3
ENDMDL
MODEL 6
REMARK VINA RESULT:      -7.1      2.330      3.894
REMARK  3 active torsions:
REMARK  status: ('A' for Active; 'I' for Inactive)
REMARK    1  A    between atoms: N1_4  and  C4_5 
REMARK    2  A    between atoms: C4_5  and  C5_6 
REMARK    3  A    between atoms: C10_11  and  N2_12 
ROOT
HETATM    1  C1  UNL     1      26.651   3.816  50.038  1.00  0.00     0.045 C 
HETATM    2  C2  UNL     1      25.242   3.367  50.126  1.00  0.00    -0.059 C 
HETATM    3  C3  UNL     1      25.264   2.936  51.367  1.00  0.00     0.135 C 
HETATM    4  N1  UNL     1      24.739   2.366  52.531  1.00  0.00    -0.393 N 
HETATM    5  C11 UNL     1      23.479   2.001  53.210  1.00  0.00     0.201 C 
HETATM    6  S1  UNL     1      22.578   0.678  52.311  1.00  0.00    -0.066 SA
HETATM    7  C12 UNL     1      21.899   1.280  50.791  1.00  0.00     0.198 C 
HETATM    8  N3  UNL     1      21.239   0.393  50.105  1.00  0.00    -0.272 NA
HETATM    9  O1  UNL     1      22.010   2.541  50.310  1.00  0.00    -0.326 OA
HETATM   10  C13 UNL     1      21.786   2.915  48.984  1.00  0.00     0.205 C 
HETATM   11  C14 UNL     1      23.144   3.408  48.509  1.00  0.00    -0.000 C 
HETATM   12  C15 UNL     1      24.415   3.583  48.910  1.00  0.00     0.002 C 
HETATM   13  H17 UNL     1      21.205  -0.547  50.548  1.00  0.00     0.189 HD
ENDROOT
BRANCH   4  14
HETATM   14  C4  UNL     1      25.931   2.086  53.267  1.00  0.00     0.129 C 
BRANCH  14  15
HETATM   15  C5  UNL     1      27.047   1.355  52.606  1.00  0.00     0.056 A 
HETATM   16  C6  UNL     1      26.587  -0.095  52.328  1.00  0.00     0.039 A 
HETATM   17  C7  UNL     1      27.587  -1.032  52.847  1.00  0.00    -0.026 A 
HETATM   18  C8  UNL     1      28.769  -1.030  53.439  1.00  0.00    -0.002 A 
HETATM   19  C9  UNL     1      29.210   0.371  53.644  1.00  0.00     0.024 A 
HETATM   20  C10 UNL     1      28.355   1.302  53.223  1.00  0.00     0.008 A 
BRANCH  20  21
HETATM   21  N2  UNL     1      29.064   2.547  53.385  1.00  0.00    -0.402 N 
HETATM   22  H13 UNL     1      29.631   3.409  53.477  1.00  0.00     0.156 HD
HETATM   23  H14 UNL     1      28.762   3.499  53.725  1.00  0.00     0.156 HD
ENDBRANCH  20  21
ENDBRANCH  14  15
ENDBRANCH   4  14
TORSDOF 3
ENDMDL
MODEL 7
REMARK VINA RESULT:      -7.1      3.284      4.951
REMARK  3 active torsions:
REMARK  status: ('A' for Active; 'I' for Inactive)
REMARK    1  A    between atoms: N1_4  and  C4_5 
REMARK    2  A    between atoms: C4_5  and  C5_6 
REMARK    3  A    between atoms: C10_11  and  N2_12 
ROOT
HETATM    1  C1  UNL     1      26.810   3.251  49.283  1.00  0.00     0.045 C 
HETATM    2  C2  UNL     1      25.748   4.150  49.792  1.00  0.00    -0.059 C 
HETATM    3  C3  UNL     1      25.409   3.451  50.852  1.00  0.00     0.135 C 
HETATM    4  N1  UNL     1      24.686   3.161  52.014  1.00  0.00    -0.393 N 
HETATM    5  C11 UNL     1      23.783   3.744  53.026  1.00  0.00     0.201 C 
HETATM    6  S1  UNL     1      22.170   4.234  52.300  1.00  0.00    -0.066 SA
HETATM    7  C12 UNL     1      22.340   5.648  51.248  1.00  0.00     0.198 C 
HETATM    8  N3  UNL     1      21.230   6.054  50.704  1.00  0.00    -0.272 NA
HETATM    9  O1  UNL     1      23.491   6.309  50.978  1.00  0.00    -0.326 OA
HETATM   10  C13 UNL     1      23.682   7.178  49.902  1.00  0.00     0.205 C 
HETATM   11  C14 UNL     1      24.749   6.493  49.064  1.00  0.00    -0.000 C 
HETATM   12  C15 UNL     1      25.516   5.390  49.007  1.00  0.00     0.002 C 
HETATM   13  H17 UNL     1      20.398   5.489  50.966  1.00  0.00     0.189 HD
ENDROOT
BRANCH   4  14
HETATM   14  C4  UNL     1      25.024   1.788  52.217  1.00  0.00     0.129 C 
BRANCH  14  15
HETATM   15  C5  UNL     1      26.456   1.381  52.247  1.00  0.00     0.056 A 
HETATM   16  C6  UNL     1      26.563  -0.076  51.738  1.00  0.00     0.039 A 
HETATM   17  C7  UNL     1      27.335  -0.871  52.697  1.00  0.00    -0.026 A 
HETATM   18  C8  UNL     1      27.998  -0.730  53.832  1.00  0.00    -0.002 A 
HETATM   19  C9  UNL     1      27.925   0.685  54.267  1.00  0.00     0.024 A 
HETATM   20  C10 UNL     1      27.222   1.489  53.470  1.00  0.00     0.008 A 
BRANCH  20  21
HETATM   21  N2  UNL     1      27.429   2.809  54.010  1.00  0.00    -0.402 N 
HETATM   22  H13 UNL     1      27.566   3.783  54.334  1.00  0.00     0.156 HD
HETATM   23  H14 UNL     1      27.645   3.154  54.984  1.00  0.00     0.156 HD
ENDBRANCH  20  21
ENDBRANCH  14  15
ENDBRANCH   4  14
TORSDOF 3
ENDMDL
MODEL 8
REMARK VINA RESULT:      -7.1      2.561      6.740
REMARK  3 active torsions:
REMARK  status: ('A' for Active; 'I' for Inactive)
REMARK    1  A    between atoms: N1_4  and  C4_5 
REMARK    2  A    between atoms: C4_5  and  C5_6 
REMARK    3  A    between atoms: C10_11  and  N2_12 
ROOT
HETATM    1  C1  UNL     1      23.236  -0.790  53.735  1.00  0.00     0.045 C 
HETATM    2  C2  UNL     1      23.879   0.341  53.027  1.00  0.00    -0.059 C 
HETATM    3  C3  UNL     1      22.827   1.123  52.937  1.00  0.00     0.135 C 
HETATM    4  N1  UNL     1      22.116   2.273  52.579  1.00  0.00    -0.393 N 
HETATM    5  C11 UNL     1      22.270   3.672  52.131  1.00  0.00     0.201 C 
HETATM    6  S1  UNL     1      23.026   3.775  50.462  1.00  0.00    -0.066 SA
HETATM    7  C12 UNL     1      24.736   3.317  50.500  1.00  0.00     0.198 C 
HETATM    8  N3  UNL     1      25.338   3.374  49.347  1.00  0.00    -0.272 NA
HETATM    9  O1  UNL     1      25.435   2.927  51.592  1.00  0.00    -0.326 OA
HETATM   10  C13 UNL     1      26.652   2.244  51.564  1.00  0.00     0.205 C 
HETATM   11  C14 UNL     1      26.334   0.902  52.204  1.00  0.00    -0.000 C 
HETATM   12  C15 UNL     1      25.331   0.190  52.746  1.00  0.00     0.002 C 
HETATM   13  H17 UNL     1      24.726   3.683  48.565  1.00  0.00     0.189 HD
ENDROOT
BRANCH   4  14
HETATM   14  C4  UNL     1      20.769   1.836  52.759  1.00  0.00     0.129 C 
BRANCH  14  15
HETATM   15  C5  UNL     1      20.291   0.617  52.049  1.00  0.00     0.056 A 
HETATM   16  C6  UNL     1      19.842   1.023  50.625  1.00  0.00     0.039 A 
HETATM   17  C7  UNL     1      18.497   0.502  50.370  1.00  0.00    -0.026 A 
HETATM   18  C8  UNL     1      17.566  -0.234  50.954  1.00  0.00    -0.002 A 
HETATM   19  C9  UNL     1      18.044  -0.654  52.293  1.00  0.00     0.024 A 
HETATM   20  C10 UNL     1      19.255  -0.210  52.629  1.00  0.00     0.008 A 
BRANCH  20  21
HETATM   21  N2  UNL     1      19.551  -0.868  53.876  1.00  0.00    -0.402 N 
HETATM   22  H13 UNL     1      19.696  -1.355  54.779  1.00  0.00     0.156 HD
HETATM   23  H14 UNL     1      20.454  -1.033  54.397  1.00  0.00     0.156 HD
ENDBRANCH  20  21
ENDBRANCH  14  15
ENDBRANCH   4  14
TORSDOF 3
ENDMDL
MODEL 9
REMARK VINA RESULT:      -7.1      2.650      6.498
REMARK  3 active torsions:
REMARK  status: ('A' for Active; 'I' for Inactive)
REMARK    1  A    between atoms: N1_4  and  C4_5 
REMARK    2  A    between atoms: C4_5  and  C5_6 
REMARK    3  A    between atoms: C10_11  and  N2_12 
ROOT
HETATM    1  C1  UNL     1      23.762   3.571  52.513  1.00  0.00     0.045 C 
HETATM    2  C2  UNL     1      24.235   2.293  53.094  1.00  0.00    -0.059 C 
HETATM    3  C3  UNL     1      23.103   1.629  53.018  1.00  0.00     0.135 C 
HETATM    4  N1  UNL     1      22.255   0.528  53.178  1.00  0.00    -0.393 N 
HETATM    5  C11 UNL     1      22.233  -0.926  53.437  1.00  0.00     0.201 C 
HETATM    6  S1  UNL     1      22.858  -1.329  55.115  1.00  0.00    -0.066 SA
HETATM    7  C12 UNL     1      24.605  -1.062  55.233  1.00  0.00     0.198 C 
HETATM    8  N3  UNL     1      25.116  -1.336  56.398  1.00  0.00    -0.272 NA
HETATM    9  O1  UNL     1      25.413  -0.614  54.244  1.00  0.00    -0.326 OA
HETATM   10  C13 UNL     1      26.689  -0.080  54.432  1.00  0.00     0.205 C 
HETATM   11  C14 UNL     1      26.556   1.361  53.965  1.00  0.00    -0.000 C 
HETATM   12  C15 UNL     1      25.671   2.244  53.472  1.00  0.00     0.002 C 
HETATM   13  H17 UNL     1      24.424  -1.674  57.096  1.00  0.00     0.189 HD
ENDROOT
BRANCH   4  14
HETATM   14  C4  UNL     1      20.976   1.132  52.986  1.00  0.00     0.129 C 
BRANCH  14  15
HETATM   15  C5  UNL     1      20.479   1.376  51.603  1.00  0.00     0.056 A 
HETATM   16  C6  UNL     1      21.210   0.410  50.641  1.00  0.00     0.039 A 
HETATM   17  C7  UNL     1      21.769   1.169  49.519  1.00  0.00    -0.026 A 
HETATM   18  C8  UNL     1      21.813   2.404  49.051  1.00  0.00    -0.002 A 
HETATM   19  C9  UNL     1      21.059   3.299  49.962  1.00  0.00     0.024 A 
HETATM   20  C10 UNL     1      20.528   2.704  51.031  1.00  0.00     0.008 A 
BRANCH  20  21
HETATM   21  N2  UNL     1      19.733   3.728  51.660  1.00  0.00    -0.402 N 
HETATM   22  H13 UNL     1      19.205   4.512  52.084  1.00  0.00     0.156 HD
HETATM   23  H14 UNL     1      18.873   3.688  52.270  1.00  0.00     0.156 HD
ENDBRANCH  20  21
ENDBRANCH  14  15
ENDBRANCH   4  14
TORSDOF 3
ENDMDL
