MODEL 1
REMARK VINA RESULT:      -8.6      0.000      0.000
REMARK  1 active torsions:
REMARK  status: ('A' for Active; 'I' for Inactive)
REMARK    1  A    between atoms: C17_20  and  N3_21 
ROOT
HETATM    1  C1  UNL     1      24.033   3.362  52.995  1.00  0.00     0.071 C 
HETATM    2  C2  UNL     1      24.522   2.337  52.116  1.00  0.00     0.207 C 
HETATM    3  C3  UNL     1      25.823   2.175  51.509  1.00  0.00     0.071 C 
HETATM    4  N1  UNL     1      24.229   0.976  52.684  1.00  0.00     0.035 N 
HETATM    5  C4  UNL     1      23.948  -0.341  53.231  1.00  0.00     0.343 C 
HETATM    6  O1  UNL     1      24.999  -0.845  52.820  1.00  0.00    -0.261 OA
HETATM    7  C5  UNL     1      22.756  -0.867  53.989  1.00  0.00     0.082 C 
HETATM    8  C6  UNL     1      21.546  -0.381  54.216  1.00  0.00     0.006 C 
HETATM    9  C7  UNL     1      20.625   0.710  53.970  1.00  0.00     0.005 C 
HETATM   10  C8  UNL     1      20.939   1.696  53.051  1.00  0.00    -0.053 C 
HETATM   11  C9  UNL     1      21.991   2.021  52.076  1.00  0.00     0.167 C 
HETATM   12  C10 UNL     1      22.985   1.172  51.673  1.00  0.00     0.242 C 
HETATM   13  N2  UNL     1      23.363   2.263  50.955  1.00  0.00    -0.324 N 
HETATM   14  C11 UNL     1      23.786   3.372  50.272  1.00  0.00     0.042 A 
HETATM   15  C12 UNL     1      24.702   4.325  50.275  1.00  0.00     0.030 A 
HETATM   16  C13 UNL     1      24.713   5.313  49.340  1.00  0.00     0.002 A 
HETATM   17  C14 UNL     1      23.742   5.322  48.370  1.00  0.00     0.001 A 
HETATM   18  C15 UNL     1      22.814   4.304  48.422  1.00  0.00     0.012 A 
HETATM   19  C16 UNL     1      22.724   3.242  49.347  1.00  0.00     0.007 A 
HETATM   20  C17 UNL     1      21.555   2.312  49.129  1.00  0.00     0.303 C 
HETATM   21  C18 UNL     1      20.441   2.480  50.063  1.00  0.00     0.063 C 
HETATM   22  C19 UNL     1      19.470   1.900  49.317  1.00  0.00     0.020 C 
HETATM   23  C20 UNL     1      18.731   2.841  48.738  1.00  0.00     0.132 C 
HETATM   24  N4  UNL     1      17.883   3.291  49.803  1.00  0.00    -0.255 NA
HETATM   25  C21 UNL     1      18.358   3.311  51.029  1.00  0.00     0.209 C 
HETATM   26  N5  UNL     1      19.730   2.884  51.271  1.00  0.00    -0.338 N 
HETATM   27  C22 UNL     1      20.110   2.906  52.695  1.00  0.00     0.164 C 
HETATM   28  H7  UNL     1      23.648   1.194  53.519  1.00  0.00     0.295 HD
ENDROOT
BRANCH  20  29
HETATM   29  N3  UNL     1      22.001   0.935  48.981  1.00  0.00     0.093 N 
HETATM   30  H18 UNL     1      22.701   0.846  48.178  1.00  0.00     0.314 HD
HETATM   31  H19 UNL     1      21.234   0.275  48.756  1.00  0.00     0.314 HD
ENDBRANCH  20  29
TORSDOF 1
ENDMDL
MODEL 2
REMARK VINA RESULT:      -8.5      2.077      3.000
REMARK  1 active torsions:
REMARK  status: ('A' for Active; 'I' for Inactive)
REMARK    1  A    between atoms: C17_20  and  N3_21 
ROOT
HETATM    1  C1  UNL     1      23.792   4.763  52.710  1.00  0.00     0.071 C 
HETATM    2  C2  UNL     1      24.288   4.641  51.368  1.00  0.00     0.207 C 
HETATM    3  C3  UNL     1      24.797   5.651  50.469  1.00  0.00     0.071 C 
HETATM    4  N1  UNL     1      25.319   3.549  51.288  1.00  0.00     0.035 N 
HETATM    5  C4  UNL     1      26.316   2.495  51.207  1.00  0.00     0.343 C 
HETATM    6  O1  UNL     1      27.015   3.083  50.375  1.00  0.00    -0.261 OA
HETATM    7  C5  UNL     1      26.399   1.152  51.888  1.00  0.00     0.082 C 
HETATM    8  C6  UNL     1      25.531   0.445  52.593  1.00  0.00     0.006 C 
HETATM    9  C7  UNL     1      24.178   0.371  53.108  1.00  0.00     0.005 C 
HETATM   10  C8  UNL     1      23.228   1.294  52.710  1.00  0.00    -0.053 C 
HETATM   11  C9  UNL     1      23.090   2.428  51.782  1.00  0.00     0.167 C 
HETATM   12  C10 UNL     1      23.989   2.766  50.809  1.00  0.00     0.242 C 
HETATM   13  N2  UNL     1      23.107   3.782  50.616  1.00  0.00    -0.324 N 
HETATM   14  C11 UNL     1      22.256   4.842  50.450  1.00  0.00     0.042 A 
HETATM   15  C12 UNL     1      22.129   6.138  50.681  1.00  0.00     0.030 A 
HETATM   16  C13 UNL     1      21.003   6.820  50.341  1.00  0.00     0.002 A 
HETATM   17  C14 UNL     1      19.968   6.143  49.746  1.00  0.00     0.001 A 
HETATM   18  C15 UNL     1      20.159   4.794  49.534  1.00  0.00     0.012 A 
HETATM   19  C16 UNL     1      21.286   4.006  49.850  1.00  0.00     0.007 A 
HETATM   20  C17 UNL     1      21.149   2.543  49.506  1.00  0.00     0.303 C 
HETATM   21  C18 UNL     1      20.905   1.654  50.643  1.00  0.00     0.063 C 
HETATM   22  C19 UNL     1      20.375   0.608  49.965  1.00  0.00     0.020 C 
HETATM   23  C20 UNL     1      19.051   0.625  50.083  1.00  0.00     0.132 C 
HETATM   24  N4  UNL     1      18.835   0.103  51.400  1.00  0.00    -0.255 NA
HETATM   25  C21 UNL     1      19.709   0.373  52.344  1.00  0.00     0.209 C 
HETATM   26  N5  UNL     1      20.868   1.200  52.029  1.00  0.00    -0.338 N 
HETATM   27  C22 UNL     1      21.791   1.376  53.165  1.00  0.00     0.164 C 
HETATM   28  H7  UNL     1      25.284   3.127  52.238  1.00  0.00     0.295 HD
ENDROOT
BRANCH  20  29
HETATM   29  N3  UNL     1      22.229   2.106  48.633  1.00  0.00     0.093 N 
HETATM   30  H18 UNL     1      22.240   2.675  47.729  1.00  0.00     0.314 HD
HETATM   31  H19 UNL     1      22.145   1.115  48.337  1.00  0.00     0.314 HD
ENDBRANCH  20  29
TORSDOF 1
ENDMDL
MODEL 3
REMARK VINA RESULT:      -8.4      2.333      5.026
REMARK  1 active torsions:
REMARK  status: ('A' for Active; 'I' for Inactive)
REMARK    1  A    between atoms: C17_20  and  N3_21 
ROOT
HETATM    1  C1  UNL     1      22.341   1.571  49.314  1.00  0.00     0.071 C 
HETATM    2  C2  UNL     1      21.912   1.684  50.680  1.00  0.00     0.207 C 
HETATM    3  C3  UNL     1      20.691   1.238  51.312  1.00  0.00     0.071 C 
HETATM    4  N1  UNL     1      22.987   1.191  51.609  1.00  0.00     0.035 N 
HETATM    5  C4  UNL     1      24.023   0.714  52.509  1.00  0.00     0.343 C 
HETATM    6  O1  UNL     1      23.231   0.221  53.320  1.00  0.00    -0.261 OA
HETATM    7  C5  UNL     1      25.524   0.842  52.451  1.00  0.00     0.082 C 
HETATM    8  C6  UNL     1      26.338   1.568  51.702  1.00  0.00     0.006 C 
HETATM    9  C7  UNL     1      26.438   2.571  50.661  1.00  0.00     0.005 C 
HETATM   10  C8  UNL     1      25.306   3.230  50.215  1.00  0.00    -0.053 C 
HETATM   11  C9  UNL     1      23.868   3.312  50.516  1.00  0.00     0.167 C 
HETATM   12  C10 UNL     1      23.261   2.782  51.622  1.00  0.00     0.242 C 
HETATM   13  N2  UNL     1      22.151   3.275  51.012  1.00  0.00    -0.324 N 
HETATM   14  C11 UNL     1      21.019   3.715  50.379  1.00  0.00     0.042 A 
HETATM   15  C12 UNL     1      19.966   3.302  49.694  1.00  0.00     0.030 A 
HETATM   16  C13 UNL     1      19.047   4.172  49.197  1.00  0.00     0.002 A 
HETATM   17  C14 UNL     1      19.219   5.517  49.411  1.00  0.00     0.001 A 
HETATM   18  C15 UNL     1      20.337   5.885  50.129  1.00  0.00     0.012 A 
HETATM   19  C16 UNL     1      21.339   5.059  50.681  1.00  0.00     0.007 A 
HETATM   20  C17 UNL     1      22.448   5.799  51.388  1.00  0.00     0.303 C 
HETATM   21  C18 UNL     1      23.709   5.886  50.651  1.00  0.00     0.063 C 
HETATM   22  C19 UNL     1      24.243   6.950  51.298  1.00  0.00     0.020 C 
HETATM   23  C20 UNL     1      24.087   8.045  50.561  1.00  0.00     0.132 C 
HETATM   24  N4  UNL     1      25.111   7.917  49.567  1.00  0.00    -0.255 NA
HETATM   25  C21 UNL     1      25.431   6.719  49.132  1.00  0.00     0.209 C 
HETATM   26  N5  UNL     1      24.732   5.556  49.664  1.00  0.00    -0.338 N 
HETATM   27  C22 UNL     1      25.229   4.275  49.128  1.00  0.00     0.164 C 
HETATM   28  H7  UNL     1      23.784   1.009  50.965  1.00  0.00     0.295 HD
ENDROOT
BRANCH  20  29
HETATM   29  N3  UNL     1      22.595   5.338  52.760  1.00  0.00     0.093 N 
HETATM   30  H18 UNL     1      22.757   6.161  53.423  1.00  0.00     0.314 HD
HETATM   31  H19 UNL     1      23.405   4.705  52.899  1.00  0.00     0.314 HD
ENDBRANCH  20  29
TORSDOF 1
ENDMDL
MODEL 4
REMARK VINA RESULT:      -8.3      8.780     12.377
REMARK  1 active torsions:
REMARK  status: ('A' for Active; 'I' for Inactive)
REMARK    1  A    between atoms: C17_20  and  N3_21 
ROOT
HETATM    1  C1  UNL     1      30.953   6.884  46.190  1.00  0.00     0.071 C 
HETATM    2  C2  UNL     1      31.352   6.693  47.556  1.00  0.00     0.207 C 
HETATM    3  C3  UNL     1      31.216   5.536  48.412  1.00  0.00     0.071 C 
HETATM    4  N1  UNL     1      32.787   7.101  47.745  1.00  0.00     0.035 N 
HETATM    5  C4  UNL     1      34.174   7.494  47.930  1.00  0.00     0.343 C 
HETATM    6  O1  UNL     1      34.420   6.604  48.753  1.00  0.00    -0.261 OA
HETATM    7  C5  UNL     1      34.972   8.627  47.337  1.00  0.00     0.082 C 
HETATM    8  C6  UNL     1      34.633   9.701  46.643  1.00  0.00     0.006 C 
HETATM    9  C7  UNL     1      33.544  10.472  46.079  1.00  0.00     0.005 C 
HETATM   10  C8  UNL     1      32.232  10.153  46.381  1.00  0.00    -0.053 C 
HETATM   11  C9  UNL     1      31.476   9.220  47.231  1.00  0.00     0.167 C 
HETATM   12  C10 UNL     1      32.012   8.437  48.217  1.00  0.00     0.242 C 
HETATM   13  N2  UNL     1      30.725   8.009  48.312  1.00  0.00    -0.324 N 
HETATM   14  C11 UNL     1      29.445   7.529  48.377  1.00  0.00     0.042 A 
HETATM   15  C12 UNL     1      28.692   6.488  48.063  1.00  0.00     0.030 A 
HETATM   16  C13 UNL     1      27.356   6.467  48.314  1.00  0.00     0.002 A 
HETATM   17  C14 UNL     1      26.772   7.558  48.908  1.00  0.00     0.001 A 
HETATM   18  C15 UNL     1      27.608   8.612  49.209  1.00  0.00     0.012 A 
HETATM   19  C16 UNL     1      28.997   8.724  48.988  1.00  0.00     0.007 A 
HETATM   20  C17 UNL     1      29.601  10.039  49.416  1.00  0.00     0.303 C 
HETATM   21  C18 UNL     1      29.919  10.964  48.327  1.00  0.00     0.063 C 
HETATM   22  C19 UNL     1      29.951  12.112  49.046  1.00  0.00     0.020 C 
HETATM   23  C20 UNL     1      28.813  12.777  48.874  1.00  0.00     0.132 C 
HETATM   24  N4  UNL     1      28.980  13.379  47.583  1.00  0.00    -0.255 NA
HETATM   25  C21 UNL     1      29.656  12.730  46.661  1.00  0.00     0.209 C 
HETATM   26  N5  UNL     1      30.209  11.418  46.971  1.00  0.00    -0.338 N 
HETATM   27  C22 UNL     1      30.987  10.832  45.865  1.00  0.00     0.164 C 
HETATM   28  H7  UNL     1      33.034   7.512  46.822  1.00  0.00     0.295 HD
ENDROOT
BRANCH  20  29
HETATM   29  N3  UNL     1      30.692   9.834  50.357  1.00  0.00     0.093 N 
HETATM   30  H18 UNL     1      31.596   9.588  49.843  1.00  0.00     0.314 HD
HETATM   31  H19 UNL     1      30.526   9.052  51.018  1.00  0.00     0.314 HD
ENDBRANCH  20  29
TORSDOF 1
ENDMDL
MODEL 5
REMARK VINA RESULT:      -8.2      2.860      5.985
REMARK  1 active torsions:
REMARK  status: ('A' for Active; 'I' for Inactive)
REMARK    1  A    between atoms: C17_20  and  N3_21 
ROOT
HETATM    1  C1  UNL     1      22.876   2.501  48.426  1.00  0.00     0.071 C 
HETATM    2  C2  UNL     1      22.138   3.454  49.206  1.00  0.00     0.207 C 
HETATM    3  C3  UNL     1      20.744   3.831  49.139  1.00  0.00     0.071 C 
HETATM    4  N1  UNL     1      22.367   3.220  50.674  1.00  0.00     0.035 N 
HETATM    5  C4  UNL     1      22.586   2.995  52.093  1.00  0.00     0.343 C 
HETATM    6  O1  UNL     1      21.431   3.294  52.420  1.00  0.00    -0.261 OA
HETATM    7  C5  UNL     1      23.820   2.585  52.855  1.00  0.00     0.082 C 
HETATM    8  C6  UNL     1      25.097   2.496  52.519  1.00  0.00     0.006 C 
HETATM    9  C7  UNL     1      26.081   2.694  51.474  1.00  0.00     0.005 C 
HETATM   10  C8  UNL     1      25.732   3.334  50.298  1.00  0.00    -0.053 C 
HETATM   11  C9  UNL     1      24.576   4.018  49.698  1.00  0.00     0.167 C 
HETATM   12  C10 UNL     1      23.441   4.386  50.367  1.00  0.00     0.242 C 
HETATM   13  N2  UNL     1      23.074   4.801  49.126  1.00  0.00    -0.324 N 
HETATM   14  C11 UNL     1      22.670   5.170  47.871  1.00  0.00     0.042 A 
HETATM   15  C12 UNL     1      21.879   4.817  46.872  1.00  0.00     0.030 A 
HETATM   16  C13 UNL     1      21.825   5.527  45.714  1.00  0.00     0.002 A 
HETATM   17  C14 UNL     1      22.617   6.640  45.577  1.00  0.00     0.001 A 
HETATM   18  C15 UNL     1      23.422   6.955  46.651  1.00  0.00     0.012 A 
HETATM   19  C16 UNL     1      23.544   6.283  47.886  1.00  0.00     0.007 A 
HETATM   20  C17 UNL     1      24.549   6.885  48.836  1.00  0.00     0.303 C 
HETATM   21  C18 UNL     1      25.814   6.158  48.951  1.00  0.00     0.063 C 
HETATM   22  C19 UNL     1      26.578   7.166  49.436  1.00  0.00     0.020 C 
HETATM   23  C20 UNL     1      27.312   7.681  48.454  1.00  0.00     0.132 C 
HETATM   24  N4  UNL     1      28.368   6.724  48.301  1.00  0.00    -0.255 NA
HETATM   25  C21 UNL     1      28.108   5.451  48.500  1.00  0.00     0.209 C 
HETATM   26  N5  UNL     1      26.755   5.046  48.862  1.00  0.00    -0.338 N 
HETATM   27  C22 UNL     1      26.621   3.599  49.107  1.00  0.00     0.164 C 
HETATM   28  H7  UNL     1      23.098   2.480  50.679  1.00  0.00     0.295 HD
ENDROOT
BRANCH  20  29
HETATM   29  N3  UNL     1      23.934   7.208  50.115  1.00  0.00     0.093 N 
HETATM   30  H18 UNL     1      22.875   7.071  50.073  1.00  0.00     0.314 HD
HETATM   31  H19 UNL     1      24.076   8.195  50.403  1.00  0.00     0.314 HD
ENDBRANCH  20  29
TORSDOF 1
ENDMDL
MODEL 6
REMARK VINA RESULT:      -8.0      1.960      2.806
REMARK  1 active torsions:
REMARK  status: ('A' for Active; 'I' for Inactive)
REMARK    1  A    between atoms: C17_20  and  N3_21 
ROOT
HETATM    1  C1  UNL     1      24.551   5.972  50.946  1.00  0.00     0.071 C 
HETATM    2  C2  UNL     1      25.207   5.074  50.037  1.00  0.00     0.207 C 
HETATM    3  C3  UNL     1      26.320   5.303  49.145  1.00  0.00     0.071 C 
HETATM    4  N1  UNL     1      25.577   3.797  50.739  1.00  0.00     0.035 N 
HETATM    5  C4  UNL     1      25.937   2.562  51.415  1.00  0.00     0.343 C 
HETATM    6  O1  UNL     1      26.996   2.414  50.793  1.00  0.00    -0.261 OA
HETATM    7  C5  UNL     1      25.216   1.759  52.467  1.00  0.00     0.082 C 
HETATM    8  C6  UNL     1      23.985   1.807  52.950  1.00  0.00     0.006 C 
HETATM    9  C7  UNL     1      22.687   2.447  52.869  1.00  0.00     0.005 C 
HETATM   10  C8  UNL     1      22.408   3.334  51.846  1.00  0.00    -0.053 C 
HETATM   11  C9  UNL     1      23.037   3.870  50.628  1.00  0.00     0.167 C 
HETATM   12  C10 UNL     1      24.177   3.385  50.048  1.00  0.00     0.242 C 
HETATM   13  N2  UNL     1      23.956   4.421  49.197  1.00  0.00    -0.324 N 
HETATM   14  C11 UNL     1      23.776   5.496  48.368  1.00  0.00     0.042 A 
HETATM   15  C12 UNL     1      24.239   6.704  48.092  1.00  0.00     0.030 A 
HETATM   16  C13 UNL     1      23.682   7.482  47.126  1.00  0.00     0.002 A 
HETATM   17  C14 UNL     1      22.608   7.001  46.419  1.00  0.00     0.001 A 
HETATM   18  C15 UNL     1      22.171   5.737  46.754  1.00  0.00     0.012 A 
HETATM   19  C16 UNL     1      22.682   4.861  47.735  1.00  0.00     0.007 A 
HETATM   20  C17 UNL     1      21.940   3.553  47.861  1.00  0.00     0.303 C 
HETATM   21  C18 UNL     1      21.058   3.444  49.024  1.00  0.00     0.063 C 
HETATM   22  C19 UNL     1      20.254   2.453  48.570  1.00  0.00     0.020 C 
HETATM   23  C20 UNL     1      19.111   2.971  48.132  1.00  0.00     0.132 C 
HETATM   24  N4  UNL     1      18.390   3.237  49.342  1.00  0.00    -0.255 NA
HETATM   25  C21 UNL     1      19.056   3.604  50.414  1.00  0.00     0.209 C 
HETATM   26  N5  UNL     1      20.506   3.738  50.342  1.00  0.00    -0.338 N 
HETATM   27  C22 UNL     1      21.126   4.102  51.629  1.00  0.00     0.164 C 
HETATM   28  H7  UNL     1      25.138   3.911  51.675  1.00  0.00     0.295 HD
ENDROOT
BRANCH  20  29
HETATM   29  N3  UNL     1      22.839   2.421  47.691  1.00  0.00     0.093 N 
HETATM   30  H18 UNL     1      23.541   2.608  46.908  1.00  0.00     0.314 HD
HETATM   31  H19 UNL     1      22.353   1.544  47.426  1.00  0.00     0.314 HD
ENDBRANCH  20  29
TORSDOF 1
ENDMDL
MODEL 7
REMARK VINA RESULT:      -7.9      3.546      5.996
REMARK  1 active torsions:
REMARK  status: ('A' for Active; 'I' for Inactive)
REMARK    1  A    between atoms: C17_20  and  N3_21 
ROOT
HETATM    1  C1  UNL     1      24.214   7.512  50.775  1.00  0.00     0.071 C 
HETATM    2  C2  UNL     1      24.197   7.877  49.387  1.00  0.00     0.207 C 
HETATM    3  C3  UNL     1      23.878   9.140  48.760  1.00  0.00     0.071 C 
HETATM    4  N1  UNL     1      25.484   7.471  48.722  1.00  0.00     0.035 N 
HETATM    5  C4  UNL     1      26.727   7.082  48.078  1.00  0.00     0.343 C 
HETATM    6  O1  UNL     1      26.766   8.069  47.334  1.00  0.00    -0.261 OA
HETATM    7  C5  UNL     1      27.600   5.866  48.258  1.00  0.00     0.082 C 
HETATM    8  C6  UNL     1      27.423   4.715  48.887  1.00  0.00     0.006 C 
HETATM    9  C7  UNL     1      26.509   3.896  49.656  1.00  0.00     0.005 C 
HETATM   10  C8  UNL     1      25.188   4.276  49.809  1.00  0.00    -0.053 C 
HETATM   11  C9  UNL     1      24.267   5.327  49.349  1.00  0.00     0.167 C 
HETATM   12  C10 UNL     1      24.528   6.224  48.349  1.00  0.00     0.242 C 
HETATM   13  N2  UNL     1      23.298   6.684  48.703  1.00  0.00    -0.324 N 
HETATM   14  C11 UNL     1      22.087   7.192  49.089  1.00  0.00     0.042 A 
HETATM   15  C12 UNL     1      21.523   8.195  49.741  1.00  0.00     0.030 A 
HETATM   16  C13 UNL     1      20.177   8.273  49.912  1.00  0.00     0.002 A 
HETATM   17  C14 UNL     1      19.381   7.281  49.396  1.00  0.00     0.001 A 
HETATM   18  C15 UNL     1      20.026   6.262  48.729  1.00  0.00     0.012 A 
HETATM   19  C16 UNL     1      21.409   6.097  48.502  1.00  0.00     0.007 A 
HETATM   20  C17 UNL     1      21.781   4.840  47.755  1.00  0.00     0.303 C 
HETATM   21  C18 UNL     1      22.356   3.773  48.574  1.00  0.00     0.063 C 
HETATM   22  C19 UNL     1      22.106   2.731  47.745  1.00  0.00     0.020 C 
HETATM   23  C20 UNL     1      21.035   2.069  48.173  1.00  0.00     0.132 C 
HETATM   24  N4  UNL     1      21.545   1.298  49.269  1.00  0.00    -0.255 NA
HETATM   25  C21 UNL     1      22.502   1.805  50.014  1.00  0.00     0.209 C 
HETATM   26  N5  UNL     1      23.012   3.137  49.712  1.00  0.00    -0.338 N 
HETATM   27  C22 UNL     1      24.117   3.557  50.593  1.00  0.00     0.164 C 
HETATM   28  H7  UNL     1      25.972   6.937  49.470  1.00  0.00     0.295 HD
ENDROOT
BRANCH  20  29
HETATM   29  N3  UNL     1      22.551   5.149  46.559  1.00  0.00     0.093 N 
HETATM   30  H18 UNL     1      21.933   5.108  45.688  1.00  0.00     0.314 HD
HETATM   31  H19 UNL     1      23.325   4.481  46.383  1.00  0.00     0.314 HD
ENDBRANCH  20  29
TORSDOF 1
ENDMDL
MODEL 8
REMARK VINA RESULT:      -7.8      2.645      5.700
REMARK  1 active torsions:
REMARK  status: ('A' for Active; 'I' for Inactive)
REMARK    1  A    between atoms: C17_20  and  N3_21 
ROOT
HETATM    1  C1  UNL     1      19.980   3.004  52.420  1.00  0.00     0.071 C 
HETATM    2  C2  UNL     1      20.037   2.159  51.261  1.00  0.00     0.207 C 
HETATM    3  C3  UNL     1      19.796   0.739  51.131  1.00  0.00     0.071 C 
HETATM    4  N1  UNL     1      19.233   2.754  50.137  1.00  0.00     0.035 N 
HETATM    5  C4  UNL     1      18.455   3.326  49.051  1.00  0.00     0.343 C 
HETATM    6  O1  UNL     1      18.059   2.234  48.627  1.00  0.00    -0.261 OA
HETATM    7  C5  UNL     1      18.267   4.755  48.611  1.00  0.00     0.082 C 
HETATM    8  C6  UNL     1      18.879   5.884  48.930  1.00  0.00     0.006 C 
HETATM    9  C7  UNL     1      19.941   6.498  49.701  1.00  0.00     0.005 C 
HETATM   10  C8  UNL     1      20.868   5.712  50.362  1.00  0.00    -0.053 C 
HETATM   11  C9  UNL     1      21.221   4.293  50.520  1.00  0.00     0.167 C 
HETATM   12  C10 UNL     1      20.719   3.265  49.769  1.00  0.00     0.242 C 
HETATM   13  N2  UNL     1      21.497   2.528  50.605  1.00  0.00    -0.324 N 
HETATM   14  C11 UNL     1      22.231   1.770  51.479  1.00  0.00     0.042 A 
HETATM   15  C12 UNL     1      22.125   0.963  52.520  1.00  0.00     0.030 A 
HETATM   16  C13 UNL     1      23.217   0.426  53.126  1.00  0.00     0.002 A 
HETATM   17  C14 UNL     1      24.465   0.734  52.644  1.00  0.00     0.001 A 
HETATM   18  C15 UNL     1      24.510   1.582  51.559  1.00  0.00     0.012 A 
HETATM   19  C16 UNL     1      23.438   2.184  50.867  1.00  0.00     0.007 A 
HETATM   20  C17 UNL     1      23.847   3.091  49.732  1.00  0.00     0.303 C 
HETATM   21  C18 UNL     1      23.742   4.524  50.008  1.00  0.00     0.063 C 
HETATM   22  C19 UNL     1      24.595   4.971  49.055  1.00  0.00     0.020 C 
HETATM   23  C20 UNL     1      25.769   5.259  49.607  1.00  0.00     0.132 C 
HETATM   24  N4  UNL     1      25.532   6.527  50.234  1.00  0.00    -0.255 NA
HETATM   25  C21 UNL     1      24.345   6.774  50.742  1.00  0.00     0.209 C 
HETATM   26  N5  UNL     1      23.307   5.753  50.663  1.00  0.00    -0.338 N 
HETATM   27  C22 UNL     1      22.014   6.185  51.223  1.00  0.00     0.164 C 
HETATM   28  H7  UNL     1      18.954   3.681  50.518  1.00  0.00     0.295 HD
ENDROOT
BRANCH  20  29
HETATM   29  N3  UNL     1      23.224   2.680  48.483  1.00  0.00     0.093 N 
HETATM   30  H18 UNL     1      22.462   1.952  48.659  1.00  0.00     0.314 HD
HETATM   31  H19 UNL     1      23.886   2.236  47.819  1.00  0.00     0.314 HD
ENDBRANCH  20  29
TORSDOF 1
ENDMDL
MODEL 9
REMARK VINA RESULT:      -7.8      7.206     10.849
REMARK  1 active torsions:
REMARK  status: ('A' for Active; 'I' for Inactive)
REMARK    1  A    between atoms: C17_20  and  N3_21 
ROOT
HETATM    1  C1  UNL     1      27.066   8.582  45.931  1.00  0.00     0.071 C 
HETATM    2  C2  UNL     1      26.787   9.354  47.109  1.00  0.00     0.207 C 
HETATM    3  C3  UNL     1      26.125  10.631  47.250  1.00  0.00     0.071 C 
HETATM    4  N1  UNL     1      26.120   8.498  48.151  1.00  0.00     0.035 N 
HETATM    5  C4  UNL     1      25.474   7.674  49.159  1.00  0.00     0.343 C 
HETATM    6  O1  UNL     1      24.742   8.580  49.573  1.00  0.00    -0.261 OA
HETATM    7  C5  UNL     1      25.691   6.235  49.552  1.00  0.00     0.082 C 
HETATM    8  C6  UNL     1      26.632   5.352  49.258  1.00  0.00     0.006 C 
HETATM    9  C7  UNL     1      27.880   5.115  48.562  1.00  0.00     0.005 C 
HETATM   10  C8  UNL     1      28.575   6.168  47.994  1.00  0.00    -0.053 C 
HETATM   11  C9  UNL     1      28.499   7.635  47.896  1.00  0.00     0.167 C 
HETATM   12  C10 UNL     1      27.662   8.433  48.627  1.00  0.00     0.242 C 
HETATM   13  N2  UNL     1      28.241   9.404  47.871  1.00  0.00    -0.324 N 
HETATM   14  C11 UNL     1      28.775  10.383  47.077  1.00  0.00     0.042 A 
HETATM   15  C12 UNL     1      28.506  11.168  46.048  1.00  0.00     0.030 A 
HETATM   16  C13 UNL     1      29.428  12.031  45.543  1.00  0.00     0.002 A 
HETATM   17  C14 UNL     1      30.674  12.084  46.117  1.00  0.00     0.001 A 
HETATM   18  C15 UNL     1      30.894  11.240  47.184  1.00  0.00     0.012 A 
HETATM   19  C16 UNL     1      30.004  10.317  47.774  1.00  0.00     0.007 A 
HETATM   20  C17 UNL     1      30.585   9.523  48.918  1.00  0.00     0.303 C 
HETATM   21  C18 UNL     1      30.931   8.136  48.604  1.00  0.00     0.063 C 
HETATM   22  C19 UNL     1      31.810   7.919  49.612  1.00  0.00     0.020 C 
HETATM   23  C20 UNL     1      33.052   8.016  49.150  1.00  0.00     0.132 C 
HETATM   24  N4  UNL     1      33.248   6.765  48.479  1.00  0.00    -0.255 NA
HETATM   25  C21 UNL     1      32.228   6.201  47.871  1.00  0.00     0.209 C 
HETATM   26  N5  UNL     1      30.930   6.864  47.889  1.00  0.00    -0.338 N 
HETATM   27  C22 UNL     1      29.867   6.094  47.218  1.00  0.00     0.164 C 
HETATM   28  H7  UNL     1      26.158   7.548  47.729  1.00  0.00     0.295 HD
ENDROOT
BRANCH  20  29
HETATM   29  N3  UNL     1      29.782   9.674  50.122  1.00  0.00     0.093 N 
HETATM   30  H18 UNL     1      28.821   9.224  49.998  1.00  0.00     0.314 HD
HETATM   31  H19 UNL     1      29.595  10.664  50.372  1.00  0.00     0.314 HD
ENDBRANCH  20  29
TORSDOF 1
ENDMDL
