MODEL 1
REMARK VINA RESULT:      -9.6      0.000      0.000
REMARK  3 active torsions:
REMARK  status: ('A' for Active; 'I' for Inactive)
REMARK    1  A    between atoms: N1_4  and  C4_5 
REMARK    2  A    between atoms: C7_8  and  C8_9 
REMARK    3  A    between atoms: C8_9  and  C9_10 
ROOT
HETATM    1  C1  UNL     1      20.665   3.074  47.554  1.00  0.00     0.064 C 
HETATM    2  C2  UNL     1      21.825   3.469  48.398  1.00  0.00     0.014 C 
HETATM    3  C3  UNL     1      22.084   2.845  49.561  1.00  0.00     0.138 C 
HETATM    4  N1  UNL     1      23.172   3.190  50.388  1.00  0.00    -0.243 N 
HETATM    5  N3  UNL     1      23.611   4.502  50.301  1.00  0.00    -0.161 NA
HETATM    6  C16 UNL     1      23.823   5.278  51.313  1.00  0.00     0.254 C 
HETATM    7  N4  UNL     1      24.229   6.398  50.574  1.00  0.00    -0.254 NA
HETATM    8  C17 UNL     1      23.478   7.328  50.100  1.00  0.00     0.128 C 
HETATM    9  C18 UNL     1      23.998   8.471  49.331  1.00  0.00     0.287 C 
HETATM   10  C19 UNL     1      25.348   8.843  49.927  1.00  0.00     0.209 C 
HETATM   11  O1  UNL     1      26.393   8.662  49.023  1.00  0.00    -0.387 OA
HETATM   12  C20 UNL     1      26.290   9.549  47.952  1.00  0.00     0.198 C 
HETATM   13  C21 UNL     1      24.903   9.381  47.388  1.00  0.00     0.299 C 
HETATM   14  N5  UNL     1      24.224   8.214  47.940  1.00  0.00     0.102 N 
HETATM   15  C22 UNL     1      23.020   8.055  47.152  1.00  0.00     0.273 C 
HETATM   16  C23 UNL     1      22.764   6.601  46.807  1.00  0.00     0.032 C 
HETATM   17  O2  UNL     1      22.613   5.828  47.954  1.00  0.00     0.000 OA
HETATM   18  N6  UNL     1      22.487   4.529  47.729  1.00  0.00    -0.225 NA
HETATM   19  H26 UNL     1      22.112   5.166  48.500  1.00  0.00     0.147 HD
ENDROOT
BRANCH   4  20
HETATM   20  C4  UNL     1      23.749   2.219  51.246  1.00  0.00     0.059 A 
HETATM   21  C5  UNL     1      25.093   1.912  51.261  1.00  0.00     0.032 A 
HETATM   22  C6  UNL     1      25.686   0.979  52.080  1.00  0.00     0.011 A 
HETATM   23  C7  UNL     1      24.886   0.289  52.962  1.00  0.00    -0.031 A 
HETATM   24  C14 UNL     1      23.540   0.559  52.985  1.00  0.00     0.043 A 
HETATM   25 CL1  UNL     1      22.560  -0.343  54.119  1.00  0.00    -0.084 Cl
HETATM   26  C15 UNL     1      23.000   1.497  52.148  1.00  0.00     0.056 A 
BRANCH  23  27
HETATM   27  C8  UNL     1      25.520  -0.721  53.853  1.00  0.00     0.099 C 
BRANCH  27  28
HETATM   28  C9  UNL     1      27.009  -0.603  53.835  1.00  0.00     0.041 A 
HETATM   29  C10 UNL     1      27.597   0.529  54.397  1.00  0.00     0.069 A 
HETATM   30  C11 UNL     1      28.972   0.652  54.388  1.00  0.00     0.119 A 
HETATM   31  F1  UNL     1      29.621   1.740  54.924  1.00  0.00    -0.206 F 
HETATM   32  C12 UNL     1      29.799  -0.297  53.846  1.00  0.00     0.061 A 
HETATM   33  C13 UNL     1      29.168  -1.415  53.294  1.00  0.00     0.120 A 
HETATM   34  N2  UNL     1      27.823  -1.523  53.310  1.00  0.00    -0.265 NA
ENDBRANCH  27  28
ENDBRANCH  23  27
ENDBRANCH   4  20
TORSDOF 3
ENDMDL
MODEL 2
REMARK VINA RESULT:      -9.5      4.343      8.076
REMARK  3 active torsions:
REMARK  status: ('A' for Active; 'I' for Inactive)
REMARK    1  A    between atoms: N1_4  and  C4_5 
REMARK    2  A    between atoms: C7_8  and  C8_9 
REMARK    3  A    between atoms: C8_9  and  C9_10 
ROOT
HETATM    1  C1  UNL     1      26.037   0.513  53.474  1.00  0.00     0.064 C 
HETATM    2  C2  UNL     1      25.248   1.334  52.516  1.00  0.00     0.014 C 
HETATM    3  C3  UNL     1      25.700   2.525  52.084  1.00  0.00     0.138 C 
HETATM    4  N1  UNL     1      24.983   3.331  51.176  1.00  0.00    -0.243 N 
HETATM    5  N3  UNL     1      23.606   3.180  51.185  1.00  0.00    -0.161 NA
HETATM    6  C16 UNL     1      22.757   4.153  51.249  1.00  0.00     0.254 C 
HETATM    7  N4  UNL     1      21.601   3.360  51.219  1.00  0.00    -0.254 NA
HETATM    8  C17 UNL     1      20.988   2.844  52.225  1.00  0.00     0.128 C 
HETATM    9  C18 UNL     1      19.775   2.019  52.093  1.00  0.00     0.287 C 
HETATM   10  C19 UNL     1      18.958   2.593  50.945  1.00  0.00     0.209 C 
HETATM   11  O1  UNL     1      18.832   1.695  49.886  1.00  0.00    -0.387 OA
HETATM   12  C20 UNL     1      18.077   0.584  50.257  1.00  0.00     0.198 C 
HETATM   13  C21 UNL     1      18.711   0.033  51.507  1.00  0.00     0.299 C 
HETATM   14  N5  UNL     1      20.009   0.642  51.778  1.00  0.00     0.102 N 
HETATM   15  C22 UNL     1      20.586  -0.134  52.855  1.00  0.00     0.273 C 
HETATM   16  C23 UNL     1      22.058  -0.408  52.622  1.00  0.00     0.032 C 
HETATM   17  O2  UNL     1      22.785   0.775  52.529  1.00  0.00     0.000 OA
HETATM   18  N6  UNL     1      24.064   0.613  52.224  1.00  0.00    -0.225 NA
HETATM   19  H26 UNL     1      23.548   1.353  52.795  1.00  0.00     0.147 HD
ENDROOT
BRANCH   4  20
HETATM   20  C4  UNL     1      25.674   4.233  50.327  1.00  0.00     0.059 A 
HETATM   21  C5  UNL     1      26.722   3.866  49.509  1.00  0.00     0.032 A 
HETATM   22  C6  UNL     1      27.411   4.711  48.673  1.00  0.00     0.011 A 
HETATM   23  C7  UNL     1      27.038   6.036  48.639  1.00  0.00    -0.031 A 
HETATM   24  C14 UNL     1      26.000   6.452  49.436  1.00  0.00     0.043 A 
HETATM   25 CL1  UNL     1      25.560   8.143  49.362  1.00  0.00    -0.084 Cl
HETATM   26  C15 UNL     1      25.347   5.569  50.251  1.00  0.00     0.056 A 
BRANCH  23  27
HETATM   27  C8  UNL     1      27.779   6.959  47.734  1.00  0.00     0.099 C 
BRANCH  27  28
HETATM   28  C9  UNL     1      29.110   7.327  48.305  1.00  0.00     0.041 A 
HETATM   29  C10 UNL     1      29.279   8.605  48.835  1.00  0.00     0.069 A 
HETATM   30  C11 UNL     1      30.503   8.959  49.365  1.00  0.00     0.119 A 
HETATM   31  F1  UNL     1      30.744  10.202  49.905  1.00  0.00    -0.206 F 
HETATM   32  C12 UNL     1      31.575   8.105  49.397  1.00  0.00     0.061 A 
HETATM   33  C13 UNL     1      31.360   6.835  48.856  1.00  0.00     0.120 A 
HETATM   34  N2  UNL     1      30.159   6.501  48.340  1.00  0.00    -0.265 NA
ENDBRANCH  27  28
ENDBRANCH  23  27
ENDBRANCH   4  20
TORSDOF 3
ENDMDL
MODEL 3
REMARK VINA RESULT:      -9.5      3.683      6.507
REMARK  3 active torsions:
REMARK  status: ('A' for Active; 'I' for Inactive)
REMARK    1  A    between atoms: N1_4  and  C4_5 
REMARK    2  A    between atoms: C7_8  and  C8_9 
REMARK    3  A    between atoms: C8_9  and  C9_10 
ROOT
HETATM    1  C1  UNL     1      30.721   9.968  49.446  1.00  0.00     0.064 C 
HETATM    2  C2  UNL     1      29.255   9.794  49.264  1.00  0.00     0.014 C 
HETATM    3  C3  UNL     1      28.724   8.587  48.999  1.00  0.00     0.138 C 
HETATM    4  N1  UNL     1      27.341   8.382  48.820  1.00  0.00    -0.243 N 
HETATM    5  N3  UNL     1      26.621   9.469  48.351  1.00  0.00    -0.161 NA
HETATM    6  C16 UNL     1      25.789   9.432  47.361  1.00  0.00     0.254 C 
HETATM    7  N4  UNL     1      25.426  10.785  47.406  1.00  0.00    -0.254 NA
HETATM    8  C17 UNL     1      26.002  11.763  46.801  1.00  0.00     0.128 C 
HETATM    9  C18 UNL     1      25.547  13.159  46.910  1.00  0.00     0.287 C 
HETATM   10  C19 UNL     1      24.028  13.136  46.997  1.00  0.00     0.209 C 
HETATM   11  O1  UNL     1      23.561  13.628  48.214  1.00  0.00    -0.387 OA
HETATM   12  C20 UNL     1      23.842  14.986  48.349  1.00  0.00     0.198 C 
HETATM   13  C21 UNL     1      25.320  15.144  48.105  1.00  0.00     0.299 C 
HETATM   14  N5  UNL     1      26.011  13.860  48.070  1.00  0.00     0.102 N 
HETATM   15  C22 UNL     1      27.423  14.177  48.060  1.00  0.00     0.273 C 
HETATM   16  C23 UNL     1      28.208  13.265  48.982  1.00  0.00     0.032 C 
HETATM   17  O2  UNL     1      28.081  11.932  48.606  1.00  0.00     0.000 OA
HETATM   18  N6  UNL     1      28.659  11.070  49.428  1.00  0.00    -0.225 NA
HETATM   19  H26 UNL     1      28.474  11.049  48.376  1.00  0.00     0.147 HD
ENDROOT
BRANCH   4  20
HETATM   20  C4  UNL     1      26.766   7.118  49.111  1.00  0.00     0.059 A 
HETATM   21  C5  UNL     1      27.299   5.918  48.689  1.00  0.00     0.032 A 
HETATM   22  C6  UNL     1      26.770   4.677  48.954  1.00  0.00     0.011 A 
HETATM   23  C7  UNL     1      25.615   4.610  49.700  1.00  0.00    -0.031 A 
HETATM   24  C14 UNL     1      25.044   5.778  50.143  1.00  0.00     0.043 A 
HETATM   25 CL1  UNL     1      23.577   5.647  51.085  1.00  0.00    -0.084 Cl
HETATM   26  C15 UNL     1      25.611   6.988  49.850  1.00  0.00     0.056 A 
BRANCH  23  27
HETATM   27  C8  UNL     1      25.037   3.270  49.993  1.00  0.00     0.099 C 
BRANCH  27  28
HETATM   28  C9  UNL     1      25.493   2.760  51.321  1.00  0.00     0.041 A 
HETATM   29  C10 UNL     1      26.734   2.132  51.405  1.00  0.00     0.069 A 
HETATM   30  C11 UNL     1      27.169   1.655  52.626  1.00  0.00     0.119 A 
HETATM   31  F1  UNL     1      28.382   1.026  52.784  1.00  0.00    -0.206 F 
HETATM   32  C12 UNL     1      26.431   1.770  53.774  1.00  0.00     0.061 A 
HETATM   33  C13 UNL     1      25.193   2.406  53.644  1.00  0.00     0.120 A 
HETATM   34  N2  UNL     1      24.780   2.868  52.445  1.00  0.00    -0.265 NA
ENDBRANCH  27  28
ENDBRANCH  23  27
ENDBRANCH   4  20
TORSDOF 3
ENDMDL
MODEL 4
REMARK VINA RESULT:      -9.3      4.061      6.216
REMARK  3 active torsions:
REMARK  status: ('A' for Active; 'I' for Inactive)
REMARK    1  A    between atoms: N1_4  and  C4_5 
REMARK    2  A    between atoms: C7_8  and  C8_9 
REMARK    3  A    between atoms: C8_9  and  C9_10 
ROOT
HETATM    1  C1  UNL     1      21.893   2.859  46.993  1.00  0.00     0.064 C 
HETATM    2  C2  UNL     1      21.462   2.456  48.359  1.00  0.00     0.014 C 
HETATM    3  C3  UNL     1      22.273   1.745  49.163  1.00  0.00     0.138 C 
HETATM    4  N1  UNL     1      21.903   1.345  50.463  1.00  0.00    -0.243 N 
HETATM    5  N3  UNL     1      20.544   1.181  50.685  1.00  0.00    -0.161 NA
HETATM    6  C16 UNL     1      20.007   0.144  51.240  1.00  0.00     0.254 C 
HETATM    7  N4  UNL     1      18.680   0.592  51.166  1.00  0.00    -0.254 NA
HETATM    8  C17 UNL     1      17.856   0.419  50.194  1.00  0.00     0.128 C 
HETATM    9  C18 UNL     1      16.475   0.930  50.207  1.00  0.00     0.287 C 
HETATM   10  C19 UNL     1      15.965   0.823  51.636  1.00  0.00     0.209 C 
HETATM   11  O1  UNL     1      15.684   2.070  52.192  1.00  0.00    -0.387 OA
HETATM   12  C20 UNL     1      14.613   2.680  51.541  1.00  0.00     0.198 C 
HETATM   13  C21 UNL     1      14.946   2.680  50.073  1.00  0.00     0.299 C 
HETATM   14  N5  UNL     1      16.334   2.303  49.825  1.00  0.00     0.102 N 
HETATM   15  C22 UNL     1      16.564   2.566  48.420  1.00  0.00     0.273 C 
HETATM   16  C23 UNL     1      17.912   3.220  48.187  1.00  0.00     0.032 C 
HETATM   17  O2  UNL     1      18.952   2.410  48.632  1.00  0.00     0.000 OA
HETATM   18  N6  UNL     1      20.152   2.962  48.552  1.00  0.00    -0.225 NA
HETATM   19  H26 UNL     1      19.820   1.949  48.490  1.00  0.00     0.147 HD
ENDROOT
BRANCH   4  20
HETATM   20  C4  UNL     1      22.897   1.130  51.452  1.00  0.00     0.059 A 
HETATM   21  C5  UNL     1      24.136   1.736  51.437  1.00  0.00     0.032 A 
HETATM   22  C6  UNL     1      25.121   1.553  52.378  1.00  0.00     0.011 A 
HETATM   23  C7  UNL     1      24.865   0.699  53.427  1.00  0.00    -0.031 A 
HETATM   24  C14 UNL     1      23.646   0.071  53.487  1.00  0.00     0.043 A 
HETATM   25 CL1  UNL     1      23.364  -1.008  54.834  1.00  0.00    -0.084 Cl
HETATM   26  C15 UNL     1      22.699   0.287  52.523  1.00  0.00     0.056 A 
BRANCH  23  27
HETATM   27  C8  UNL     1      25.926   0.496  54.452  1.00  0.00     0.099 C 
BRANCH  27  28
HETATM   28  C9  UNL     1      27.007  -0.403  53.946  1.00  0.00     0.041 A 
HETATM   29  C10 UNL     1      28.333  -0.001  54.090  1.00  0.00     0.069 A 
HETATM   30  C11 UNL     1      29.343  -0.821  53.627  1.00  0.00     0.119 A 
HETATM   31  F1  UNL     1      30.673  -0.490  53.735  1.00  0.00    -0.206 F 
HETATM   32  C12 UNL     1      29.101  -2.028  53.025  1.00  0.00     0.061 A 
HETATM   33  C13 UNL     1      27.757  -2.392  52.901  1.00  0.00     0.120 A 
HETATM   34  N2  UNL     1      26.781  -1.581  53.358  1.00  0.00    -0.265 NA
ENDBRANCH  27  28
ENDBRANCH  23  27
ENDBRANCH   4  20
TORSDOF 3
ENDMDL
MODEL 5
REMARK VINA RESULT:      -9.3      2.472      3.827
REMARK  3 active torsions:
REMARK  status: ('A' for Active; 'I' for Inactive)
REMARK    1  A    between atoms: N1_4  and  C4_5 
REMARK    2  A    between atoms: C7_8  and  C8_9 
REMARK    3  A    between atoms: C8_9  and  C9_10 
ROOT
HETATM    1  C1  UNL     1      22.571   7.477  46.378  1.00  0.00     0.064 C 
HETATM    2  C2  UNL     1      23.821   7.263  47.156  1.00  0.00     0.014 C 
HETATM    3  C3  UNL     1      23.847   6.438  48.219  1.00  0.00     0.138 C 
HETATM    4  N1  UNL     1      25.011   6.209  48.981  1.00  0.00    -0.243 N 
HETATM    5  N3  UNL     1      25.940   7.238  48.997  1.00  0.00    -0.161 NA
HETATM    6  C16 UNL     1      26.483   7.725  50.065  1.00  0.00     0.254 C 
HETATM    7  N4  UNL     1      27.281   8.680  49.418  1.00  0.00    -0.254 NA
HETATM    8  C17 UNL     1      26.953   9.886  49.114  1.00  0.00     0.128 C 
HETATM    9  C18 UNL     1      27.863  10.820  48.430  1.00  0.00     0.287 C 
HETATM   10  C19 UNL     1      29.268  10.543  48.944  1.00  0.00     0.209 C 
HETATM   11  O1  UNL     1      30.118  10.085  47.938  1.00  0.00    -0.387 OA
HETATM   12  C20 UNL     1      30.343  11.073  46.982  1.00  0.00     0.198 C 
HETATM   13  C21 UNL     1      28.989  11.546  46.526  1.00  0.00     0.299 C 
HETATM   14  N5  UNL     1      27.915  10.682  47.005  1.00  0.00     0.102 N 
HETATM   15  C22 UNL     1      26.723  11.120  46.312  1.00  0.00     0.273 C 
HETATM   16  C23 UNL     1      25.889   9.947  45.837  1.00  0.00     0.032 C 
HETATM   17  O2  UNL     1      25.479   9.151  46.902  1.00  0.00     0.000 OA
HETATM   18  N6  UNL     1      24.831   8.052  46.550  1.00  0.00    -0.225 NA
HETATM   19  H26 UNL     1      24.773   8.676  47.415  1.00  0.00     0.147 HD
ENDROOT
BRANCH   4  20
HETATM   20  C4  UNL     1      25.176   4.985  49.676  1.00  0.00     0.059 A 
HETATM   21  C5  UNL     1      26.177   4.076  49.401  1.00  0.00     0.032 A 
HETATM   22  C6  UNL     1      26.368   2.882  50.056  1.00  0.00     0.011 A 
HETATM   23  C7  UNL     1      25.498   2.553  51.070  1.00  0.00    -0.031 A 
HETATM   24  C14 UNL     1      24.484   3.424  51.382  1.00  0.00     0.043 A 
HETATM   25 CL1  UNL     1      23.401   2.965  52.676  1.00  0.00    -0.084 Cl
HETATM   26  C15 UNL     1      24.338   4.600  50.699  1.00  0.00     0.056 A 
BRANCH  23  27
HETATM   27  C8  UNL     1      25.699   1.262  51.786  1.00  0.00     0.099 C 
BRANCH  27  28
HETATM   28  C9  UNL     1      26.969   1.270  52.574  1.00  0.00     0.041 A 
HETATM   29  C10 UNL     1      27.589   0.053  52.853  1.00  0.00     0.069 A 
HETATM   30  C11 UNL     1      28.763   0.044  53.580  1.00  0.00     0.119 A 
HETATM   31  F1  UNL     1      29.430  -1.117  53.894  1.00  0.00    -0.206 F 
HETATM   32  C12 UNL     1      29.355   1.188  54.049  1.00  0.00     0.061 A 
HETATM   33  C13 UNL     1      28.699   2.384  53.745  1.00  0.00     0.120 A 
HETATM   34  N2  UNL     1      27.553   2.379  53.034  1.00  0.00    -0.265 NA
ENDBRANCH  27  28
ENDBRANCH  23  27
ENDBRANCH   4  20
TORSDOF 3
ENDMDL
MODEL 6
REMARK VINA RESULT:      -9.1      4.134      8.781
REMARK  3 active torsions:
REMARK  status: ('A' for Active; 'I' for Inactive)
REMARK    1  A    between atoms: N1_4  and  C4_5 
REMARK    2  A    between atoms: C7_8  and  C8_9 
REMARK    3  A    between atoms: C8_9  and  C9_10 
ROOT
HETATM    1  C1  UNL     1      21.032   3.771  50.550  1.00  0.00     0.064 C 
HETATM    2  C2  UNL     1      22.490   4.012  50.727  1.00  0.00     0.014 C 
HETATM    3  C3  UNL     1      23.166   4.827  49.898  1.00  0.00     0.138 C 
HETATM    4  N1  UNL     1      24.546   5.081  50.033  1.00  0.00    -0.243 N 
HETATM    5  N3  UNL     1      25.294   4.078  50.629  1.00  0.00    -0.161 NA
HETATM    6  C16 UNL     1      26.396   3.597  50.153  1.00  0.00     0.254 C 
HETATM    7  N4  UNL     1      26.623   2.670  51.180  1.00  0.00    -0.254 NA
HETATM    8  C17 UNL     1      26.196   1.458  51.239  1.00  0.00     0.128 C 
HETATM    9  C18 UNL     1      26.487   0.555  52.366  1.00  0.00     0.287 C 
HETATM   10  C19 UNL     1      27.898   0.865  52.844  1.00  0.00     0.209 C 
HETATM   11  O1  UNL     1      27.917   1.356  54.149  1.00  0.00    -0.387 OA
HETATM   12  C20 UNL     1      27.506   0.382  55.057  1.00  0.00     0.198 C 
HETATM   13  C21 UNL     1      26.174  -0.124  54.570  1.00  0.00     0.299 C 
HETATM   14  N5  UNL     1      25.628   0.707  53.502  1.00  0.00     0.102 N 
HETATM   15  C22 UNL     1      24.273   0.242  53.300  1.00  0.00     0.273 C 
HETATM   16  C23 UNL     1      23.307   1.396  53.117  1.00  0.00     0.032 C 
HETATM   17  O2  UNL     1      23.647   2.171  52.013  1.00  0.00     0.000 OA
HETATM   18  N6  UNL     1      22.905   3.256  51.852  1.00  0.00    -0.225 NA
HETATM   19  H26 UNL     1      23.414   2.623  51.159  1.00  0.00     0.147 HD
ENDROOT
BRANCH   4  20
HETATM   20  C4  UNL     1      25.093   6.304  49.568  1.00  0.00     0.059 A 
HETATM   21  C5  UNL     1      25.683   7.242  50.390  1.00  0.00     0.032 A 
HETATM   22  C6  UNL     1      26.224   8.435  49.973  1.00  0.00     0.011 A 
HETATM   23  C7  UNL     1      26.183   8.732  48.629  1.00  0.00    -0.031 A 
HETATM   24  C14 UNL     1      25.606   7.830  47.770  1.00  0.00     0.043 A 
HETATM   25 CL1  UNL     1      25.574   8.248  46.072  1.00  0.00    -0.084 Cl
HETATM   26  C15 UNL     1      25.080   6.656  48.237  1.00  0.00     0.056 A 
BRANCH  23  27
HETATM   27  C8  UNL     1      26.769  10.021  48.170  1.00  0.00     0.099 C 
BRANCH  27  28
HETATM   28  C9  UNL     1      28.261   9.995  48.240  1.00  0.00     0.041 A 
HETATM   29  C10 UNL     1      28.919  11.046  48.877  1.00  0.00     0.069 A 
HETATM   30  C11 UNL     1      30.297  11.036  48.950  1.00  0.00     0.119 A 
HETATM   31  F1  UNL     1      31.013  12.038  49.563  1.00  0.00    -0.206 F 
HETATM   32  C12 UNL     1      31.062  10.031  48.419  1.00  0.00     0.061 A 
HETATM   33  C13 UNL     1      30.362   8.998  47.789  1.00  0.00     0.120 A 
HETATM   34  N2  UNL     1      29.014   9.020  47.725  1.00  0.00    -0.265 NA
ENDBRANCH  27  28
ENDBRANCH  23  27
ENDBRANCH   4  20
TORSDOF 3
ENDMDL
MODEL 7
REMARK VINA RESULT:      -9.0      5.085      7.140
REMARK  3 active torsions:
REMARK  status: ('A' for Active; 'I' for Inactive)
REMARK    1  A    between atoms: N1_4  and  C4_5 
REMARK    2  A    between atoms: C7_8  and  C8_9 
REMARK    3  A    between atoms: C8_9  and  C9_10 
ROOT
HETATM    1  C1  UNL     1      18.364  -1.988  53.692  1.00  0.00     0.064 C 
HETATM    2  C2  UNL     1      18.746  -0.798  52.886  1.00  0.00     0.014 C 
HETATM    3  C3  UNL     1      19.918  -0.169  53.087  1.00  0.00     0.138 C 
HETATM    4  N1  UNL     1      20.317   0.962  52.345  1.00  0.00    -0.243 N 
HETATM    5  N3  UNL     1      19.294   1.748  51.837  1.00  0.00    -0.161 NA
HETATM    6  C16 UNL     1      19.222   3.033  51.958  1.00  0.00     0.254 C 
HETATM    7  N4  UNL     1      18.015   3.192  51.260  1.00  0.00    -0.254 NA
HETATM    8  C17 UNL     1      16.826   3.144  51.747  1.00  0.00     0.128 C 
HETATM    9  C18 UNL     1      15.613   3.322  50.931  1.00  0.00     0.287 C 
HETATM   10  C19 UNL     1      15.933   4.357  49.862  1.00  0.00     0.209 C 
HETATM   11  O1  UNL     1      15.869   3.824  48.576  1.00  0.00    -0.387 OA
HETATM   12  C20 UNL     1      14.565   3.457  48.249  1.00  0.00     0.198 C 
HETATM   13  C21 UNL     1      14.084   2.553  49.354  1.00  0.00     0.299 C 
HETATM   14  N5  UNL     1      15.168   2.149  50.243  1.00  0.00     0.102 N 
HETATM   15  C22 UNL     1      14.608   1.123  51.097  1.00  0.00     0.273 C 
HETATM   16  C23 UNL     1      15.571  -0.033  51.288  1.00  0.00     0.032 C 
HETATM   17  O2  UNL     1      16.760   0.390  51.873  1.00  0.00     0.000 OA
HETATM   18  N6  UNL     1      17.687  -0.550  51.978  1.00  0.00    -0.225 NA
HETATM   19  H26 UNL     1      17.467   0.312  52.568  1.00  0.00     0.147 HD
ENDROOT
BRANCH   4  20
HETATM   20  C4  UNL     1      21.695   1.241  52.159  1.00  0.00     0.059 A 
HETATM   21  C5  UNL     1      22.668   0.950  53.092  1.00  0.00     0.032 A 
HETATM   22  C6  UNL     1      24.011   1.205  52.944  1.00  0.00     0.011 A 
HETATM   23  C7  UNL     1      24.434   1.797  51.776  1.00  0.00    -0.031 A 
HETATM   24  C14 UNL     1      23.503   2.107  50.816  1.00  0.00     0.043 A 
HETATM   25 CL1  UNL     1      24.084   2.860  49.349  1.00  0.00    -0.084 Cl
HETATM   26  C15 UNL     1      22.177   1.833  51.013  1.00  0.00     0.056 A 
BRANCH  23  27
HETATM   27  C8  UNL     1      25.888   2.074  51.608  1.00  0.00     0.099 C 
BRANCH  27  28
HETATM   28  C9  UNL     1      26.720   1.080  52.349  1.00  0.00     0.041 A 
HETATM   29  C10 UNL     1      26.590  -0.271  52.031  1.00  0.00     0.069 A 
HETATM   30  C11 UNL     1      27.353  -1.202  52.707  1.00  0.00     0.119 A 
HETATM   31  F1  UNL     1      27.277  -2.550  52.447  1.00  0.00    -0.206 F 
HETATM   32  C12 UNL     1      28.244  -0.859  53.691  1.00  0.00     0.061 A 
HETATM   33  C13 UNL     1      28.342   0.506  53.977  1.00  0.00     0.120 A 
HETATM   34  N2  UNL     1      27.591   1.405  53.308  1.00  0.00    -0.265 NA
ENDBRANCH  27  28
ENDBRANCH  23  27
ENDBRANCH   4  20
TORSDOF 3
ENDMDL
MODEL 8
REMARK VINA RESULT:      -9.0      3.859      6.093
REMARK  3 active torsions:
REMARK  status: ('A' for Active; 'I' for Inactive)
REMARK    1  A    between atoms: N1_4  and  C4_5 
REMARK    2  A    between atoms: C7_8  and  C8_9 
REMARK    3  A    between atoms: C8_9  and  C9_10 
ROOT
HETATM    1  C1  UNL     1      31.689   6.127  47.979  1.00  0.00     0.064 C 
HETATM    2  C2  UNL     1      30.317   6.638  48.242  1.00  0.00     0.014 C 
HETATM    3  C3  UNL     1      29.256   5.811  48.253  1.00  0.00     0.138 C 
HETATM    4  N1  UNL     1      27.941   6.257  48.499  1.00  0.00    -0.243 N 
HETATM    5  N3  UNL     1      27.671   7.573  48.158  1.00  0.00    -0.161 NA
HETATM    6  C16 UNL     1      26.657   7.961  47.457  1.00  0.00     0.254 C 
HETATM    7  N4  UNL     1      26.960   9.330  47.479  1.00  0.00    -0.254 NA
HETATM    8  C17 UNL     1      27.700   9.974  46.647  1.00  0.00     0.128 C 
HETATM    9  C18 UNL     1      27.963  11.419  46.754  1.00  0.00     0.287 C 
HETATM   10  C19 UNL     1      26.693  12.075  47.275  1.00  0.00     0.209 C 
HETATM   11  O1  UNL     1      26.876  12.664  48.525  1.00  0.00    -0.387 OA
HETATM   12  C20 UNL     1      27.755  13.743  48.447  1.00  0.00     0.198 C 
HETATM   13  C21 UNL     1      29.002  13.234  47.776  1.00  0.00     0.299 C 
HETATM   14  N5  UNL     1      29.010  11.779  47.662  1.00  0.00     0.102 N 
HETATM   15  C22 UNL     1      30.342  11.430  47.217  1.00  0.00     0.273 C 
HETATM   16  C23 UNL     1      30.879  10.219  47.955  1.00  0.00     0.032 C 
HETATM   17  O2  UNL     1      30.070   9.105  47.755  1.00  0.00     0.000 OA
HETATM   18  N6  UNL     1      30.424   8.036  48.453  1.00  0.00    -0.225 NA
HETATM   19  H26 UNL     1      29.945   8.151  47.505  1.00  0.00     0.147 HD
ENDROOT
BRANCH   4  20
HETATM   20  C4  UNL     1      26.983   5.373  49.058  1.00  0.00     0.059 A 
HETATM   21  C5  UNL     1      27.079   3.999  48.993  1.00  0.00     0.032 A 
HETATM   22  C6  UNL     1      26.172   3.113  49.524  1.00  0.00     0.011 A 
HETATM   23  C7  UNL     1      25.073   3.624  50.177  1.00  0.00    -0.031 A 
HETATM   24  C14 UNL     1      24.931   4.986  50.268  1.00  0.00     0.043 A 
HETATM   25 CL1  UNL     1      23.520   5.592  51.104  1.00  0.00    -0.084 Cl
HETATM   26  C15 UNL     1      25.864   5.825  49.721  1.00  0.00     0.056 A 
BRANCH  23  27
HETATM   27  C8  UNL     1      24.086   2.671  50.758  1.00  0.00     0.099 C 
BRANCH  27  28
HETATM   28  C9  UNL     1      24.651   1.960  51.945  1.00  0.00     0.041 A 
HETATM   29  C10 UNL     1      24.030   0.791  52.380  1.00  0.00     0.069 A 
HETATM   30  C11 UNL     1      24.540   0.122  53.475  1.00  0.00     0.119 A 
HETATM   31  F1  UNL     1      23.980  -1.036  53.962  1.00  0.00    -0.206 F 
HETATM   32  C12 UNL     1      25.641   0.558  54.165  1.00  0.00     0.061 A 
HETATM   33  C13 UNL     1      26.232   1.734  53.694  1.00  0.00     0.120 A 
HETATM   34  N2  UNL     1      25.723   2.377  52.622  1.00  0.00    -0.265 NA
ENDBRANCH  27  28
ENDBRANCH  23  27
ENDBRANCH   4  20
TORSDOF 3
ENDMDL
MODEL 9
REMARK VINA RESULT:      -9.0      2.376      4.052
REMARK  3 active torsions:
REMARK  status: ('A' for Active; 'I' for Inactive)
REMARK    1  A    between atoms: N1_4  and  C4_5 
REMARK    2  A    between atoms: C7_8  and  C8_9 
REMARK    3  A    between atoms: C8_9  and  C9_10 
ROOT
HETATM    1  C1  UNL     1      28.428   8.049  47.888  1.00  0.00     0.064 C 
HETATM    2  C2  UNL     1      27.121   7.544  48.389  1.00  0.00     0.014 C 
HETATM    3  C3  UNL     1      26.922   6.234  48.618  1.00  0.00     0.138 C 
HETATM    4  N1  UNL     1      25.699   5.717  49.093  1.00  0.00    -0.243 N 
HETATM    5  N3  UNL     1      24.566   6.448  48.776  1.00  0.00    -0.161 NA
HETATM    6  C16 UNL     1      23.486   5.952  48.266  1.00  0.00     0.254 C 
HETATM    7  N4  UNL     1      22.772   7.157  48.198  1.00  0.00    -0.254 NA
HETATM    8  C17 UNL     1      22.766   8.000  47.227  1.00  0.00     0.128 C 
HETATM    9  C18 UNL     1      21.982   9.247  47.246  1.00  0.00     0.287 C 
HETATM   10  C19 UNL     1      20.681   8.953  47.978  1.00  0.00     0.209 C 
HETATM   11  O1  UNL     1      20.560   9.687  49.157  1.00  0.00    -0.387 OA
HETATM   12  C20 UNL     1      20.446  11.051  48.890  1.00  0.00     0.198 C 
HETATM   13  C21 UNL     1      21.614  11.414  48.011  1.00  0.00     0.299 C 
HETATM   14  N5  UNL     1      22.599  10.341  47.934  1.00  0.00     0.102 N 
HETATM   15  C22 UNL     1      23.744  10.911  47.258  1.00  0.00     0.273 C 
HETATM   16  C23 UNL     1      25.046  10.492  47.912  1.00  0.00     0.032 C 
HETATM   17  O2  UNL     1      25.201   9.110  47.895  1.00  0.00     0.000 OA
HETATM   18  N6  UNL     1      26.269   8.667  48.540  1.00  0.00    -0.225 NA
HETATM   19  H26 UNL     1      25.732   8.294  47.696  1.00  0.00     0.147 HD
ENDROOT
BRANCH   4  20
HETATM   20  C4  UNL     1      25.679   4.513  49.843  1.00  0.00     0.059 A 
HETATM   21  C5  UNL     1      26.512   3.442  49.595  1.00  0.00     0.032 A 
HETATM   22  C6  UNL     1      26.522   2.263  50.301  1.00  0.00     0.011 A 
HETATM   23  C7  UNL     1      25.633   2.124  51.344  1.00  0.00    -0.031 A 
HETATM   24  C14 UNL     1      24.783   3.163  51.631  1.00  0.00     0.043 A 
HETATM   25 CL1  UNL     1      23.670   2.944  52.962  1.00  0.00    -0.084 Cl
HETATM   26  C15 UNL     1      24.814   4.316  50.895  1.00  0.00     0.056 A 
BRANCH  23  27
HETATM   27  C8  UNL     1      25.639   0.851  52.115  1.00  0.00     0.099 C 
BRANCH  27  28
HETATM   28  C9  UNL     1      26.960   0.618  52.772  1.00  0.00     0.041 A 
HETATM   29  C10 UNL     1      27.504  -0.665  52.744  1.00  0.00     0.069 A 
HETATM   30  C11 UNL     1      28.725  -0.895  53.346  1.00  0.00     0.119 A 
HETATM   31  F1  UNL     1      29.322  -2.134  53.359  1.00  0.00    -0.206 F 
HETATM   32  C12 UNL     1      29.438   0.089  53.980  1.00  0.00     0.061 A 
HETATM   33  C13 UNL     1      28.856   1.360  53.983  1.00  0.00     0.120 A 
HETATM   34  N2  UNL     1      27.663   1.571  53.391  1.00  0.00    -0.265 NA
ENDBRANCH  27  28
ENDBRANCH  23  27
ENDBRANCH   4  20
TORSDOF 3
ENDMDL
