MODEL 1
REMARK VINA RESULT:      -7.9      0.000      0.000
REMARK  5 active torsions:
REMARK  status: ('A' for Active; 'I' for Inactive)
REMARK    1  A    between atoms: O1_2  and  C2_3 
REMARK    2  A    between atoms: C6_9  and  N3_10 
REMARK    3  A    between atoms: N3_10  and  C7_11 
REMARK    4  A    between atoms: C16_20  and  O2_21 
REMARK    5  A    between atoms: O2_21  and  S1_22 
ROOT
HETATM    1  C2  UNL     1      19.834  -0.021  52.468  1.00  0.00     0.105 A 
HETATM    2  C3  UNL     1      20.248  -0.669  53.609  1.00  0.00     0.072 A 
HETATM    3  C4  UNL     1      21.579  -0.709  53.922  1.00  0.00     0.075 A 
HETATM    4  N1  UNL     1      21.896  -1.363  55.056  1.00  0.00    -0.241 NA
HETATM    5  C5  UNL     1      23.181  -1.450  55.437  1.00  0.00     0.236 A 
HETATM    6  N2  UNL     1      24.099  -0.871  54.658  1.00  0.00    -0.224 NA
HETATM    7  C6  UNL     1      23.903  -0.204  53.529  1.00  0.00     0.142 A 
HETATM    8  C14 UNL     1      22.584  -0.133  53.167  1.00  0.00     0.042 A 
HETATM    9  C15 UNL     1      22.113   0.497  52.044  1.00  0.00     0.058 A 
HETATM   10  C16 UNL     1      20.790   0.579  51.663  1.00  0.00     0.118 A 
ENDROOT
BRANCH   7  11
HETATM   11  N3  UNL     1      24.877   0.405  52.711  1.00  0.00    -0.340 N 
HETATM   12  H6  UNL     1      24.656   0.748  51.763  1.00  0.00     0.167 HD
BRANCH  11  13
HETATM   13  C7  UNL     1      26.238   0.644  53.012  1.00  0.00     0.034 A 
HETATM   14  C8  UNL     1      26.735   1.905  53.243  1.00  0.00     0.029 A 
HETATM   15  C9  UNL     1      28.056   2.172  53.540  1.00  0.00     0.003 A 
HETATM   16  C10 UNL     1      28.975   1.148  53.619  1.00  0.00     0.007 A 
HETATM   17  C11 UNL     1      28.522  -0.119  53.395  1.00  0.00    -0.060 A 
HETATM   18  C12 UNL     1      29.457  -1.267  53.465  1.00  0.00     0.048 C 
HETATM   19  C13 UNL     1      27.195  -0.338  53.103  1.00  0.00     0.036 A 
ENDBRANCH  11  13
ENDBRANCH   7  11
BRANCH  10  20
HETATM   20  O2  UNL     1      20.379   1.236  50.510  1.00  0.00    -0.279 OA
BRANCH  20  21
HETATM   21  S1  UNL     1      21.368   1.100  49.082  1.00  0.00    -0.017 SA
HETATM   22  H15 UNL     1      21.524  -0.262  48.760  1.00  0.00     0.134 HD
ENDBRANCH  20  21
ENDBRANCH  10  20
BRANCH   1  23
HETATM   23  O1  UNL     1      18.495   0.041  52.117  1.00  0.00    -0.353 OA
HETATM   24  C1  UNL     1      17.594  -0.845  52.752  1.00  0.00     0.210 C 
ENDBRANCH   1  23
TORSDOF 5
ENDMDL
MODEL 2
REMARK VINA RESULT:      -7.5      3.932      5.279
REMARK  5 active torsions:
REMARK  status: ('A' for Active; 'I' for Inactive)
REMARK    1  A    between atoms: O1_2  and  C2_3 
REMARK    2  A    between atoms: C6_9  and  N3_10 
REMARK    3  A    between atoms: N3_10  and  C7_11 
REMARK    4  A    between atoms: C16_20  and  O2_21 
REMARK    5  A    between atoms: O2_21  and  S1_22 
ROOT
HETATM    1  C2  UNL     1      23.082   0.277  53.077  1.00  0.00     0.105 A 
HETATM    2  C3  UNL     1      24.385   0.363  53.509  1.00  0.00     0.072 A 
HETATM    3  C4  UNL     1      25.288   1.111  52.803  1.00  0.00     0.075 A 
HETATM    4  N1  UNL     1      26.540   1.140  53.298  1.00  0.00    -0.241 NA
HETATM    5  C5  UNL     1      27.488   1.850  52.664  1.00  0.00     0.236 A 
HETATM    6  N2  UNL     1      27.135   2.505  51.556  1.00  0.00    -0.224 NA
HETATM    7  C6  UNL     1      25.941   2.548  50.982  1.00  0.00     0.142 A 
HETATM    8  C14 UNL     1      24.996   1.815  51.650  1.00  0.00     0.042 A 
HETATM    9  C15 UNL     1      23.685   1.692  51.267  1.00  0.00     0.058 A 
HETATM   10  C16 UNL     1      22.721   0.959  51.925  1.00  0.00     0.118 A 
ENDROOT
BRANCH   7  11
HETATM   11  N3  UNL     1      25.575   3.242  49.810  1.00  0.00    -0.340 N 
HETATM   12  H6  UNL     1      24.813   2.913  49.197  1.00  0.00     0.167 HD
BRANCH  11  13
HETATM   13  C7  UNL     1      26.139   4.431  49.293  1.00  0.00     0.034 A 
HETATM   14  C8  UNL     1      25.415   5.589  49.141  1.00  0.00     0.029 A 
HETATM   15  C9  UNL     1      25.935   6.765  48.640  1.00  0.00     0.003 A 
HETATM   16  C10 UNL     1      27.256   6.836  48.252  1.00  0.00     0.007 A 
HETATM   17  C11 UNL     1      28.008   5.706  48.386  1.00  0.00    -0.060 A 
HETATM   18  C12 UNL     1      29.436   5.713  47.988  1.00  0.00     0.048 C 
HETATM   19  C13 UNL     1      27.448   4.556  48.891  1.00  0.00     0.036 A 
ENDBRANCH  11  13
ENDBRANCH   7  11
BRANCH  10  20
HETATM   20  O2  UNL     1      21.406   0.877  51.483  1.00  0.00    -0.279 OA
BRANCH  20  21
HETATM   21  S1  UNL     1      20.306   2.157  51.916  1.00  0.00    -0.017 SA
HETATM   22  H15 UNL     1      19.771   1.889  53.191  1.00  0.00     0.134 HD
ENDBRANCH  20  21
ENDBRANCH  10  20
BRANCH   1  23
HETATM   23  O1  UNL     1      22.140  -0.469  53.765  1.00  0.00    -0.353 OA
HETATM   24  C1  UNL     1      22.564  -1.212  54.891  1.00  0.00     0.210 C 
ENDBRANCH   1  23
TORSDOF 5
ENDMDL
MODEL 3
REMARK VINA RESULT:      -7.4      3.353      7.373
REMARK  5 active torsions:
REMARK  status: ('A' for Active; 'I' for Inactive)
REMARK    1  A    between atoms: O1_2  and  C2_3 
REMARK    2  A    between atoms: C6_9  and  N3_10 
REMARK    3  A    between atoms: N3_10  and  C7_11 
REMARK    4  A    between atoms: C16_20  and  O2_21 
REMARK    5  A    between atoms: O2_21  and  S1_22 
ROOT
HETATM    1  C2  UNL     1      26.307   1.079  54.092  1.00  0.00     0.105 A 
HETATM    2  C3  UNL     1      25.821   2.349  53.884  1.00  0.00     0.072 A 
HETATM    3  C4  UNL     1      24.650   2.525  53.200  1.00  0.00     0.075 A 
HETATM    4  N1  UNL     1      24.248   3.801  53.044  1.00  0.00    -0.241 NA
HETATM    5  C5  UNL     1      23.108   4.063  52.383  1.00  0.00     0.236 A 
HETATM    6  N2  UNL     1      22.416   3.025  51.905  1.00  0.00    -0.224 NA
HETATM    7  C6  UNL     1      22.714   1.737  52.000  1.00  0.00     0.142 A 
HETATM    8  C14 UNL     1      23.881   1.502  52.678  1.00  0.00     0.042 A 
HETATM    9  C15 UNL     1      24.414   0.261  52.914  1.00  0.00     0.058 A 
HETATM   10  C16 UNL     1      25.585   0.005  53.594  1.00  0.00     0.118 A 
ENDROOT
BRANCH   7  11
HETATM   11  N3  UNL     1      21.979   0.645  51.492  1.00  0.00    -0.340 N 
HETATM   12  H6  UNL     1      22.329   0.066  50.713  1.00  0.00     0.167 HD
BRANCH  11  13
HETATM   13  C7  UNL     1      20.718   0.171  51.924  1.00  0.00     0.034 A 
HETATM   14  C8  UNL     1      20.531  -0.426  53.148  1.00  0.00     0.029 A 
HETATM   15  C9  UNL     1      19.316  -0.897  53.599  1.00  0.00     0.003 A 
HETATM   16  C10 UNL     1      18.189  -0.790  52.812  1.00  0.00     0.007 A 
HETATM   17  C11 UNL     1      18.333  -0.204  51.589  1.00  0.00    -0.060 A 
HETATM   18  C12 UNL     1      17.162  -0.057  50.692  1.00  0.00     0.048 C 
HETATM   19  C13 UNL     1      19.565   0.252  51.181  1.00  0.00     0.036 A 
ENDBRANCH  11  13
ENDBRANCH   7  11
BRANCH  10  20
HETATM   20  O2  UNL     1      26.070  -1.281  53.800  1.00  0.00    -0.279 OA
BRANCH  20  21
HETATM   21  S1  UNL     1      26.973  -2.041  52.518  1.00  0.00    -0.017 SA
HETATM   22  H15 UNL     1      27.294  -3.357  52.902  1.00  0.00     0.134 HD
ENDBRANCH  20  21
ENDBRANCH  10  20
BRANCH   1  23
HETATM   23  O1  UNL     1      27.489   0.860  54.780  1.00  0.00    -0.353 OA
HETATM   24  C1  UNL     1      28.709   1.154  54.129  1.00  0.00     0.210 C 
ENDBRANCH   1  23
TORSDOF 5
ENDMDL
MODEL 4
REMARK VINA RESULT:      -7.4      3.498      7.144
REMARK  5 active torsions:
REMARK  status: ('A' for Active; 'I' for Inactive)
REMARK    1  A    between atoms: O1_2  and  C2_3 
REMARK    2  A    between atoms: C6_9  and  N3_10 
REMARK    3  A    between atoms: N3_10  and  C7_11 
REMARK    4  A    between atoms: C16_20  and  O2_21 
REMARK    5  A    between atoms: O2_21  and  S1_22 
ROOT
HETATM    1  C2  UNL     1      27.526   0.249  53.895  1.00  0.00     0.105 A 
HETATM    2  C3  UNL     1      27.805   1.041  52.806  1.00  0.00     0.072 A 
HETATM    3  C4  UNL     1      26.823   1.828  52.270  1.00  0.00     0.075 A 
HETATM    4  N1  UNL     1      27.183   2.572  51.206  1.00  0.00    -0.241 NA
HETATM    5  C5  UNL     1      26.278   3.373  50.618  1.00  0.00     0.236 A 
HETATM    6  N2  UNL     1      25.044   3.392  51.127  1.00  0.00    -0.224 NA
HETATM    7  C6  UNL     1      24.581   2.708  52.164  1.00  0.00     0.142 A 
HETATM    8  C14 UNL     1      25.525   1.901  52.742  1.00  0.00     0.042 A 
HETATM    9  C15 UNL     1      25.307   1.091  53.826  1.00  0.00     0.058 A 
HETATM   10  C16 UNL     1      26.243   0.272  54.421  1.00  0.00     0.118 A 
ENDROOT
BRANCH   7  11
HETATM   11  N3  UNL     1      23.276   2.733  52.697  1.00  0.00    -0.340 N 
HETATM   12  H6  UNL     1      22.967   3.468  53.352  1.00  0.00     0.167 HD
BRANCH  11  13
HETATM   13  C7  UNL     1      22.221   1.823  52.453  1.00  0.00     0.034 A 
HETATM   14  C8  UNL     1      21.411   1.908  51.345  1.00  0.00     0.029 A 
HETATM   15  C9  UNL     1      20.375   1.037  51.078  1.00  0.00     0.003 A 
HETATM   16  C10 UNL     1      20.090   0.002  51.943  1.00  0.00     0.007 A 
HETATM   17  C11 UNL     1      20.871  -0.116  53.055  1.00  0.00    -0.060 A 
HETATM   18  C12 UNL     1      20.619  -1.206  54.028  1.00  0.00     0.048 C 
HETATM   19  C13 UNL     1      21.894   0.776  53.281  1.00  0.00     0.036 A 
ENDBRANCH  11  13
ENDBRANCH   7  11
BRANCH  10  20
HETATM   20  O2  UNL     1      25.955  -0.525  55.521  1.00  0.00    -0.279 OA
BRANCH  20  21
HETATM   21  S1  UNL     1      24.363  -1.221  55.645  1.00  0.00    -0.017 SA
HETATM   22  H15 UNL     1      23.791  -1.290  54.360  1.00  0.00     0.134 HD
ENDBRANCH  20  21
ENDBRANCH  10  20
BRANCH   1  23
HETATM   23  O1  UNL     1      28.494  -0.561  54.467  1.00  0.00    -0.353 OA
HETATM   24  C1  UNL     1      29.692  -0.783  53.749  1.00  0.00     0.210 C 
ENDBRANCH   1  23
TORSDOF 5
ENDMDL
MODEL 5
REMARK VINA RESULT:      -7.4      2.527      3.617
REMARK  5 active torsions:
REMARK  status: ('A' for Active; 'I' for Inactive)
REMARK    1  A    between atoms: O1_2  and  C2_3 
REMARK    2  A    between atoms: C6_9  and  N3_10 
REMARK    3  A    between atoms: N3_10  and  C7_11 
REMARK    4  A    between atoms: C16_20  and  O2_21 
REMARK    5  A    between atoms: O2_21  and  S1_22 
ROOT
HETATM    1  C2  UNL     1      21.251   0.994  52.005  1.00  0.00     0.105 A 
HETATM    2  C3  UNL     1      21.715   1.625  50.875  1.00  0.00     0.072 A 
HETATM    3  C4  UNL     1      22.999   2.097  50.840  1.00  0.00     0.075 A 
HETATM    4  N1  UNL     1      23.372   2.700  49.696  1.00  0.00    -0.241 NA
HETATM    5  C5  UNL     1      24.616   3.193  49.578  1.00  0.00     0.236 A 
HETATM    6  N2  UNL     1      25.438   3.056  50.621  1.00  0.00    -0.224 NA
HETATM    7  C6  UNL     1      25.181   2.483  51.789  1.00  0.00     0.142 A 
HETATM    8  C14 UNL     1      23.906   1.992  51.879  1.00  0.00     0.042 A 
HETATM    9  C15 UNL     1      23.387   1.355  52.977  1.00  0.00     0.058 A 
HETATM   10  C16 UNL     1      22.107   0.854  53.087  1.00  0.00     0.118 A 
ENDROOT
BRANCH   7  11
HETATM   11  N3  UNL     1      26.054   2.343  52.888  1.00  0.00    -0.340 N 
HETATM   12  H6  UNL     1      26.025   2.987  53.694  1.00  0.00     0.167 HD
BRANCH  11  13
HETATM   13  C7  UNL     1      27.058   1.365  53.080  1.00  0.00     0.034 A 
HETATM   14  C8  UNL     1      28.318   1.677  53.531  1.00  0.00     0.029 A 
HETATM   15  C9  UNL     1      29.319   0.748  53.729  1.00  0.00     0.003 A 
HETATM   16  C10 UNL     1      29.094  -0.588  53.472  1.00  0.00     0.007 A 
HETATM   17  C11 UNL     1      27.855  -0.938  53.022  1.00  0.00    -0.060 A 
HETATM   18  C12 UNL     1      27.546  -2.357  52.726  1.00  0.00     0.048 C 
HETATM   19  C13 UNL     1      26.888   0.022  52.839  1.00  0.00     0.036 A 
ENDBRANCH  11  13
ENDBRANCH   7  11
BRANCH  10  20
HETATM   20  O2  UNL     1      21.644   0.217  54.230  1.00  0.00    -0.279 OA
BRANCH  20  21
HETATM   21  S1  UNL     1      21.940  -1.491  54.404  1.00  0.00    -0.017 SA
HETATM   22  H15 UNL     1      21.878  -1.831  55.769  1.00  0.00     0.134 HD
ENDBRANCH  20  21
ENDBRANCH  10  20
BRANCH   1  23
HETATM   23  O1  UNL     1      19.957   0.502  52.079  1.00  0.00    -0.353 OA
HETATM   24  C1  UNL     1      19.154   0.553  50.917  1.00  0.00     0.210 C 
ENDBRANCH   1  23
TORSDOF 5
ENDMDL
MODEL 6
REMARK VINA RESULT:      -7.2      3.431      6.217
REMARK  5 active torsions:
REMARK  status: ('A' for Active; 'I' for Inactive)
REMARK    1  A    between atoms: O1_2  and  C2_3 
REMARK    2  A    between atoms: C6_9  and  N3_10 
REMARK    3  A    between atoms: N3_10  and  C7_11 
REMARK    4  A    between atoms: C16_20  and  O2_21 
REMARK    5  A    between atoms: O2_21  and  S1_22 
ROOT
HETATM    1  C2  UNL     1      26.376  -0.136  53.332  1.00  0.00     0.105 A 
HETATM    2  C3  UNL     1      25.435  -0.794  54.089  1.00  0.00     0.072 A 
HETATM    3  C4  UNL     1      24.119  -0.427  54.006  1.00  0.00     0.075 A 
HETATM    4  N1  UNL     1      23.266  -1.124  54.780  1.00  0.00    -0.241 NA
HETATM    5  C5  UNL     1      21.956  -0.828  54.760  1.00  0.00     0.236 A 
HETATM    6  N2  UNL     1      21.557   0.161  53.957  1.00  0.00    -0.224 NA
HETATM    7  C6  UNL     1      22.302   0.910  53.155  1.00  0.00     0.142 A 
HETATM    8  C14 UNL     1      23.632   0.584  53.199  1.00  0.00     0.042 A 
HETATM    9  C15 UNL     1      24.614   1.204  52.469  1.00  0.00     0.058 A 
HETATM   10  C16 UNL     1      25.957   0.891  52.499  1.00  0.00     0.118 A 
ENDROOT
BRANCH   7  11
HETATM   11  N3  UNL     1      21.875   1.954  52.309  1.00  0.00    -0.340 N 
HETATM   12  H6  UNL     1      21.468   2.826  52.682  1.00  0.00     0.167 HD
BRANCH  11  13
HETATM   13  C7  UNL     1      21.920   2.000  50.897  1.00  0.00     0.034 A 
HETATM   14  C8  UNL     1      21.492   0.959  50.108  1.00  0.00     0.029 A 
HETATM   15  C9  UNL     1      21.521   0.973  48.729  1.00  0.00     0.003 A 
HETATM   16  C10 UNL     1      22.001   2.073  48.050  1.00  0.00     0.007 A 
HETATM   17  C11 UNL     1      22.437   3.127  48.798  1.00  0.00    -0.060 A 
HETATM   18  C12 UNL     1      22.966   4.342  48.133  1.00  0.00     0.048 C 
HETATM   19  C13 UNL     1      22.388   3.070  50.171  1.00  0.00     0.036 A 
ENDBRANCH  11  13
ENDBRANCH   7  11
BRANCH  10  20
HETATM   20  O2  UNL     1      26.902   1.559  51.732  1.00  0.00    -0.279 OA
BRANCH  20  21
HETATM   21  S1  UNL     1      26.369   2.876  50.724  1.00  0.00    -0.017 SA
HETATM   22  H15 UNL     1      26.580   4.090  51.406  1.00  0.00     0.134 HD
ENDBRANCH  20  21
ENDBRANCH  10  20
BRANCH   1  23
HETATM   23  O1  UNL     1      27.717  -0.478  53.388  1.00  0.00    -0.353 OA
HETATM   24  C1  UNL     1      28.476  -0.037  54.496  1.00  0.00     0.210 C 
ENDBRANCH   1  23
TORSDOF 5
ENDMDL
MODEL 7
REMARK VINA RESULT:      -7.0      8.397     11.848
REMARK  5 active torsions:
REMARK  status: ('A' for Active; 'I' for Inactive)
REMARK    1  A    between atoms: O1_2  and  C2_3 
REMARK    2  A    between atoms: C6_9  and  N3_10 
REMARK    3  A    between atoms: N3_10  and  C7_11 
REMARK    4  A    between atoms: C16_20  and  O2_21 
REMARK    5  A    between atoms: O2_21  and  S1_22 
ROOT
HETATM    1  C2  UNL     1      32.798   6.241  48.863  1.00  0.00     0.105 A 
HETATM    2  C3  UNL     1      32.434   7.533  49.166  1.00  0.00     0.072 A 
HETATM    3  C4  UNL     1      31.133   7.926  49.012  1.00  0.00     0.075 A 
HETATM    4  N1  UNL     1      30.865   9.206  49.333  1.00  0.00    -0.241 NA
HETATM    5  C5  UNL     1      29.611   9.673  49.210  1.00  0.00     0.236 A 
HETATM    6  N2  UNL     1      28.676   8.829  48.769  1.00  0.00    -0.224 NA
HETATM    7  C6  UNL     1      28.824   7.557  48.427  1.00  0.00     0.142 A 
HETATM    8  C14 UNL     1      30.111   7.110  48.562  1.00  0.00     0.042 A 
HETATM    9  C15 UNL     1      30.533   5.837  48.275  1.00  0.00     0.058 A 
HETATM   10  C16 UNL     1      31.823   5.369  48.404  1.00  0.00     0.118 A 
ENDROOT
BRANCH   7  11
HETATM   11  N3  UNL     1      27.831   6.671  47.961  1.00  0.00    -0.340 N 
HETATM   12  H6  UNL     1      27.609   6.578  46.957  1.00  0.00     0.167 HD
BRANCH  11  13
HETATM   13  C7  UNL     1      27.013   5.805  48.723  1.00  0.00     0.034 A 
HETATM   14  C8  UNL     1      27.264   4.458  48.837  1.00  0.00     0.029 A 
HETATM   15  C9  UNL     1      26.487   3.588  49.573  1.00  0.00     0.003 A 
HETATM   16  C10 UNL     1      25.378   4.044  50.253  1.00  0.00     0.007 A 
HETATM   17  C11 UNL     1      25.094   5.375  50.164  1.00  0.00    -0.060 A 
HETATM   18  C12 UNL     1      23.915   5.932  50.870  1.00  0.00     0.048 C 
HETATM   19  C13 UNL     1      25.897   6.207  49.419  1.00  0.00     0.036 A 
ENDBRANCH  11  13
ENDBRANCH   7  11
BRANCH  10  20
HETATM   20  O2  UNL     1      32.184   4.063  48.097  1.00  0.00    -0.279 OA
BRANCH  20  21
HETATM   21  S1  UNL     1      32.545   3.673  46.438  1.00  0.00    -0.017 SA
HETATM   22  H15 UNL     1      31.344   3.634  45.704  1.00  0.00     0.134 HD
ENDBRANCH  20  21
ENDBRANCH  10  20
BRANCH   1  23
HETATM   23  O1  UNL     1      34.106   5.806  49.005  1.00  0.00    -0.353 OA
HETATM   24  C1  UNL     1      35.129   6.529  48.350  1.00  0.00     0.210 C 
ENDBRANCH   1  23
TORSDOF 5
ENDMDL
MODEL 8
REMARK VINA RESULT:      -6.8      4.934      6.391
REMARK  5 active torsions:
REMARK  status: ('A' for Active; 'I' for Inactive)
REMARK    1  A    between atoms: O1_2  and  C2_3 
REMARK    2  A    between atoms: C6_9  and  N3_10 
REMARK    3  A    between atoms: N3_10  and  C7_11 
REMARK    4  A    between atoms: C16_20  and  O2_21 
REMARK    5  A    between atoms: O2_21  and  S1_22 
ROOT
HETATM    1  C2  UNL     1      24.531   6.261  48.459  1.00  0.00     0.105 A 
HETATM    2  C3  UNL     1      23.540   5.542  49.086  1.00  0.00     0.072 A 
HETATM    3  C4  UNL     1      23.875   4.563  49.982  1.00  0.00     0.075 A 
HETATM    4  N1  UNL     1      22.843   3.910  50.550  1.00  0.00    -0.241 NA
HETATM    5  C5  UNL     1      23.084   2.933  51.440  1.00  0.00     0.236 A 
HETATM    6  N2  UNL     1      24.359   2.654  51.724  1.00  0.00    -0.224 NA
HETATM    7  C6  UNL     1      25.447   3.229  51.231  1.00  0.00     0.142 A 
HETATM    8  C14 UNL     1      25.169   4.219  50.326  1.00  0.00     0.042 A 
HETATM    9  C15 UNL     1      26.112   4.968  49.670  1.00  0.00     0.058 A 
HETATM   10  C16 UNL     1      25.853   5.968  48.757  1.00  0.00     0.118 A 
ENDROOT
BRANCH   7  11
HETATM   11  N3  UNL     1      26.791   2.929  51.535  1.00  0.00    -0.340 N 
HETATM   12  H6  UNL     1      27.571   3.507  51.186  1.00  0.00     0.167 HD
BRANCH  11  13
HETATM   13  C7  UNL     1      27.287   1.860  52.317  1.00  0.00     0.034 A 
HETATM   14  C8  UNL     1      28.190   2.046  53.337  1.00  0.00     0.029 A 
HETATM   15  C9  UNL     1      28.692   1.026  54.118  1.00  0.00     0.003 A 
HETATM   16  C10 UNL     1      28.298  -0.277  53.905  1.00  0.00     0.007 A 
HETATM   17  C11 UNL     1      27.403  -0.504  52.901  1.00  0.00    -0.060 A 
HETATM   18  C12 UNL     1      26.937  -1.882  52.617  1.00  0.00     0.048 C 
HETATM   19  C13 UNL     1      26.928   0.544  52.147  1.00  0.00     0.036 A 
ENDBRANCH  11  13
ENDBRANCH   7  11
BRANCH  10  20
HETATM   20  O2  UNL     1      26.858   6.691  48.128  1.00  0.00    -0.279 OA
BRANCH  20  21
HETATM   21  S1  UNL     1      28.488   6.080  48.200  1.00  0.00    -0.017 SA
HETATM   22  H15 UNL     1      29.254   6.916  49.035  1.00  0.00     0.134 HD
ENDBRANCH  20  21
ENDBRANCH  10  20
BRANCH   1  23
HETATM   23  O1  UNL     1      24.231   7.260  47.547  1.00  0.00    -0.353 OA
HETATM   24  C1  UNL     1      23.773   8.503  48.040  1.00  0.00     0.210 C 
ENDBRANCH   1  23
TORSDOF 5
ENDMDL
MODEL 9
REMARK VINA RESULT:      -6.7      3.446      6.850
REMARK  5 active torsions:
REMARK  status: ('A' for Active; 'I' for Inactive)
REMARK    1  A    between atoms: O1_2  and  C2_3 
REMARK    2  A    between atoms: C6_9  and  N3_10 
REMARK    3  A    between atoms: N3_10  and  C7_11 
REMARK    4  A    between atoms: C16_20  and  O2_21 
REMARK    5  A    between atoms: O2_21  and  S1_22 
ROOT
HETATM    1  C2  UNL     1      25.588   4.800  49.746  1.00  0.00     0.105 A 
HETATM    2  C3  UNL     1      26.422   3.742  50.025  1.00  0.00     0.072 A 
HETATM    3  C4  UNL     1      26.009   2.761  50.884  1.00  0.00     0.075 A 
HETATM    4  N1  UNL     1      26.888   1.763  51.100  1.00  0.00    -0.241 NA
HETATM    5  C5  UNL     1      26.562   0.759  51.931  1.00  0.00     0.236 A 
HETATM    6  N2  UNL     1      25.362   0.801  52.514  1.00  0.00    -0.224 NA
HETATM    7  C6  UNL     1      24.423   1.727  52.376  1.00  0.00     0.142 A 
HETATM    8  C14 UNL     1      24.783   2.737  51.523  1.00  0.00     0.042 A 
HETATM    9  C15 UNL     1      23.997   3.815  51.208  1.00  0.00     0.058 A 
HETATM   10  C16 UNL     1      24.342   4.840  50.353  1.00  0.00     0.118 A 
ENDROOT
BRANCH   7  11
HETATM   11  N3  UNL     1      23.156   1.766  52.994  1.00  0.00    -0.340 N 
HETATM   12  H6  UNL     1      22.697   2.657  53.243  1.00  0.00     0.167 HD
BRANCH  11  13
HETATM   13  C7  UNL     1      22.336   0.675  53.363  1.00  0.00     0.034 A 
HETATM   14  C8  UNL     1      22.786  -0.355  54.154  1.00  0.00     0.029 A 
HETATM   15  C9  UNL     1      22.012  -1.433  54.532  1.00  0.00     0.003 A 
HETATM   16  C10 UNL     1      20.701  -1.533  54.117  1.00  0.00     0.007 A 
HETATM   17  C11 UNL     1      20.217  -0.530  53.329  1.00  0.00    -0.060 A 
HETATM   18  C12 UNL     1      18.816  -0.575  52.846  1.00  0.00     0.048 C 
HETATM   19  C13 UNL     1      21.025   0.526  52.977  1.00  0.00     0.036 A 
ENDBRANCH  11  13
ENDBRANCH   7  11
BRANCH  10  20
HETATM   20  O2  UNL     1      23.495   5.905  50.076  1.00  0.00    -0.279 OA
BRANCH  20  21
HETATM   21  S1  UNL     1      21.836   5.561  49.668  1.00  0.00    -0.017 SA
HETATM   22  H15 UNL     1      21.059   5.600  50.842  1.00  0.00     0.134 HD
ENDBRANCH  20  21
ENDBRANCH  10  20
BRANCH   1  23
HETATM   23  O1  UNL     1      25.969   5.813  48.880  1.00  0.00    -0.353 OA
HETATM   24  C1  UNL     1      27.329   5.895  48.502  1.00  0.00     0.210 C 
ENDBRANCH   1  23
TORSDOF 5
ENDMDL
