MODEL 1
REMARK VINA RESULT:      -8.5      0.000      0.000
REMARK  2 active torsions:
REMARK  status: ('A' for Active; 'I' for Inactive)
REMARK    1  A    between atoms: C2_2  and  C3_3 
REMARK    2  A    between atoms: C7_8  and  C8_9 
ROOT
HETATM    1  C3  UNL     1      22.417   0.016  53.404  1.00  0.00    -0.044 C 
HETATM    2  C4  UNL     1      23.308  -0.717  54.039  1.00  0.00     0.027 C 
HETATM    3  C5  UNL     1      24.628  -0.930  54.472  1.00  0.00     0.275 C 
HETATM    4  N1  UNL     1      25.829  -0.845  54.698  1.00  0.00    -0.411 NA
HETATM    5  C6  UNL     1      26.998  -0.089  54.514  1.00  0.00     0.131 C 
HETATM    6  C7  UNL     1      27.312   1.193  53.987  1.00  0.00     0.001 C 
HETATM    7  C9  UNL     1      26.382   2.225  53.523  1.00  0.00     0.159 C 
HETATM    8  N2  UNL     1      26.195   2.678  52.228  1.00  0.00    -0.386 N 
HETATM    9  C10 UNL     1      24.736   2.863  52.151  1.00  0.00     0.030 A 
HETATM   10  C11 UNL     1      23.787   3.810  51.862  1.00  0.00     0.056 A 
HETATM   11  C12 UNL     1      22.442   3.582  52.022  1.00  0.00     0.075 A 
HETATM   12 CL1  UNL     1      21.434   4.915  51.603  1.00  0.00    -0.081 Cl
HETATM   13  C13 UNL     1      22.035   2.351  52.493  1.00  0.00     0.148 A 
HETATM   14  F1  UNL     1      20.679   2.158  52.655  1.00  0.00    -0.203 F 
HETATM   15  C14 UNL     1      22.804   1.267  52.839  1.00  0.00     0.013 A 
HETATM   16  C15 UNL     1      24.075   1.689  52.608  1.00  0.00     0.044 A 
HETATM   17  H12 UNL     1      26.261   2.996  51.250  1.00  0.00     0.160 HD
ENDROOT
BRANCH   6  18
HETATM   18  C8  UNL     1      28.720   1.383  54.073  1.00  0.00     0.150 A 
HETATM   19  O1  UNL     1      29.143   2.464  54.542  1.00  0.00    -0.189 OA
HETATM   20  O2  UNL     1      30.098   1.415  54.093  1.00  0.00     0.000 OA
HETATM   21  H9  UNL     1      30.683   0.642  53.901  1.00  0.00     0.000 HD
ENDBRANCH   6  18
BRANCH   1  22
HETATM   22  C2  UNL     1      20.988  -0.318  53.259  1.00  0.00     0.035 C 
HETATM   23  C1  UNL     1      20.531  -1.454  54.107  1.00  0.00     0.010 C 
ENDBRANCH   1  22
TORSDOF 2
ENDMDL
MODEL 2
REMARK VINA RESULT:      -8.3      4.054      5.750
REMARK  2 active torsions:
REMARK  status: ('A' for Active; 'I' for Inactive)
REMARK    1  A    between atoms: C2_2  and  C3_3 
REMARK    2  A    between atoms: C7_8  and  C8_9 
ROOT
HETATM    1  C3  UNL     1      26.538   0.514  54.260  1.00  0.00    -0.044 C 
HETATM    2  C4  UNL     1      25.884  -0.368  54.988  1.00  0.00     0.027 C 
HETATM    3  C5  UNL     1      24.691  -1.034  55.317  1.00  0.00     0.275 C 
HETATM    4  N1  UNL     1      23.534  -1.430  55.379  1.00  0.00    -0.411 NA
HETATM    5  C6  UNL     1      22.232  -1.311  54.864  1.00  0.00     0.131 C 
HETATM    6  C7  UNL     1      21.626  -0.634  53.772  1.00  0.00     0.001 C 
HETATM    7  C9  UNL     1      22.285   0.137  52.716  1.00  0.00     0.159 C 
HETATM    8  N2  UNL     1      22.219   1.502  52.496  1.00  0.00    -0.386 N 
HETATM    9  C10 UNL     1      23.598   1.840  52.103  1.00  0.00     0.030 A 
HETATM   10  C11 UNL     1      24.314   2.430  51.094  1.00  0.00     0.056 A 
HETATM   11  C12 UNL     1      25.687   2.450  51.073  1.00  0.00     0.075 A 
HETATM   12 CL1  UNL     1      26.373   3.240  49.704  1.00  0.00    -0.081 Cl
HETATM   13  C13 UNL     1      26.368   1.851  52.113  1.00  0.00     0.148 A 
HETATM   14  F1  UNL     1      27.746   1.876  52.057  1.00  0.00    -0.203 F 
HETATM   15  C14 UNL     1      25.861   1.211  53.217  1.00  0.00     0.013 A 
HETATM   16  C15 UNL     1      24.515   1.304  53.050  1.00  0.00     0.044 A 
HETATM   17  H12 UNL     1      21.971   2.497  52.385  1.00  0.00     0.160 HD
ENDROOT
BRANCH   6  18
HETATM   18  C8  UNL     1      20.230  -0.909  53.791  1.00  0.00     0.150 A 
HETATM   19  O1  UNL     1      19.468  -0.151  53.146  1.00  0.00    -0.189 OA
HETATM   20  O2  UNL     1      18.913  -1.305  53.905  1.00  0.00     0.000 OA
HETATM   21  H9  UNL     1      18.613  -2.152  54.316  1.00  0.00     0.000 HD
ENDBRANCH   6  18
BRANCH   1  22
HETATM   22  C2  UNL     1      27.973   0.827  54.389  1.00  0.00     0.035 C 
HETATM   23  C1  UNL     1      28.875  -0.352  54.264  1.00  0.00     0.010 C 
ENDBRANCH   1  22
TORSDOF 2
ENDMDL
MODEL 3
REMARK VINA RESULT:      -8.2      4.227      6.327
REMARK  2 active torsions:
REMARK  status: ('A' for Active; 'I' for Inactive)
REMARK    1  A    between atoms: C2_2  and  C3_3 
REMARK    2  A    between atoms: C7_8  and  C8_9 
ROOT
HETATM    1  C3  UNL     1      25.664   2.450  51.019  1.00  0.00    -0.044 C 
HETATM    2  C4  UNL     1      24.368   2.406  50.785  1.00  0.00     0.027 C 
HETATM    3  C5  UNL     1      23.093   1.897  51.081  1.00  0.00     0.275 C 
HETATM    4  N1  UNL     1      22.140   1.287  51.553  1.00  0.00    -0.411 NA
HETATM    5  C6  UNL     1      21.715   0.343  52.502  1.00  0.00     0.131 C 
HETATM    6  C7  UNL     1      22.310  -0.343  53.594  1.00  0.00     0.001 C 
HETATM    7  C9  UNL     1      23.657  -0.163  54.141  1.00  0.00     0.159 C 
HETATM    8  N2  UNL     1      24.713  -1.057  54.106  1.00  0.00    -0.386 N 
HETATM    9  C10 UNL     1      25.874  -0.186  53.858  1.00  0.00     0.030 A 
HETATM   10  C11 UNL     1      27.100   0.145  54.375  1.00  0.00     0.056 A 
HETATM   11  C12 UNL     1      27.877   1.151  53.854  1.00  0.00     0.075 A 
HETATM   12 CL1  UNL     1      29.375   1.396  54.669  1.00  0.00    -0.081 Cl
HETATM   13  C13 UNL     1      27.401   1.852  52.766  1.00  0.00     0.148 A 
HETATM   14  F1  UNL     1      28.198   2.864  52.273  1.00  0.00    -0.203 F 
HETATM   15  C14 UNL     1      26.216   1.690  52.090  1.00  0.00     0.013 A 
HETATM   16  C15 UNL     1      25.611   0.666  52.748  1.00  0.00     0.044 A 
HETATM   17  H12 UNL     1      25.354  -1.865  54.114  1.00  0.00     0.160 HD
ENDROOT
BRANCH   6  18
HETATM   18  C8  UNL     1      21.333  -1.200  54.174  1.00  0.00     0.150 A 
HETATM   19  O1  UNL     1      21.712  -2.041  55.022  1.00  0.00    -0.189 OA
HETATM   20  O2  UNL     1      20.275  -1.950  54.644  1.00  0.00     0.000 OA
HETATM   21  H9  UNL     1      19.323  -1.764  54.454  1.00  0.00     0.000 HD
ENDBRANCH   6  18
BRANCH   1  22
HETATM   22  C2  UNL     1      26.632   3.284  50.283  1.00  0.00     0.035 C 
HETATM   23  C1  UNL     1      26.015   4.308  49.393  1.00  0.00     0.010 C 
ENDBRANCH   1  22
TORSDOF 2
ENDMDL
MODEL 4
REMARK VINA RESULT:      -8.1      3.194      4.829
REMARK  2 active torsions:
REMARK  status: ('A' for Active; 'I' for Inactive)
REMARK    1  A    between atoms: C2_2  and  C3_3 
REMARK    2  A    between atoms: C7_8  and  C8_9 
ROOT
HETATM    1  C3  UNL     1      25.641   3.220  50.326  1.00  0.00    -0.044 C 
HETATM    2  C4  UNL     1      26.607   2.862  51.146  1.00  0.00     0.027 C 
HETATM    3  C5  UNL     1      27.055   2.117  52.251  1.00  0.00     0.275 C 
HETATM    4  N1  UNL     1      27.146   1.375  53.221  1.00  0.00    -0.411 NA
HETATM    5  C6  UNL     1      26.471   0.497  54.084  1.00  0.00     0.131 C 
HETATM    6  C7  UNL     1      25.181  -0.099  54.128  1.00  0.00     0.001 C 
HETATM    7  C9  UNL     1      24.120  -0.017  53.122  1.00  0.00     0.159 C 
HETATM    8  N2  UNL     1      22.896   0.620  53.231  1.00  0.00    -0.386 N 
HETATM    9  C10 UNL     1      22.714   1.216  51.897  1.00  0.00     0.030 A 
HETATM   10  C11 UNL     1      21.835   1.248  50.844  1.00  0.00     0.056 A 
HETATM   11  C12 UNL     1      22.116   1.894  49.665  1.00  0.00     0.075 A 
HETATM   12 CL1  UNL     1      20.869   1.796  48.479  1.00  0.00    -0.081 Cl
HETATM   13  C13 UNL     1      23.330   2.537  49.540  1.00  0.00     0.148 A 
HETATM   14  F1  UNL     1      23.586   3.165  48.340  1.00  0.00    -0.203 F 
HETATM   15  C14 UNL     1      24.348   2.636  50.457  1.00  0.00     0.013 A 
HETATM   16  C15 UNL     1      23.879   1.947  51.531  1.00  0.00     0.044 A 
HETATM   17  H12 UNL     1      21.987   1.023  53.506  1.00  0.00     0.160 HD
ENDROOT
BRANCH   6  18
HETATM   18  C8  UNL     1      25.099  -0.909  55.295  1.00  0.00     0.150 A 
HETATM   19  O1  UNL     1      23.980  -1.374  55.614  1.00  0.00    -0.189 OA
HETATM   20  O2  UNL     1      25.181  -1.671  56.441  1.00  0.00     0.000 OA
HETATM   21  H9  UNL     1      26.025  -1.941  56.879  1.00  0.00     0.000 HD
ENDBRANCH   6  18
BRANCH   1  22
HETATM   22  C2  UNL     1      25.786   4.167  49.205  1.00  0.00     0.035 C 
HETATM   23  C1  UNL     1      27.192   4.557  48.904  1.00  0.00     0.010 C 
ENDBRANCH   1  22
TORSDOF 2
ENDMDL
MODEL 5
REMARK VINA RESULT:      -7.9      2.073      3.813
REMARK  2 active torsions:
REMARK  status: ('A' for Active; 'I' for Inactive)
REMARK    1  A    between atoms: C2_2  and  C3_3 
REMARK    2  A    between atoms: C7_8  and  C8_9 
ROOT
HETATM    1  C3  UNL     1      22.983   2.486  52.051  1.00  0.00    -0.044 C 
HETATM    2  C4  UNL     1      24.173   2.864  51.632  1.00  0.00     0.027 C 
HETATM    3  C5  UNL     1      25.566   2.680  51.586  1.00  0.00     0.275 C 
HETATM    4  N1  UNL     1      26.713   2.277  51.734  1.00  0.00    -0.411 NA
HETATM    5  C6  UNL     1      27.542   1.314  52.332  1.00  0.00     0.131 C 
HETATM    6  C7  UNL     1      27.344   0.110  53.060  1.00  0.00     0.001 C 
HETATM    7  C9  UNL     1      26.080  -0.575  53.337  1.00  0.00     0.159 C 
HETATM    8  N2  UNL     1      25.450  -0.732  54.560  1.00  0.00    -0.386 N 
HETATM    9  C10 UNL     1      24.028  -0.554  54.224  1.00  0.00     0.030 A 
HETATM   10  C11 UNL     1      22.813  -1.183  54.320  1.00  0.00     0.056 A 
HETATM   11  C12 UNL     1      21.671  -0.680  53.748  1.00  0.00     0.075 A 
HETATM   12 CL1  UNL     1      20.262  -1.643  53.991  1.00  0.00    -0.081 Cl
HETATM   13  C13 UNL     1      21.753   0.508  53.051  1.00  0.00     0.148 A 
HETATM   14  F1  UNL     1      20.591   0.981  52.478  1.00  0.00    -0.203 F 
HETATM   15  C14 UNL     1      22.852   1.302  52.833  1.00  0.00     0.013 A 
HETATM   16  C15 UNL     1      23.855   0.641  53.471  1.00  0.00     0.044 A 
HETATM   17  H12 UNL     1      25.174  -0.877  55.543  1.00  0.00     0.160 HD
ENDROOT
BRANCH   6  18
HETATM   18  C8  UNL     1      28.619  -0.416  53.414  1.00  0.00     0.150 A 
HETATM   19  O1  UNL     1      28.803  -0.774  54.600  1.00  0.00    -0.189 OA
HETATM   20  O2  UNL     1      29.895  -0.905  53.598  1.00  0.00     0.000 OA
HETATM   21  H9  UNL     1      30.539  -1.089  52.870  1.00  0.00     0.000 HD
ENDBRANCH   6  18
BRANCH   1  22
HETATM   22  C2  UNL     1      21.714   3.166  51.733  1.00  0.00     0.035 C 
HETATM   23  C1  UNL     1      21.488   3.404  50.280  1.00  0.00     0.010 C 
ENDBRANCH   1  22
TORSDOF 2
ENDMDL
MODEL 6
REMARK VINA RESULT:      -7.8      3.985      5.406
REMARK  2 active torsions:
REMARK  status: ('A' for Active; 'I' for Inactive)
REMARK    1  A    between atoms: C2_2  and  C3_3 
REMARK    2  A    between atoms: C7_8  and  C8_9 
ROOT
HETATM    1  C3  UNL     1      23.193   0.212  53.223  1.00  0.00    -0.044 C 
HETATM    2  C4  UNL     1      22.206   0.755  52.540  1.00  0.00     0.027 C 
HETATM    3  C5  UNL     1      21.748   1.675  51.582  1.00  0.00     0.275 C 
HETATM    4  N1  UNL     1      21.653   2.552  50.732  1.00  0.00    -0.411 NA
HETATM    5  C6  UNL     1      22.338   3.501  49.955  1.00  0.00     0.131 C 
HETATM    6  C7  UNL     1      23.699   3.819  49.701  1.00  0.00     0.001 C 
HETATM    7  C9  UNL     1      24.890   3.105  50.164  1.00  0.00     0.159 C 
HETATM    8  N2  UNL     1      25.843   3.540  51.069  1.00  0.00    -0.386 N 
HETATM    9  C10 UNL     1      26.141   2.324  51.845  1.00  0.00     0.030 A 
HETATM   10  C11 UNL     1      27.184   1.517  52.219  1.00  0.00     0.056 A 
HETATM   11  C12 UNL     1      27.002   0.344  52.910  1.00  0.00     0.075 A 
HETATM   12 CL1  UNL     1      28.454  -0.512  53.267  1.00  0.00    -0.081 Cl
HETATM   13  C13 UNL     1      25.716  -0.033  53.238  1.00  0.00     0.148 A 
HETATM   14  F1  UNL     1      25.565  -1.222  53.919  1.00  0.00    -0.203 F 
HETATM   15  C14 UNL     1      24.536   0.616  52.970  1.00  0.00     0.013 A 
HETATM   16  C15 UNL     1      24.929   1.731  52.299  1.00  0.00     0.044 A 
HETATM   17  H12 UNL     1      26.526   4.047  51.651  1.00  0.00     0.160 HD
ENDROOT
BRANCH   6  18
HETATM   18  C8  UNL     1      23.743   4.925  48.805  1.00  0.00     0.150 A 
HETATM   19  O1  UNL     1      24.800   5.594  48.743  1.00  0.00    -0.189 OA
HETATM   20  O2  UNL     1      23.632   5.955  47.895  1.00  0.00     0.000 OA
HETATM   21  H9  UNL     1      22.879   6.073  47.266  1.00  0.00     0.000 HD
ENDBRANCH   6  18
BRANCH   1  22
HETATM   22  C2  UNL     1      23.043  -0.856  54.229  1.00  0.00     0.035 C 
HETATM   23  C1  UNL     1      21.637  -1.116  54.648  1.00  0.00     0.010 C 
ENDBRANCH   1  22
TORSDOF 2
ENDMDL
MODEL 7
REMARK VINA RESULT:      -7.8      4.092      5.950
REMARK  2 active torsions:
REMARK  status: ('A' for Active; 'I' for Inactive)
REMARK    1  A    between atoms: C2_2  and  C3_3 
REMARK    2  A    between atoms: C7_8  and  C8_9 
ROOT
HETATM    1  C3  UNL     1      26.389   0.478  52.221  1.00  0.00    -0.044 C 
HETATM    2  C4  UNL     1      26.802   1.544  51.567  1.00  0.00     0.027 C 
HETATM    3  C5  UNL     1      26.532   2.780  50.955  1.00  0.00     0.275 C 
HETATM    4  N1  UNL     1      26.003   3.791  50.509  1.00  0.00    -0.411 NA
HETATM    5  C6  UNL     1      24.803   4.502  50.343  1.00  0.00     0.131 C 
HETATM    6  C7  UNL     1      23.469   4.374  50.814  1.00  0.00     0.001 C 
HETATM    7  C9  UNL     1      22.947   3.407  51.781  1.00  0.00     0.159 C 
HETATM    8  N2  UNL     1      22.062   2.368  51.549  1.00  0.00    -0.386 N 
HETATM    9  C10 UNL     1      22.597   1.284  52.391  1.00  0.00     0.030 A 
HETATM   10  C11 UNL     1      22.234   0.424  53.396  1.00  0.00     0.056 A 
HETATM   11  C12 UNL     1      23.129  -0.418  54.009  1.00  0.00     0.075 A 
HETATM   12 CL1  UNL     1      22.452  -1.404  55.250  1.00  0.00    -0.081 Cl
HETATM   13  C13 UNL     1      24.444  -0.395  53.593  1.00  0.00     0.148 A 
HETATM   14  F1  UNL     1      25.320  -1.243  54.237  1.00  0.00    -0.203 F 
HETATM   15  C14 UNL     1      25.022   0.375  52.614  1.00  0.00     0.013 A 
HETATM   16  C15 UNL     1      23.988   1.119  52.139  1.00  0.00     0.044 A 
HETATM   17  H12 UNL     1      21.310   1.729  51.250  1.00  0.00     0.160 HD
ENDROOT
BRANCH   6  18
HETATM   18  C8  UNL     1      22.694   5.434  50.265  1.00  0.00     0.150 A 
HETATM   19  O1  UNL     1      21.456   5.270  50.161  1.00  0.00    -0.189 OA
HETATM   20  O2  UNL     1      22.084   6.545  49.721  1.00  0.00     0.000 OA
HETATM   21  H9  UNL     1      22.530   7.413  49.564  1.00  0.00     0.000 HD
ENDBRANCH   6  18
BRANCH   1  22
HETATM   22  C2  UNL     1      27.247  -0.641  52.650  1.00  0.00     0.035 C 
HETATM   23  C1  UNL     1      28.437  -0.235  53.449  1.00  0.00     0.010 C 
ENDBRANCH   1  22
TORSDOF 2
ENDMDL
MODEL 8
REMARK VINA RESULT:      -7.7      3.424      4.689
REMARK  2 active torsions:
REMARK  status: ('A' for Active; 'I' for Inactive)
REMARK    1  A    between atoms: C2_2  and  C3_3 
REMARK    2  A    between atoms: C7_8  and  C8_9 
ROOT
HETATM    1  C3  UNL     1      21.937   0.897  51.533  1.00  0.00    -0.044 C 
HETATM    2  C4  UNL     1      22.015   1.578  50.409  1.00  0.00     0.027 C 
HETATM    3  C5  UNL     1      22.742   2.395  49.526  1.00  0.00     0.275 C 
HETATM    4  N1  UNL     1      23.597   3.079  48.977  1.00  0.00    -0.411 NA
HETATM    5  C6  UNL     1      24.898   3.603  49.055  1.00  0.00     0.131 C 
HETATM    6  C7  UNL     1      26.016   3.430  49.914  1.00  0.00     0.001 C 
HETATM    7  C9  UNL     1      26.160   2.484  51.023  1.00  0.00     0.159 C 
HETATM    8  N2  UNL     1      26.242   2.768  52.375  1.00  0.00    -0.386 N 
HETATM    9  C10 UNL     1      25.446   1.690  52.987  1.00  0.00     0.030 A 
HETATM   10  C11 UNL     1      25.530   0.687  53.918  1.00  0.00     0.056 A 
HETATM   11  C12 UNL     1      24.518  -0.218  54.125  1.00  0.00     0.075 A 
HETATM   12 CL1  UNL     1      24.847  -1.396  55.339  1.00  0.00    -0.081 Cl
HETATM   13  C13 UNL     1      23.373  -0.109  53.365  1.00  0.00     0.148 A 
HETATM   14  F1  UNL     1      22.380  -1.040  53.587  1.00  0.00    -0.203 F 
HETATM   15  C14 UNL     1      23.074   0.810  52.389  1.00  0.00     0.013 A 
HETATM   16  C15 UNL     1      24.180   1.599  52.343  1.00  0.00     0.044 A 
HETATM   17  H12 UNL     1      26.417   3.140  53.321  1.00  0.00     0.160 HD
ENDROOT
BRANCH   6  18
HETATM   18  C8  UNL     1      27.067   4.276  49.460  1.00  0.00     0.150 A 
HETATM   19  O1  UNL     1      26.778   5.213  48.681  1.00  0.00    -0.189 OA
HETATM   20  O2  UNL     1      28.186   5.004  49.114  1.00  0.00     0.000 OA
HETATM   21  H9  UNL     1      29.077   4.901  49.530  1.00  0.00     0.000 HD
ENDBRANCH   6  18
BRANCH   1  22
HETATM   22  C2  UNL     1      20.756   0.140  51.988  1.00  0.00     0.035 C 
HETATM   23  C1  UNL     1      19.513   0.410  51.212  1.00  0.00     0.010 C 
ENDBRANCH   1  22
TORSDOF 2
ENDMDL
MODEL 9
REMARK VINA RESULT:      -7.7      3.550      5.113
REMARK  2 active torsions:
REMARK  status: ('A' for Active; 'I' for Inactive)
REMARK    1  A    between atoms: C2_2  and  C3_3 
REMARK    2  A    between atoms: C7_8  and  C8_9 
ROOT
HETATM    1  C3  UNL     1      25.148   2.951  50.472  1.00  0.00    -0.044 C 
HETATM    2  C4  UNL     1      25.935   2.373  51.355  1.00  0.00     0.027 C 
HETATM    3  C5  UNL     1      26.117   1.495  52.437  1.00  0.00     0.275 C 
HETATM    4  N1  UNL     1      25.964   0.694  53.352  1.00  0.00    -0.411 NA
HETATM    5  C6  UNL     1      25.050  -0.092  54.071  1.00  0.00     0.131 C 
HETATM    6  C7  UNL     1      23.679  -0.440  53.939  1.00  0.00     0.001 C 
HETATM    7  C9  UNL     1      22.769  -0.104  52.842  1.00  0.00     0.159 C 
HETATM    8  N2  UNL     1      21.674   0.741  52.876  1.00  0.00    -0.386 N 
HETATM    9  C10 UNL     1      21.752   1.436  51.581  1.00  0.00     0.030 A 
HETATM   10  C11 UNL     1      21.018   1.691  50.451  1.00  0.00     0.056 A 
HETATM   11  C12 UNL     1      21.540   2.342  49.360  1.00  0.00     0.075 A 
HETATM   12 CL1  UNL     1      20.437   2.545  48.051  1.00  0.00    -0.081 Cl
HETATM   13  C13 UNL     1      22.855   2.754  49.407  1.00  0.00     0.148 A 
HETATM   14  F1  UNL     1      23.353   3.393  48.291  1.00  0.00    -0.203 F 
HETATM   15  C14 UNL     1      23.764   2.610  50.426  1.00  0.00     0.013 A 
HETATM   16  C15 UNL     1      23.062   1.959  51.392  1.00  0.00     0.044 A 
HETATM   17  H12 UNL     1      20.826   1.288  53.089  1.00  0.00     0.160 HD
ENDROOT
BRANCH   6  18
HETATM   18  C8  UNL     1      23.323  -1.287  55.026  1.00  0.00     0.150 A 
HETATM   19  O1  UNL     1      22.112  -1.567  55.185  1.00  0.00    -0.189 OA
HETATM   20  O2  UNL     1      23.138  -2.115  56.114  1.00  0.00     0.000 OA
HETATM   21  H9  UNL     1      23.866  -2.551  56.620  1.00  0.00     0.000 HD
ENDBRANCH   6  18
BRANCH   1  22
HETATM   22  C2  UNL     1      25.584   3.918  49.447  1.00  0.00     0.035 C 
HETATM   23  C1  UNL     1      27.056   3.957  49.223  1.00  0.00     0.010 C 
ENDBRANCH   1  22
TORSDOF 2
ENDMDL
