MODEL 1
REMARK VINA RESULT:      -6.5      0.000      0.000
REMARK  8 active torsions:
REMARK  status: ('A' for Active; 'I' for Inactive)
REMARK    1  A    between atoms: C1_2  and  C2_3 
REMARK    2  A    between atoms: C2_3  and  N1_4 
REMARK    3  A    between atoms: N1_4  and  C3_5 
REMARK    4  A    between atoms: N1_4  and  C5_8 
REMARK    5  A    between atoms: C3_5  and  C4_6 
REMARK    6  A    between atoms: C8_11  and  N2_12 
REMARK    7  A    between atoms: N2_12  and  C9_13 
REMARK    8  A    between atoms: C9_13  and  C10_14 
ROOT
HETATM    1  C5  UNL     1      25.319   1.279  52.740  1.00  0.00     0.026 A 
HETATM    2  C6  UNL     1      24.316   0.902  51.964  1.00  0.00     0.005 A 
HETATM    3  C7  UNL     1      23.055   1.542  51.495  1.00  0.00     0.069 A 
HETATM    4  C8  UNL     1      22.944   2.918  52.081  1.00  0.00     0.247 A 
HETATM    5  C16 UNL     1      24.109   3.280  52.944  1.00  0.00     0.011 A 
HETATM    6  C17 UNL     1      25.186   2.622  53.283  1.00  0.00     0.027 A 
ENDROOT
BRANCH   4   7
HETATM    7  N2  UNL     1      22.839   3.892  51.047  1.00  0.00     0.096 N 
HETATM    8  H13 UNL     1      23.386   4.746  51.264  1.00  0.00     0.317 HD
BRANCH   7   9
HETATM    9  C9  UNL     1      23.210   3.430  49.728  1.00  0.00     0.309 C 
BRANCH   9  10
HETATM   10  C10 UNL     1      24.485   4.166  49.403  1.00  0.00    -0.030 A 
HETATM   11  C11 UNL     1      24.481   5.484  48.991  1.00  0.00     0.009 A 
HETATM   12  C12 UNL     1      25.716   6.075  48.715  1.00  0.00     0.001 A 
HETATM   13  C13 UNL     1      26.909   5.386  48.841  1.00  0.00     0.000 A 
HETATM   14  C14 UNL     1      26.861   4.061  49.257  1.00  0.00     0.001 A 
HETATM   15  C15 UNL     1      25.663   3.429  49.544  1.00  0.00     0.009 A 
ENDBRANCH   9  10
ENDBRANCH   7   9
ENDBRANCH   4   7
BRANCH   1  16
HETATM   16  N1  UNL     1      26.453   0.482  53.059  1.00  0.00    -0.379 N 
BRANCH  16  17
HETATM   17  C2  UNL     1      26.992   0.599  54.391  1.00  0.00     0.138 C 
BRANCH  17  18
HETATM   18  C1  UNL     1      28.483   0.866  54.401  1.00  0.00     0.134 C 
HETATM   19 CL1  UNL     1      28.746   2.503  53.757  1.00  0.00    -0.129 Cl
ENDBRANCH  17  18
ENDBRANCH  16  17
BRANCH  16  20
HETATM   20  C3  UNL     1      27.272  -0.482  52.365  1.00  0.00     0.138 C 
BRANCH  20  21
HETATM   21  C4  UNL     1      26.912  -1.905  52.727  1.00  0.00     0.134 C 
HETATM   22 CL2  UNL     1      28.427  -2.829  52.964  1.00  0.00    -0.129 Cl
ENDBRANCH  20  21
ENDBRANCH  16  20
ENDBRANCH   1  16
TORSDOF 8
ENDMDL
MODEL 2
REMARK VINA RESULT:      -6.5      2.232      4.443
REMARK  8 active torsions:
REMARK  status: ('A' for Active; 'I' for Inactive)
REMARK    1  A    between atoms: C1_2  and  C2_3 
REMARK    2  A    between atoms: C2_3  and  N1_4 
REMARK    3  A    between atoms: N1_4  and  C3_5 
REMARK    4  A    between atoms: N1_4  and  C5_8 
REMARK    5  A    between atoms: C3_5  and  C4_6 
REMARK    6  A    between atoms: C8_11  and  N2_12 
REMARK    7  A    between atoms: N2_12  and  C9_13 
REMARK    8  A    between atoms: C9_13  and  C10_14 
ROOT
HETATM    1  C5  UNL     1      25.845   2.034  52.930  1.00  0.00     0.026 A 
HETATM    2  C6  UNL     1      24.920   2.819  53.458  1.00  0.00     0.005 A 
HETATM    3  C7  UNL     1      23.757   3.578  52.919  1.00  0.00     0.069 A 
HETATM    4  C8  UNL     1      23.678   3.384  51.434  1.00  0.00     0.247 A 
HETATM    5  C16 UNL     1      24.749   2.487  50.905  1.00  0.00     0.011 A 
HETATM    6  C17 UNL     1      25.734   1.858  51.491  1.00  0.00     0.027 A 
ENDROOT
BRANCH   4   7
HETATM    7  N2  UNL     1      22.417   2.830  51.071  1.00  0.00     0.096 N 
HETATM    8  H13 UNL     1      22.019   3.292  50.233  1.00  0.00     0.317 HD
BRANCH   7   9
HETATM    9  C9  UNL     1      22.413   1.400  50.855  1.00  0.00     0.309 C 
BRANCH   9  10
HETATM   10  C10 UNL     1      21.966   0.810  52.168  1.00  0.00    -0.030 A 
HETATM   11  C11 UNL     1      20.804   1.217  52.793  1.00  0.00     0.009 A 
HETATM   12  C12 UNL     1      20.478   0.608  54.006  1.00  0.00     0.001 A 
HETATM   13  C13 UNL     1      21.274  -0.367  54.580  1.00  0.00     0.000 A 
HETATM   14  C14 UNL     1      22.434  -0.744  53.914  1.00  0.00     0.001 A 
HETATM   15  C15 UNL     1      22.801  -0.171  52.707  1.00  0.00     0.009 A 
ENDBRANCH   9  10
ENDBRANCH   7   9
ENDBRANCH   4   7
BRANCH   1  16
HETATM   16  N1  UNL     1      26.889   1.395  53.656  1.00  0.00    -0.379 N 
BRANCH  16  17
HETATM   17  C2  UNL     1      28.245   1.725  53.294  1.00  0.00     0.138 C 
BRANCH  17  18
HETATM   18  C1  UNL     1      29.265   1.175  54.270  1.00  0.00     0.134 C 
HETATM   19 CL1  UNL     1      30.139  -0.144  53.457  1.00  0.00    -0.129 Cl
ENDBRANCH  17  18
ENDBRANCH  16  17
BRANCH  16  20
HETATM   20  C3  UNL     1      26.970   0.438  54.732  1.00  0.00     0.138 C 
BRANCH  20  21
HETATM   21  C4  UNL     1      26.066  -0.753  54.507  1.00  0.00     0.134 C 
HETATM   22 CL2  UNL     1      26.433  -1.446  52.898  1.00  0.00    -0.129 Cl
ENDBRANCH  20  21
ENDBRANCH  16  20
ENDBRANCH   1  16
TORSDOF 8
ENDMDL
MODEL 3
REMARK VINA RESULT:      -6.5      2.235      4.686
REMARK  8 active torsions:
REMARK  status: ('A' for Active; 'I' for Inactive)
REMARK    1  A    between atoms: C1_2  and  C2_3 
REMARK    2  A    between atoms: C2_3  and  N1_4 
REMARK    3  A    between atoms: N1_4  and  C3_5 
REMARK    4  A    between atoms: N1_4  and  C5_8 
REMARK    5  A    between atoms: C3_5  and  C4_6 
REMARK    6  A    between atoms: C8_11  and  N2_12 
REMARK    7  A    between atoms: N2_12  and  C9_13 
REMARK    8  A    between atoms: C9_13  and  C10_14 
ROOT
HETATM    1  C5  UNL     1      25.892   2.024  52.874  1.00  0.00     0.026 A 
HETATM    2  C6  UNL     1      24.974   2.784  53.450  1.00  0.00     0.005 A 
HETATM    3  C7  UNL     1      23.785   3.539  52.966  1.00  0.00     0.069 A 
HETATM    4  C8  UNL     1      23.658   3.376  51.480  1.00  0.00     0.247 A 
HETATM    5  C16 UNL     1      24.723   2.506  50.897  1.00  0.00     0.011 A 
HETATM    6  C17 UNL     1      25.735   1.878  51.436  1.00  0.00     0.027 A 
ENDROOT
BRANCH   4   7
HETATM    7  N2  UNL     1      22.393   2.813  51.148  1.00  0.00     0.096 N 
HETATM    8  H13 UNL     1      21.892   3.382  50.441  1.00  0.00     0.317 HD
BRANCH   7   9
HETATM    9  C9  UNL     1      22.431   1.441  50.693  1.00  0.00     0.309 C 
BRANCH   9  10
HETATM   10  C10 UNL     1      21.695   0.660  51.752  1.00  0.00    -0.030 A 
HETATM   11  C11 UNL     1      20.317   0.574  51.768  1.00  0.00     0.009 A 
HETATM   12  C12 UNL     1      19.731  -0.174  52.791  1.00  0.00     0.001 A 
HETATM   13  C13 UNL     1      20.481  -0.811  53.762  1.00  0.00     0.000 A 
HETATM   14  C14 UNL     1      21.865  -0.695  53.705  1.00  0.00     0.001 A 
HETATM   15  C15 UNL     1      22.495   0.035  52.710  1.00  0.00     0.009 A 
ENDBRANCH   9  10
ENDBRANCH   7   9
ENDBRANCH   4   7
BRANCH   1  16
HETATM   16  N1  UNL     1      26.968   1.384  53.550  1.00  0.00    -0.379 N 
BRANCH  16  17
HETATM   17  C2  UNL     1      26.632   0.382  54.531  1.00  0.00     0.138 C 
BRANCH  17  18
HETATM   18  C1  UNL     1      25.742  -0.710  53.974  1.00  0.00     0.134 C 
HETATM   19 CL1  UNL     1      26.608  -1.485  52.628  1.00  0.00    -0.129 Cl
ENDBRANCH  17  18
ENDBRANCH  16  17
BRANCH  16  20
HETATM   20  C3  UNL     1      28.408   1.470  53.523  1.00  0.00     0.138 C 
BRANCH  20  21
HETATM   21  C4  UNL     1      29.055   0.534  54.519  1.00  0.00     0.134 C 
HETATM   22 CL2  UNL     1      29.967  -0.712  53.614  1.00  0.00    -0.129 Cl
ENDBRANCH  20  21
ENDBRANCH  16  20
ENDBRANCH   1  16
TORSDOF 8
ENDMDL
MODEL 4
REMARK VINA RESULT:      -6.4      2.466      2.929
REMARK  8 active torsions:
REMARK  status: ('A' for Active; 'I' for Inactive)
REMARK    1  A    between atoms: C1_2  and  C2_3 
REMARK    2  A    between atoms: C2_3  and  N1_4 
REMARK    3  A    between atoms: N1_4  and  C3_5 
REMARK    4  A    between atoms: N1_4  and  C5_8 
REMARK    5  A    between atoms: C3_5  and  C4_6 
REMARK    6  A    between atoms: C8_11  and  N2_12 
REMARK    7  A    between atoms: N2_12  and  C9_13 
REMARK    8  A    between atoms: C9_13  and  C10_14 
ROOT
HETATM    1  C5  UNL     1      23.741   1.316  52.752  1.00  0.00     0.026 A 
HETATM    2  C6  UNL     1      22.812   1.432  51.817  1.00  0.00     0.005 A 
HETATM    3  C7  UNL     1      22.307   2.553  50.975  1.00  0.00     0.069 A 
HETATM    4  C8  UNL     1      23.044   3.812  51.322  1.00  0.00     0.247 A 
HETATM    5  C16 UNL     1      24.076   3.610  52.382  1.00  0.00     0.011 A 
HETATM    6  C17 UNL     1      24.444   2.553  53.058  1.00  0.00     0.027 A 
ENDROOT
BRANCH   4   7
HETATM    7  N2  UNL     1      23.689   4.345  50.170  1.00  0.00     0.096 N 
HETATM    8  H13 UNL     1      23.956   5.338  50.302  1.00  0.00     0.317 HD
BRANCH   7   9
HETATM    9  C9  UNL     1      24.850   3.611  49.721  1.00  0.00     0.309 C 
BRANCH   9  10
HETATM   10  C10 UNL     1      25.788   4.661  49.181  1.00  0.00    -0.030 A 
HETATM   11  C11 UNL     1      25.350   5.926  48.843  1.00  0.00     0.009 A 
HETATM   12  C12 UNL     1      26.297   6.825  48.352  1.00  0.00     0.001 A 
HETATM   13  C13 UNL     1      27.629   6.485  48.199  1.00  0.00     0.000 A 
HETATM   14  C14 UNL     1      28.023   5.199  48.551  1.00  0.00     0.001 A 
HETATM   15  C15 UNL     1      27.122   4.270  49.044  1.00  0.00     0.009 A 
ENDBRANCH   9  10
ENDBRANCH   7   9
ENDBRANCH   4   7
BRANCH   1  16
HETATM   16  N1  UNL     1      24.064   0.115  53.441  1.00  0.00    -0.379 N 
BRANCH  16  17
HETATM   17  C2  UNL     1      23.050  -0.908  53.502  1.00  0.00     0.138 C 
BRANCH  17  18
HETATM   18  C1  UNL     1      22.314  -0.928  54.826  1.00  0.00     0.134 C 
HETATM   19 CL1  UNL     1      20.899   0.139  54.678  1.00  0.00    -0.129 Cl
ENDBRANCH  17  18
ENDBRANCH  16  17
BRANCH  16  20
HETATM   20  C3  UNL     1      25.212  -0.400  54.148  1.00  0.00     0.138 C 
BRANCH  20  21
HETATM   21  C4  UNL     1      26.147  -1.166  53.240  1.00  0.00     0.134 C 
HETATM   22 CL2  UNL     1      26.848  -0.022  52.055  1.00  0.00    -0.129 Cl
ENDBRANCH  20  21
ENDBRANCH  16  20
ENDBRANCH   1  16
TORSDOF 8
ENDMDL
MODEL 5
REMARK VINA RESULT:      -6.3      2.564      3.141
REMARK  8 active torsions:
REMARK  status: ('A' for Active; 'I' for Inactive)
REMARK    1  A    between atoms: C1_2  and  C2_3 
REMARK    2  A    between atoms: C2_3  and  N1_4 
REMARK    3  A    between atoms: N1_4  and  C3_5 
REMARK    4  A    between atoms: N1_4  and  C5_8 
REMARK    5  A    between atoms: C3_5  and  C4_6 
REMARK    6  A    between atoms: C8_11  and  N2_12 
REMARK    7  A    between atoms: N2_12  and  C9_13 
REMARK    8  A    between atoms: C9_13  and  C10_14 
ROOT
HETATM    1  C5  UNL     1      23.838   1.458  52.531  1.00  0.00     0.026 A 
HETATM    2  C6  UNL     1      23.548   1.685  51.260  1.00  0.00     0.005 A 
HETATM    3  C7  UNL     1      23.487   2.899  50.400  1.00  0.00     0.069 A 
HETATM    4  C8  UNL     1      23.826   4.110  51.217  1.00  0.00     0.247 A 
HETATM    5  C16 UNL     1      24.144   3.782  52.639  1.00  0.00     0.011 A 
HETATM    6  C17 UNL     1      24.173   2.651  53.293  1.00  0.00     0.027 A 
ENDROOT
BRANCH   4   7
HETATM    7  N2  UNL     1      24.945   4.790  50.657  1.00  0.00     0.096 N 
HETATM    8  H13 UNL     1      25.661   5.011  51.375  1.00  0.00     0.317 HD
BRANCH   7   9
HETATM    9  C9  UNL     1      25.591   4.111  49.557  1.00  0.00     0.309 C 
BRANCH   9  10
HETATM   10  C10 UNL     1      26.502   5.144  48.943  1.00  0.00    -0.030 A 
HETATM   11  C11 UNL     1      26.057   6.411  48.625  1.00  0.00     0.009 A 
HETATM   12  C12 UNL     1      26.979   7.294  48.061  1.00  0.00     0.001 A 
HETATM   13  C13 UNL     1      28.293   6.936  47.820  1.00  0.00     0.000 A 
HETATM   14  C14 UNL     1      28.694   5.648  48.157  1.00  0.00     0.001 A 
HETATM   15  C15 UNL     1      27.818   4.735  48.720  1.00  0.00     0.009 A 
ENDBRANCH   9  10
ENDBRANCH   7   9
ENDBRANCH   4   7
BRANCH   1  16
HETATM   16  N1  UNL     1      23.833   0.181  53.157  1.00  0.00    -0.379 N 
BRANCH  16  17
HETATM   17  C2  UNL     1      25.014  -0.202  53.891  1.00  0.00     0.138 C 
BRANCH  17  18
HETATM   18  C1  UNL     1      25.930  -1.111  53.097  1.00  0.00     0.134 C 
HETATM   19 CL1  UNL     1      26.806  -0.106  51.920  1.00  0.00    -0.129 Cl
ENDBRANCH  17  18
ENDBRANCH  16  17
BRANCH  16  20
HETATM   20  C3  UNL     1      22.903  -0.917  53.267  1.00  0.00     0.138 C 
BRANCH  20  21
HETATM   21  C4  UNL     1      22.256  -0.984  54.632  1.00  0.00     0.134 C 
HETATM   22 CL2  UNL     1      20.955   0.245  54.701  1.00  0.00    -0.129 Cl
ENDBRANCH  20  21
ENDBRANCH  16  20
ENDBRANCH   1  16
TORSDOF 8
ENDMDL
MODEL 6
REMARK VINA RESULT:      -6.3      2.206      3.212
REMARK  8 active torsions:
REMARK  status: ('A' for Active; 'I' for Inactive)
REMARK    1  A    between atoms: C1_2  and  C2_3 
REMARK    2  A    between atoms: C2_3  and  N1_4 
REMARK    3  A    between atoms: N1_4  and  C3_5 
REMARK    4  A    between atoms: N1_4  and  C5_8 
REMARK    5  A    between atoms: C3_5  and  C4_6 
REMARK    6  A    between atoms: C8_11  and  N2_12 
REMARK    7  A    between atoms: N2_12  and  C9_13 
REMARK    8  A    between atoms: C9_13  and  C10_14 
ROOT
HETATM    1  C5  UNL     1      25.841   1.434  52.702  1.00  0.00     0.026 A 
HETATM    2  C6  UNL     1      26.539   1.510  51.580  1.00  0.00     0.005 A 
HETATM    3  C7  UNL     1      26.491   2.382  50.373  1.00  0.00     0.069 A 
HETATM    4  C8  UNL     1      25.369   3.368  50.512  1.00  0.00     0.247 A 
HETATM    5  C16 UNL     1      24.626   3.228  51.800  1.00  0.00     0.011 A 
HETATM    6  C17 UNL     1      24.768   2.410  52.809  1.00  0.00     0.027 A 
ENDROOT
BRANCH   4   7
HETATM    7  N2  UNL     1      25.865   4.700  50.427  1.00  0.00     0.096 N 
HETATM    8  H13 UNL     1      26.893   4.738  50.556  1.00  0.00     0.317 HD
BRANCH   7   9
HETATM    9  C9  UNL     1      25.526   5.407  49.213  1.00  0.00     0.309 C 
BRANCH   9  10
HETATM   10  C10 UNL     1      26.835   5.963  48.709  1.00  0.00    -0.030 A 
HETATM   11  C11 UNL     1      26.987   7.299  48.399  1.00  0.00     0.009 A 
HETATM   12  C12 UNL     1      28.239   7.714  47.941  1.00  0.00     0.001 A 
HETATM   13  C13 UNL     1      29.299   6.839  47.795  1.00  0.00     0.000 A 
HETATM   14  C14 UNL     1      29.097   5.502  48.119  1.00  0.00     0.001 A 
HETATM   15  C15 UNL     1      27.875   5.041  48.579  1.00  0.00     0.009 A 
ENDBRANCH   9  10
ENDBRANCH   7   9
ENDBRANCH   4   7
BRANCH   1  16
HETATM   16  N1  UNL     1      26.069   0.495  53.746  1.00  0.00    -0.379 N 
BRANCH  16  17
HETATM   17  C2  UNL     1      25.363  -0.759  53.676  1.00  0.00     0.138 C 
BRANCH  17  18
HETATM   18  C1  UNL     1      24.287  -0.889  54.734  1.00  0.00     0.134 C 
HETATM   19 CL1  UNL     1      22.724  -0.522  53.969  1.00  0.00    -0.129 Cl
ENDBRANCH  17  18
ENDBRANCH  16  17
BRANCH  16  20
HETATM   20  C3  UNL     1      26.871   0.451  54.945  1.00  0.00     0.138 C 
BRANCH  20  21
HETATM   21  C4  UNL     1      28.327   0.170  54.649  1.00  0.00     0.134 C 
HETATM   22 CL2  UNL     1      29.126   1.715  54.223  1.00  0.00    -0.129 Cl
ENDBRANCH  20  21
ENDBRANCH  16  20
ENDBRANCH   1  16
TORSDOF 8
ENDMDL
MODEL 7
REMARK VINA RESULT:      -6.2      3.077      6.589
REMARK  8 active torsions:
REMARK  status: ('A' for Active; 'I' for Inactive)
REMARK    1  A    between atoms: C1_2  and  C2_3 
REMARK    2  A    between atoms: C2_3  and  N1_4 
REMARK    3  A    between atoms: N1_4  and  C3_5 
REMARK    4  A    between atoms: N1_4  and  C5_8 
REMARK    5  A    between atoms: C3_5  and  C4_6 
REMARK    6  A    between atoms: C8_11  and  N2_12 
REMARK    7  A    between atoms: N2_12  and  C9_13 
REMARK    8  A    between atoms: C9_13  and  C10_14 
ROOT
HETATM    1  C5  UNL     1      24.790   2.968  51.206  1.00  0.00     0.026 A 
HETATM    2  C6  UNL     1      25.713   2.024  51.125  1.00  0.00     0.005 A 
HETATM    3  C7  UNL     1      26.441   1.182  52.116  1.00  0.00     0.069 A 
HETATM    4  C8  UNL     1      25.997   1.542  53.502  1.00  0.00     0.247 A 
HETATM    5  C16 UNL     1      24.954   2.612  53.520  1.00  0.00     0.011 A 
HETATM    6  C17 UNL     1      24.374   3.286  52.563  1.00  0.00     0.027 A 
ENDROOT
BRANCH   4   7
HETATM    7  N2  UNL     1      25.472   0.399  54.169  1.00  0.00     0.096 N 
HETATM    8  H13 UNL     1      24.743   0.656  54.860  1.00  0.00     0.317 HD
BRANCH   7   9
HETATM    9  C9  UNL     1      24.941  -0.629  53.301  1.00  0.00     0.309 C 
BRANCH   9  10
HETATM   10  C10 UNL     1      23.447  -0.574  53.504  1.00  0.00    -0.030 A 
HETATM   11  C11 UNL     1      22.851  -1.033  54.661  1.00  0.00     0.009 A 
HETATM   12  C12 UNL     1      21.461  -0.937  54.751  1.00  0.00     0.001 A 
HETATM   13  C13 UNL     1      20.690  -0.409  53.732  1.00  0.00     0.000 A 
HETATM   14  C14 UNL     1      21.336   0.039  52.585  1.00  0.00     0.001 A 
HETATM   15  C15 UNL     1      22.712  -0.032  52.447  1.00  0.00     0.009 A 
ENDBRANCH   9  10
ENDBRANCH   7   9
ENDBRANCH   4   7
BRANCH   1  16
HETATM   16  N1  UNL     1      24.221   3.655  50.098  1.00  0.00    -0.379 N 
BRANCH  16  17
HETATM   17  C2  UNL     1      23.419   2.884  49.181  1.00  0.00     0.138 C 
BRANCH  17  18
HETATM   18  C1  UNL     1      22.066   2.512  49.752  1.00  0.00     0.134 C 
HETATM   19 CL1  UNL     1      21.471   1.093  48.861  1.00  0.00    -0.129 Cl
ENDBRANCH  17  18
ENDBRANCH  16  17
BRANCH  16  20
HETATM   20  C3  UNL     1      24.227   5.010  49.603  1.00  0.00     0.138 C 
BRANCH  20  21
HETATM   21  C4  UNL     1      25.541   5.710  49.869  1.00  0.00     0.134 C 
HETATM   22 CL2  UNL     1      26.803   4.947  48.855  1.00  0.00    -0.129 Cl
ENDBRANCH  20  21
ENDBRANCH  16  20
ENDBRANCH   1  16
TORSDOF 8
ENDMDL
MODEL 8
REMARK VINA RESULT:      -6.2      2.221      2.897
REMARK  8 active torsions:
REMARK  status: ('A' for Active; 'I' for Inactive)
REMARK    1  A    between atoms: C1_2  and  C2_3 
REMARK    2  A    between atoms: C2_3  and  N1_4 
REMARK    3  A    between atoms: N1_4  and  C3_5 
REMARK    4  A    between atoms: N1_4  and  C5_8 
REMARK    5  A    between atoms: C3_5  and  C4_6 
REMARK    6  A    between atoms: C8_11  and  N2_12 
REMARK    7  A    between atoms: N2_12  and  C9_13 
REMARK    8  A    between atoms: C9_13  and  C10_14 
ROOT
HETATM    1  C5  UNL     1      23.525   1.905  52.536  1.00  0.00     0.026 A 
HETATM    2  C6  UNL     1      22.517   2.218  51.737  1.00  0.00     0.005 A 
HETATM    3  C7  UNL     1      21.893   3.494  51.289  1.00  0.00     0.069 A 
HETATM    4  C8  UNL     1      22.597   4.651  51.934  1.00  0.00     0.247 A 
HETATM    5  C16 UNL     1      23.722   4.227  52.820  1.00  0.00     0.011 A 
HETATM    6  C17 UNL     1      24.193   3.049  53.137  1.00  0.00     0.027 A 
ENDROOT
BRANCH   4   7
HETATM    7  N2  UNL     1      23.119   5.530  50.944  1.00  0.00     0.096 N 
HETATM    8  H13 UNL     1      24.044   5.912  51.215  1.00  0.00     0.317 HD
BRANCH   7   9
HETATM    9  C9  UNL     1      23.224   4.969  49.616  1.00  0.00     0.309 C 
BRANCH   9  10
HETATM   10  C10 UNL     1      24.705   4.903  49.339  1.00  0.00    -0.030 A 
HETATM   11  C11 UNL     1      25.406   5.993  48.862  1.00  0.00     0.009 A 
HETATM   12  C12 UNL     1      26.774   5.829  48.637  1.00  0.00     0.001 A 
HETATM   13  C13 UNL     1      27.424   4.632  48.875  1.00  0.00     0.000 A 
HETATM   14  C14 UNL     1      26.676   3.563  49.354  1.00  0.00     0.001 A 
HETATM   15  C15 UNL     1      25.316   3.674  49.594  1.00  0.00     0.009 A 
ENDBRANCH   9  10
ENDBRANCH   7   9
ENDBRANCH   4   7
BRANCH   1  16
HETATM   16  N1  UNL     1      23.959   0.582  52.826  1.00  0.00    -0.379 N 
BRANCH  16  17
HETATM   17  C2  UNL     1      25.349   0.276  52.597  1.00  0.00     0.138 C 
BRANCH  17  18
HETATM   18  C1  UNL     1      25.884  -0.777  53.546  1.00  0.00     0.134 C 
HETATM   19 CL1  UNL     1      26.853  -1.925  52.595  1.00  0.00    -0.129 Cl
ENDBRANCH  17  18
ENDBRANCH  16  17
BRANCH  16  20
HETATM   20  C3  UNL     1      23.346  -0.626  53.323  1.00  0.00     0.138 C 
BRANCH  20  21
HETATM   21  C4  UNL     1      22.266  -0.342  54.342  1.00  0.00     0.134 C 
HETATM   22 CL2  UNL     1      21.046  -1.649  54.253  1.00  0.00    -0.129 Cl
ENDBRANCH  20  21
ENDBRANCH  16  20
ENDBRANCH   1  16
TORSDOF 8
ENDMDL
MODEL 9
REMARK VINA RESULT:      -6.2      3.219      5.313
REMARK  8 active torsions:
REMARK  status: ('A' for Active; 'I' for Inactive)
REMARK    1  A    between atoms: C1_2  and  C2_3 
REMARK    2  A    between atoms: C2_3  and  N1_4 
REMARK    3  A    between atoms: N1_4  and  C3_5 
REMARK    4  A    between atoms: N1_4  and  C5_8 
REMARK    5  A    between atoms: C3_5  and  C4_6 
REMARK    6  A    between atoms: C8_11  and  N2_12 
REMARK    7  A    between atoms: N2_12  and  C9_13 
REMARK    8  A    between atoms: C9_13  and  C10_14 
ROOT
HETATM    1  C5  UNL     1      22.762   1.586  52.181  1.00  0.00     0.026 A 
HETATM    2  C6  UNL     1      23.095   1.808  50.919  1.00  0.00     0.005 A 
HETATM    3  C7  UNL     1      23.970   2.793  50.224  1.00  0.00     0.069 A 
HETATM    4  C8  UNL     1      24.568   3.730  51.231  1.00  0.00     0.247 A 
HETATM    5  C16 UNL     1      24.152   3.422  52.632  1.00  0.00     0.011 A 
HETATM    6  C17 UNL     1      23.367   2.505  53.132  1.00  0.00     0.027 A 
ENDROOT
BRANCH   4   7
HETATM    7  N2  UNL     1      25.990   3.683  51.169  1.00  0.00     0.096 N 
HETATM    8  H13 UNL     1      26.421   3.819  52.103  1.00  0.00     0.317 HD
BRANCH   7   9
HETATM    9  C9  UNL     1      26.541   2.485  50.577  1.00  0.00     0.309 C 
BRANCH   9  10
HETATM   10  C10 UNL     1      26.919   1.612  51.748  1.00  0.00    -0.030 A 
HETATM   11  C11 UNL     1      26.531   0.290  51.825  1.00  0.00     0.009 A 
HETATM   12  C12 UNL     1      26.932  -0.434  52.950  1.00  0.00     0.001 A 
HETATM   13  C13 UNL     1      27.688   0.132  53.961  1.00  0.00     0.000 A 
HETATM   14  C14 UNL     1      28.054   1.468  53.838  1.00  0.00     0.001 A 
HETATM   15  C15 UNL     1      27.682   2.228  52.742  1.00  0.00     0.009 A 
ENDBRANCH   9  10
ENDBRANCH   7   9
ENDBRANCH   4   7
BRANCH   1  16
HETATM   16  N1  UNL     1      21.886   0.559  52.628  1.00  0.00    -0.379 N 
BRANCH  16  17
HETATM   17  C2  UNL     1      20.514   0.921  52.881  1.00  0.00     0.138 C 
BRANCH  17  18
HETATM   18  C1  UNL     1      19.534   0.153  52.018  1.00  0.00     0.134 C 
HETATM   19 CL1  UNL     1      19.645   0.798  50.364  1.00  0.00    -0.129 Cl
ENDBRANCH  17  18
ENDBRANCH  16  17
BRANCH  16  20
HETATM   20  C3  UNL     1      22.002  -0.849  52.921  1.00  0.00     0.138 C 
BRANCH  20  21
HETATM   21  C4  UNL     1      22.199  -1.112  54.397  1.00  0.00     0.134 C 
HETATM   22 CL2  UNL     1      23.933  -0.894  54.783  1.00  0.00    -0.129 Cl
ENDBRANCH  20  21
ENDBRANCH  16  20
ENDBRANCH   1  16
TORSDOF 8
ENDMDL
