MODEL 1
REMARK VINA RESULT:      -7.5      0.000      0.000
REMARK  0 active torsions:
REMARK  status: ('A' for Active; 'I' for Inactive)
ROOT
HETATM    1  C1  UNL     1      21.424   5.762  50.456  1.00  0.00     0.072 C 
HETATM    2  C2  UNL     1      21.826   4.421  50.969  1.00  0.00     0.056 C 
HETATM    3  C3  UNL     1      22.779   3.599  50.566  1.00  0.00     0.202 C 
HETATM    4  O1  UNL     1      23.668   2.575  50.368  1.00  0.00    -0.208 OA
HETATM    5  O2  UNL     1      24.349   1.992  51.348  1.00  0.00    -0.232 OA
HETATM    6  C4  UNL     1      25.643   2.507  51.455  1.00  0.00     0.238 C 
HETATM    7  C5  UNL     1      26.418   1.724  52.432  1.00  0.00     0.017 C 
HETATM    8  C6  UNL     1      26.507   0.704  53.321  1.00  0.00    -0.008 C 
HETATM    9 BR1  UNL     1      28.227   0.496  54.212  1.00  0.00    -0.056 Br
HETATM   10  C7  UNL     1      25.144   0.108  53.256  1.00  0.00     0.040 C 
HETATM   11  C8  UNL     1      24.306  -0.854  53.713  1.00  0.00     0.014 C 
HETATM   12  C9  UNL     1      22.960  -0.785  53.103  1.00  0.00     0.132 C 
HETATM   13  S1  UNL     1      21.765  -0.549  54.411  1.00  0.00     0.089 S 
HETATM   14  O3  UNL     1      21.948  -1.651  55.430  1.00  0.00    -0.241 OA
HETATM   15  N1  UNL     1      20.135  -0.439  53.836  1.00  0.00    -0.242 NA
HETATM   16  C10 UNL     1      20.006   0.474  52.720  1.00  0.00     0.108 C 
HETATM   17  C11 UNL     1      20.504   1.828  53.248  1.00  0.00     0.087 C 
HETATM   18  C12 UNL     1      20.489   2.860  52.215  1.00  0.00     0.105 C 
HETATM   19 CL1  UNL     1      18.793   2.920  51.755  1.00  0.00    -0.067 Cl
HETATM   20  N2  UNL     1      21.580   3.426  51.905  1.00  0.00    -0.244 NA
HETATM   21  H12 UNL     1      19.553  -0.104  54.635  1.00  0.00     0.137 HD
ENDROOT
TORSDOF 0
ENDMDL
MODEL 2
REMARK VINA RESULT:      -7.4      3.251      4.698
REMARK  0 active torsions:
REMARK  status: ('A' for Active; 'I' for Inactive)
ROOT
HETATM    1  C1  UNL     1      18.827   0.255  51.922  1.00  0.00     0.072 C 
HETATM    2  C2  UNL     1      20.295   0.495  51.818  1.00  0.00     0.056 C 
HETATM    3  C3  UNL     1      21.060   0.680  50.757  1.00  0.00     0.202 C 
HETATM    4  O1  UNL     1      22.071   0.895  49.856  1.00  0.00    -0.208 OA
HETATM    5  O2  UNL     1      22.986   1.848  49.991  1.00  0.00    -0.232 OA
HETATM    6  C4  UNL     1      22.668   2.979  49.237  1.00  0.00     0.238 C 
HETATM    7  C5  UNL     1      23.783   3.941  49.276  1.00  0.00     0.017 C 
HETATM    8  C6  UNL     1      25.023   4.292  49.699  1.00  0.00    -0.008 C 
HETATM    9 BR1  UNL     1      25.668   6.030  49.099  1.00  0.00    -0.056 Br
HETATM   10  C7  UNL     1      25.422   3.116  50.521  1.00  0.00     0.040 C 
HETATM   11  C8  UNL     1      26.379   2.547  51.293  1.00  0.00     0.014 C 
HETATM   12  C9  UNL     1      25.989   1.217  51.810  1.00  0.00     0.132 C 
HETATM   13  S1  UNL     1      26.020   1.281  53.596  1.00  0.00     0.089 S 
HETATM   14  O3  UNL     1      27.385   1.761  54.033  1.00  0.00    -0.241 OA
HETATM   15  N1  UNL     1      25.570  -0.216  54.342  1.00  0.00    -0.242 NA
HETATM   16  C10 UNL     1      24.360  -0.772  53.772  1.00  0.00     0.108 C 
HETATM   17  C11 UNL     1      23.283   0.303  53.984  1.00  0.00     0.087 C 
HETATM   18  C12 UNL     1      21.999  -0.086  53.410  1.00  0.00     0.105 C 
HETATM   19 CL1  UNL     1      21.623  -1.569  54.276  1.00  0.00    -0.067 Cl
HETATM   20  N2  UNL     1      21.488   0.647  52.510  1.00  0.00    -0.244 NA
HETATM   21  H12 UNL     1      25.423  -0.017  55.356  1.00  0.00     0.137 HD
ENDROOT
TORSDOF 0
ENDMDL
MODEL 3
REMARK VINA RESULT:      -7.3      3.530      5.221
REMARK  0 active torsions:
REMARK  status: ('A' for Active; 'I' for Inactive)
ROOT
HETATM    1  C1  UNL     1      27.066  -0.139  53.981  1.00  0.00     0.072 C 
HETATM    2  C2  UNL     1      25.713   0.310  53.543  1.00  0.00     0.056 C 
HETATM    3  C3  UNL     1      25.297   1.490  53.119  1.00  0.00     0.202 C 
HETATM    4  O1  UNL     1      24.604   2.578  52.656  1.00  0.00    -0.208 OA
HETATM    5  O2  UNL     1      23.772   2.535  51.620  1.00  0.00    -0.232 OA
HETATM    6  C4  UNL     1      24.386   2.979  50.447  1.00  0.00     0.238 C 
HETATM    7  C5  UNL     1      23.392   3.077  49.365  1.00  0.00     0.017 C 
HETATM    8  C6  UNL     1      22.119   2.946  48.918  1.00  0.00    -0.008 C 
HETATM    9 BR1  UNL     1      21.821   3.399  47.047  1.00  0.00    -0.056 Br
HETATM   10  C7  UNL     1      21.405   2.467  50.133  1.00  0.00     0.040 C 
HETATM   11  C8  UNL     1      20.224   2.082  50.674  1.00  0.00     0.014 C 
HETATM   12  C9  UNL     1      20.336   1.707  52.101  1.00  0.00     0.132 C 
HETATM   13  S1  UNL     1      19.809   0.008  52.277  1.00  0.00     0.089 S 
HETATM   14  O3  UNL     1      18.422  -0.124  51.690  1.00  0.00    -0.241 OA
HETATM   15  N1  UNL     1      19.900  -0.571  53.906  1.00  0.00    -0.242 NA
HETATM   16  C10 UNL     1      21.169  -0.258  54.531  1.00  0.00     0.108 C 
HETATM   17  C11 UNL     1      22.230  -0.924  53.641  1.00  0.00     0.087 C 
HETATM   18  C12 UNL     1      23.586  -0.655  54.111  1.00  0.00     0.105 C 
HETATM   19 CL1  UNL     1      23.574  -1.331  55.733  1.00  0.00    -0.067 Cl
HETATM   20  N2  UNL     1      24.391  -0.057  53.335  1.00  0.00    -0.244 NA
HETATM   21  H12 UNL     1      19.772  -1.607  53.868  1.00  0.00     0.137 HD
ENDROOT
TORSDOF 0
ENDMDL
MODEL 4
REMARK VINA RESULT:      -7.2      2.104      4.574
REMARK  0 active torsions:
REMARK  status: ('A' for Active; 'I' for Inactive)
ROOT
HETATM    1  C1  UNL     1      18.020  -1.090  52.857  1.00  0.00     0.072 C 
HETATM    2  C2  UNL     1      19.230  -0.218  52.865  1.00  0.00     0.056 C 
HETATM    3  C3  UNL     1      20.205  -0.114  53.750  1.00  0.00     0.202 C 
HETATM    4  O1  UNL     1      21.322   0.198  54.480  1.00  0.00    -0.208 OA
HETATM    5  O2  UNL     1      22.539   0.304  53.956  1.00  0.00    -0.232 OA
HETATM    6  C4  UNL     1      23.283  -0.863  54.139  1.00  0.00     0.238 C 
HETATM    7  C5  UNL     1      24.672  -0.649  53.699  1.00  0.00     0.017 C 
HETATM    8  C6  UNL     1      25.634   0.154  53.181  1.00  0.00    -0.008 C 
HETATM    9 BR1  UNL     1      27.396  -0.651  52.974  1.00  0.00    -0.056 Br
HETATM   10  C7  UNL     1      24.897   1.428  52.958  1.00  0.00     0.040 C 
HETATM   11  C8  UNL     1      24.958   2.710  52.523  1.00  0.00     0.014 C 
HETATM   12  C9  UNL     1      23.664   3.419  52.630  1.00  0.00     0.132 C 
HETATM   13  S1  UNL     1      23.183   3.956  50.995  1.00  0.00     0.089 S 
HETATM   14  O3  UNL     1      24.312   4.774  50.410  1.00  0.00    -0.241 OA
HETATM   15  N1  UNL     1      21.669   4.797  50.969  1.00  0.00    -0.242 NA
HETATM   16  C10 UNL     1      20.640   4.098  51.709  1.00  0.00     0.108 C 
HETATM   17  C11 UNL     1      20.525   2.721  51.036  1.00  0.00     0.087 C 
HETATM   18  C12 UNL     1      19.552   1.863  51.706  1.00  0.00     0.105 C 
HETATM   19 CL1  UNL     1      18.063   2.785  51.567  1.00  0.00    -0.067 Cl
HETATM   20  N2  UNL     1      19.947   0.759  52.191  1.00  0.00    -0.244 NA
HETATM   21  H12 UNL     1      21.388   4.883  49.967  1.00  0.00     0.137 HD
ENDROOT
TORSDOF 0
ENDMDL
MODEL 5
REMARK VINA RESULT:      -7.2      3.658      5.125
REMARK  0 active torsions:
REMARK  status: ('A' for Active; 'I' for Inactive)
ROOT
HETATM    1  C1  UNL     1      19.736   5.485  48.281  1.00  0.00     0.072 C 
HETATM    2  C2  UNL     1      20.740   4.913  49.223  1.00  0.00     0.056 C 
HETATM    3  C3  UNL     1      20.659   4.669  50.519  1.00  0.00     0.202 C 
HETATM    4  O1  UNL     1      20.851   4.319  51.830  1.00  0.00    -0.208 OA
HETATM    5  O2  UNL     1      21.388   3.165  52.213  1.00  0.00    -0.232 OA
HETATM    6  C4  UNL     1      20.409   2.233  52.566  1.00  0.00     0.238 C 
HETATM    7  C5  UNL     1      21.040   1.034  53.143  1.00  0.00     0.017 C 
HETATM    8  C6  UNL     1      22.149   0.351  53.520  1.00  0.00    -0.008 C 
HETATM    9 BR1  UNL     1      21.845  -1.413  54.289  1.00  0.00    -0.056 Br
HETATM   10  C7  UNL     1      23.241   1.299  53.164  1.00  0.00     0.040 C 
HETATM   11  C8  UNL     1      24.575   1.533  53.144  1.00  0.00     0.014 C 
HETATM   12  C9  UNL     1      24.923   2.852  52.571  1.00  0.00     0.132 C 
HETATM   13  S1  UNL     1      25.976   2.585  51.152  1.00  0.00     0.089 S 
HETATM   14  O3  UNL     1      27.158   1.747  51.585  1.00  0.00    -0.241 OA
HETATM   15  N1  UNL     1      26.454   4.054  50.369  1.00  0.00    -0.242 NA
HETATM   16  C10 UNL     1      25.335   4.944  50.139  1.00  0.00     0.108 C 
HETATM   17  C11 UNL     1      24.355   4.141  49.269  1.00  0.00     0.087 C 
HETATM   18  C12 UNL     1      23.133   4.889  48.989  1.00  0.00     0.105 C 
HETATM   19 CL1  UNL     1      23.734   6.313  48.153  1.00  0.00    -0.067 Cl
HETATM   20  N2  UNL     1      22.023   4.404  49.367  1.00  0.00    -0.244 NA
HETATM   21  H12 UNL     1      26.885   3.786  49.456  1.00  0.00     0.137 HD
ENDROOT
TORSDOF 0
ENDMDL
MODEL 6
REMARK VINA RESULT:      -7.2      3.211      4.138
REMARK  0 active torsions:
REMARK  status: ('A' for Active; 'I' for Inactive)
ROOT
HETATM    1  C1  UNL     1      26.393   8.084  49.975  1.00  0.00     0.072 C 
HETATM    2  C2  UNL     1      25.566   6.860  50.170  1.00  0.00     0.056 C 
HETATM    3  C3  UNL     1      25.756   5.621  49.749  1.00  0.00     0.202 C 
HETATM    4  O1  UNL     1      25.697   4.285  49.453  1.00  0.00    -0.208 OA
HETATM    5  O2  UNL     1      25.416   3.344  50.349  1.00  0.00    -0.232 OA
HETATM    6  C4  UNL     1      26.573   2.736  50.840  1.00  0.00     0.238 C 
HETATM    7  C5  UNL     1      26.216   1.591  51.696  1.00  0.00     0.017 C 
HETATM    8  C6  UNL     1      25.281   0.797  52.272  1.00  0.00    -0.008 C 
HETATM    9 BR1  UNL     1      25.961  -0.650  53.386  1.00  0.00    -0.056 Br
HETATM   10  C7  UNL     1      24.010   1.400  51.787  1.00  0.00     0.040 C 
HETATM   11  C8  UNL     1      22.656   1.346  51.793  1.00  0.00     0.014 C 
HETATM   12  C9  UNL     1      22.031   2.411  50.978  1.00  0.00     0.132 C 
HETATM   13  S1  UNL     1      20.984   3.390  52.045  1.00  0.00     0.089 S 
HETATM   14  O3  UNL     1      20.011   2.464  52.740  1.00  0.00    -0.241 OA
HETATM   15  N1  UNL     1      20.191   4.690  51.220  1.00  0.00    -0.242 NA
HETATM   16  C10 UNL     1      21.103   5.453  50.393  1.00  0.00     0.108 C 
HETATM   17  C11 UNL     1      22.179   5.977  51.356  1.00  0.00     0.087 C 
HETATM   18  C12 UNL     1      23.217   6.732  50.661  1.00  0.00     0.105 C 
HETATM   19 CL1  UNL     1      22.310   8.042  49.918  1.00  0.00    -0.067 Cl
HETATM   20  N2  UNL     1      24.416   6.326  50.733  1.00  0.00    -0.244 NA
HETATM   21  H12 UNL     1      19.779   5.309  51.953  1.00  0.00     0.137 HD
ENDROOT
TORSDOF 0
ENDMDL
MODEL 7
REMARK VINA RESULT:      -6.8      4.214      6.734
REMARK  0 active torsions:
REMARK  status: ('A' for Active; 'I' for Inactive)
ROOT
HETATM    1  C1  UNL     1      22.117  -0.832  54.695  1.00  0.00     0.072 C 
HETATM    2  C2  UNL     1      22.517   0.024  53.542  1.00  0.00     0.056 C 
HETATM    3  C3  UNL     1      22.038   0.084  52.312  1.00  0.00     0.202 C 
HETATM    4  O1  UNL     1      21.747   0.355  51.000  1.00  0.00    -0.208 OA
HETATM    5  O2  UNL     1      21.615   1.585  50.515  1.00  0.00    -0.232 OA
HETATM    6  C4  UNL     1      20.274   1.967  50.433  1.00  0.00     0.238 C 
HETATM    7  C5  UNL     1      20.159   3.260  49.737  1.00  0.00     0.017 C 
HETATM    8  C6  UNL     1      20.733   4.314  49.106  1.00  0.00    -0.008 C 
HETATM    9 BR1  UNL     1      19.513   5.693  48.469  1.00  0.00    -0.056 Br
HETATM   10  C7  UNL     1      22.180   3.967  49.162  1.00  0.00     0.040 C 
HETATM   11  C8  UNL     1      23.445   4.333  48.844  1.00  0.00     0.014 C 
HETATM   12  C9  UNL     1      24.460   3.353  49.289  1.00  0.00     0.132 C 
HETATM   13  S1  UNL     1      25.585   4.182  50.403  1.00  0.00     0.089 S 
HETATM   14  O3  UNL     1      26.140   5.401  49.702  1.00  0.00    -0.241 OA
HETATM   15  N1  UNL     1      26.829   3.144  51.016  1.00  0.00    -0.242 NA
HETATM   16  C10 UNL     1      26.303   1.886  51.504  1.00  0.00     0.108 C 
HETATM   17  C11 UNL     1      25.301   2.267  52.605  1.00  0.00     0.087 C 
HETATM   18  C12 UNL     1      24.636   1.097  53.170  1.00  0.00     0.105 C 
HETATM   19 CL1  UNL     1      25.978   0.157  53.804  1.00  0.00    -0.067 Cl
HETATM   20  N2  UNL     1      23.372   1.019  53.090  1.00  0.00    -0.244 NA
HETATM   21  H12 UNL     1      27.296   3.658  51.796  1.00  0.00     0.137 HD
ENDROOT
TORSDOF 0
ENDMDL
MODEL 8
REMARK VINA RESULT:      -6.2      3.803      5.173
REMARK  0 active torsions:
REMARK  status: ('A' for Active; 'I' for Inactive)
ROOT
HETATM    1  C1  UNL     1      21.083   4.439  48.309  1.00  0.00     0.072 C 
HETATM    2  C2  UNL     1      21.180   3.598  49.536  1.00  0.00     0.056 C 
HETATM    3  C3  UNL     1      20.319   3.417  50.522  1.00  0.00     0.202 C 
HETATM    4  O1  UNL     1      19.635   3.050  51.651  1.00  0.00    -0.208 OA
HETATM    5  O2  UNL     1      19.525   1.794  52.069  1.00  0.00    -0.232 OA
HETATM    6  C4  UNL     1      18.310   1.225  51.681  1.00  0.00     0.238 C 
HETATM    7  C5  UNL     1      18.152  -0.101  52.303  1.00  0.00     0.017 C 
HETATM    8  C6  UNL     1      18.620  -1.091  53.102  1.00  0.00    -0.008 C 
HETATM    9 BR1  UNL     1      17.471  -2.653  53.284  1.00  0.00    -0.056 Br
HETATM   10  C7  UNL     1      19.929  -0.543  53.552  1.00  0.00     0.040 C 
HETATM   11  C8  UNL     1      21.045  -0.743  54.294  1.00  0.00     0.014 C 
HETATM   12  C9  UNL     1      21.996   0.388  54.224  1.00  0.00     0.132 C 
HETATM   13  S1  UNL     1      23.546  -0.225  53.578  1.00  0.00     0.089 S 
HETATM   14  O3  UNL     1      23.996  -1.384  54.438  1.00  0.00    -0.241 OA
HETATM   15  N1  UNL     1      24.759   1.003  53.430  1.00  0.00    -0.242 NA
HETATM   16  C10 UNL     1      24.256   2.196  52.780  1.00  0.00     0.108 C 
HETATM   17  C11 UNL     1      23.765   1.727  51.402  1.00  0.00     0.087 C 
HETATM   18  C12 UNL     1      23.172   2.816  50.631  1.00  0.00     0.105 C 
HETATM   19 CL1  UNL     1      24.498   3.962  50.498  1.00  0.00    -0.067 Cl
HETATM   20  N2  UNL     1      21.962   2.713  50.265  1.00  0.00    -0.244 NA
HETATM   21  H12 UNL     1      25.536   0.595  52.865  1.00  0.00     0.137 HD
ENDROOT
TORSDOF 0
ENDMDL
MODEL 9
REMARK VINA RESULT:      -6.1      3.459      4.339
REMARK  0 active torsions:
REMARK  status: ('A' for Active; 'I' for Inactive)
ROOT
HETATM    1  C1  UNL     1      24.610   7.243  50.789  1.00  0.00     0.072 C 
HETATM    2  C2  UNL     1      23.923   5.930  50.629  1.00  0.00     0.056 C 
HETATM    3  C3  UNL     1      24.406   4.700  50.660  1.00  0.00     0.202 C 
HETATM    4  O1  UNL     1      24.626   3.348  50.643  1.00  0.00    -0.208 OA
HETATM    5  O2  UNL     1      23.876   2.473  51.305  1.00  0.00    -0.232 OA
HETATM    6  C4  UNL     1      24.459   2.108  52.520  1.00  0.00     0.238 C 
HETATM    7  C5  UNL     1      23.690   1.017  53.142  1.00  0.00     0.017 C 
HETATM    8  C6  UNL     1      22.649   0.148  53.122  1.00  0.00    -0.008 C 
HETATM    9 BR1  UNL     1      22.509  -1.050  54.651  1.00  0.00    -0.056 Br
HETATM   10  C7  UNL     1      21.977   0.490  51.838  1.00  0.00     0.040 C 
HETATM   11  C8  UNL     1      20.954   0.224  50.990  1.00  0.00     0.014 C 
HETATM   12  C9  UNL     1      20.961   1.087  49.787  1.00  0.00     0.132 C 
HETATM   13  S1  UNL     1      19.422   1.993  49.742  1.00  0.00     0.089 S 
HETATM   14  O3  UNL     1      18.281   1.003  49.810  1.00  0.00    -0.241 OA
HETATM   15  N1  UNL     1      19.296   3.060  48.383  1.00  0.00    -0.242 NA
HETATM   16  C10 UNL     1      20.485   3.867  48.206  1.00  0.00     0.108 C 
HETATM   17  C11 UNL     1      20.638   4.651  49.518  1.00  0.00     0.087 C 
HETATM   18  C12 UNL     1      21.837   5.485  49.522  1.00  0.00     0.105 C 
HETATM   19 CL1  UNL     1      21.571   6.551  48.150  1.00  0.00    -0.067 Cl
HETATM   20  N2  UNL     1      22.715   5.283  50.415  1.00  0.00    -0.244 NA
HETATM   21  H12 UNL     1      18.473   3.677  48.557  1.00  0.00     0.137 HD
ENDROOT
TORSDOF 0
ENDMDL
