MODEL 1
REMARK VINA RESULT:      -8.7      0.000      0.000
REMARK  5 active torsions:
REMARK  status: ('A' for Active; 'I' for Inactive)
REMARK    1  A    between atoms: N1_1  and  C1_2 
REMARK    2  A    between atoms: C2_3  and  C3_4 
REMARK       I    between atoms: C3_4  and  N2_6 
REMARK    3  A    between atoms: N2_6  and  C4_7 
REMARK    4  A    between atoms: C9_14  and  N5_15 
REMARK    5  A    between atoms: N5_15  and  C10_16 
ROOT
HETATM    1  C4  UNL     1      24.791  -0.754  54.336  1.00  0.00     0.036 A 
HETATM    2  C5  UNL     1      23.936  -1.321  55.246  1.00  0.00     0.032 A 
HETATM    3  C6  UNL     1      22.560  -1.276  55.192  1.00  0.00     0.035 A 
HETATM    4  C7  UNL     1      22.025  -0.602  54.131  1.00  0.00     0.072 A 
HETATM    5  N3  UNL     1      20.660  -0.550  54.071  1.00  0.00    -0.241 NA
HETATM    6  C8  UNL     1      20.032   0.087  53.075  1.00  0.00     0.236 A 
HETATM    7  N4  UNL     1      20.814   0.660  52.156  1.00  0.00    -0.224 NA
HETATM    8  C9  UNL     1      22.151   0.653  52.145  1.00  0.00     0.142 A 
HETATM    9  C16 UNL     1      22.807   0.004  53.162  1.00  0.00     0.041 A 
HETATM   10  C17 UNL     1      24.156  -0.096  53.304  1.00  0.00     0.047 A 
ENDROOT
BRANCH   1  11
HETATM   11  N2  UNL     1      26.185  -0.773  54.355  1.00  0.00    -0.324 N 
HETATM   12  C3  UNL     1      27.097   0.257  54.678  1.00  0.00     0.247 C 
HETATM   13  O1  UNL     1      26.633   1.372  55.002  1.00  0.00    -0.268 OA
HETATM   14  H5  UNL     1      26.715  -1.642  54.105  1.00  0.00     0.169 HD
BRANCH  12  15
HETATM   15  C2  UNL     1      28.547   0.131  54.666  1.00  0.00     0.091 C 
HETATM   16  C1  UNL     1      29.264   1.147  54.242  1.00  0.00     0.086 C 
BRANCH  16  17
HETATM   17  N1  UNL     1      29.205   2.470  53.733  1.00  0.00    -0.408 N 
HETATM   18  H1  UNL     1      28.438   3.175  53.893  1.00  0.00     0.155 HD
HETATM   19  H2  UNL     1      29.927   2.941  53.117  1.00  0.00     0.155 HD
ENDBRANCH  16  17
ENDBRANCH  12  15
ENDBRANCH   1  11
BRANCH   8  20
HETATM   20  N5  UNL     1      22.897   1.284  51.144  1.00  0.00    -0.340 N 
HETATM   21  H9  UNL     1      23.196   0.797  50.283  1.00  0.00     0.167 HD
BRANCH  20  22
HETATM   22  C10 UNL     1      23.389   2.618  51.047  1.00  0.00     0.035 A 
HETATM   23  C11 UNL     1      22.804   3.760  51.610  1.00  0.00     0.029 A 
HETATM   24  C12 UNL     1      23.331   5.006  51.463  1.00  0.00     0.004 A 
HETATM   25  C13 UNL     1      24.479   5.230  50.748  1.00  0.00     0.019 A 
HETATM   26  C14 UNL     1      25.113   4.146  50.161  1.00  0.00     0.013 A 
HETATM   27 BR1  UNL     1      26.689   4.511  49.189  1.00  0.00    -0.051 Br
HETATM   28  C15 UNL     1      24.533   2.915  50.345  1.00  0.00     0.048 A 
ENDBRANCH  20  22
ENDBRANCH   8  20
TORSDOF 5
ENDMDL
MODEL 2
REMARK VINA RESULT:      -8.3      2.715      4.006
REMARK  5 active torsions:
REMARK  status: ('A' for Active; 'I' for Inactive)
REMARK    1  A    between atoms: N1_1  and  C1_2 
REMARK    2  A    between atoms: C2_3  and  C3_4 
REMARK       I    between atoms: C3_4  and  N2_6 
REMARK    3  A    between atoms: N2_6  and  C4_7 
REMARK    4  A    between atoms: C9_14  and  N5_15 
REMARK    5  A    between atoms: N5_15  and  C10_16 
ROOT
HETATM    1  C4  UNL     1      26.195   0.693  52.505  1.00  0.00     0.036 A 
HETATM    2  C5  UNL     1      25.057   0.597  53.262  1.00  0.00     0.032 A 
HETATM    3  C6  UNL     1      23.911   1.343  53.088  1.00  0.00     0.035 A 
HETATM    4  C7  UNL     1      23.936   2.249  52.066  1.00  0.00     0.072 A 
HETATM    5  N3  UNL     1      22.804   2.995  51.888  1.00  0.00    -0.241 NA
HETATM    6  C8  UNL     1      22.723   3.913  50.917  1.00  0.00     0.236 A 
HETATM    7  N4  UNL     1      23.804   4.051  50.144  1.00  0.00    -0.224 NA
HETATM    8  C9  UNL     1      24.944   3.362  50.255  1.00  0.00     0.142 A 
HETATM    9  C16 UNL     1      25.041   2.417  51.247  1.00  0.00     0.041 A 
HETATM   10  C17 UNL     1      26.124   1.635  51.500  1.00  0.00     0.047 A 
ENDROOT
BRANCH   1  11
HETATM   11  N2  UNL     1      27.375  -0.037  52.648  1.00  0.00    -0.324 N 
HETATM   12  C3  UNL     1      28.375   0.050  53.642  1.00  0.00     0.247 C 
HETATM   13  O1  UNL     1      28.226   0.896  54.551  1.00  0.00    -0.268 OA
HETATM   14  H5  UNL     1      27.634  -0.783  51.959  1.00  0.00     0.169 HD
BRANCH  12  15
HETATM   15  C2  UNL     1      29.577  -0.767  53.700  1.00  0.00     0.091 C 
HETATM   16  C1  UNL     1      29.477  -2.054  53.447  1.00  0.00     0.086 C 
BRANCH  16  17
HETATM   17  N1  UNL     1      28.580  -3.096  53.098  1.00  0.00    -0.408 N 
HETATM   18  H1  UNL     1      27.886  -3.093  52.305  1.00  0.00     0.155 HD
HETATM   19  H2  UNL     1      28.479  -4.031  53.587  1.00  0.00     0.155 HD
ENDBRANCH  16  17
ENDBRANCH  12  15
ENDBRANCH   1  11
BRANCH   8  20
HETATM   20  N5  UNL     1      26.034   3.573  49.404  1.00  0.00    -0.340 N 
HETATM   21  H9  UNL     1      26.536   2.798  48.941  1.00  0.00     0.167 HD
BRANCH  20  22
HETATM   22  C10 UNL     1      26.675   4.776  48.989  1.00  0.00     0.035 A 
HETATM   23  C11 UNL     1      26.071   6.033  48.855  1.00  0.00     0.029 A 
HETATM   24  C12 UNL     1      26.752   7.138  48.442  1.00  0.00     0.004 A 
HETATM   25  C13 UNL     1      28.085   7.093  48.126  1.00  0.00     0.019 A 
HETATM   26  C14 UNL     1      28.750   5.882  48.235  1.00  0.00     0.013 A 
HETATM   27 BR1  UNL     1      30.583   5.878  47.788  1.00  0.00    -0.051 Br
HETATM   28  C15 UNL     1      28.009   4.805  48.657  1.00  0.00     0.048 A 
ENDBRANCH  20  22
ENDBRANCH   8  20
TORSDOF 5
ENDMDL
MODEL 3
REMARK VINA RESULT:      -8.3      1.706      2.307
REMARK  5 active torsions:
REMARK  status: ('A' for Active; 'I' for Inactive)
REMARK    1  A    between atoms: N1_1  and  C1_2 
REMARK    2  A    between atoms: C2_3  and  C3_4 
REMARK       I    between atoms: C3_4  and  N2_6 
REMARK    3  A    between atoms: N2_6  and  C4_7 
REMARK    4  A    between atoms: C9_14  and  N5_15 
REMARK    5  A    between atoms: N5_15  and  C10_16 
ROOT
HETATM    1  C4  UNL     1      25.203  -0.003  52.936  1.00  0.00     0.036 A 
HETATM    2  C5  UNL     1      24.265  -0.551  53.772  1.00  0.00     0.032 A 
HETATM    3  C6  UNL     1      22.942  -0.177  53.851  1.00  0.00     0.035 A 
HETATM    4  C7  UNL     1      22.554   0.830  53.012  1.00  0.00     0.072 A 
HETATM    5  N3  UNL     1      21.243   1.210  53.085  1.00  0.00    -0.241 NA
HETATM    6  C8  UNL     1      20.760   2.187  52.309  1.00  0.00     0.236 A 
HETATM    7  N4  UNL     1      21.628   2.760  51.470  1.00  0.00    -0.224 NA
HETATM    8  C9  UNL     1      22.921   2.445  51.341  1.00  0.00     0.142 A 
HETATM    9  C16 UNL     1      23.430   1.444  52.132  1.00  0.00     0.041 A 
HETATM   10  C17 UNL     1      24.717   1.004  52.130  1.00  0.00     0.047 A 
ENDROOT
BRANCH   1  11
HETATM   11  N2  UNL     1      26.550  -0.350  52.828  1.00  0.00    -0.324 N 
HETATM   12  C3  UNL     1      27.559  -0.369  53.816  1.00  0.00     0.247 C 
HETATM   13  O1  UNL     1      27.247  -0.033  54.980  1.00  0.00    -0.268 OA
HETATM   14  H5  UNL     1      26.956  -0.653  51.910  1.00  0.00     0.169 HD
BRANCH  12  15
HETATM   15  C2  UNL     1      28.945  -0.751  53.596  1.00  0.00     0.091 C 
HETATM   16  C1  UNL     1      29.217  -2.008  53.322  1.00  0.00     0.086 C 
BRANCH  16  17
HETATM   17  N1  UNL     1      28.654  -3.296  53.126  1.00  0.00    -0.408 N 
HETATM   18  H1  UNL     1      28.599  -4.076  53.834  1.00  0.00     0.155 HD
HETATM   19  H2  UNL     1      28.204  -3.659  52.238  1.00  0.00     0.155 HD
ENDBRANCH  16  17
ENDBRANCH  12  15
ENDBRANCH   1  11
BRANCH   8  20
HETATM   20  N5  UNL     1      23.766   3.099  50.439  1.00  0.00    -0.340 N 
HETATM   21  H9  UNL     1      24.132   2.642  49.588  1.00  0.00     0.167 HD
BRANCH  20  22
HETATM   22  C10 UNL     1      24.291   4.424  50.444  1.00  0.00     0.035 A 
HETATM   23  C11 UNL     1      23.829   5.496  51.220  1.00  0.00     0.029 A 
HETATM   24  C12 UNL     1      24.378   6.740  51.161  1.00  0.00     0.004 A 
HETATM   25  C13 UNL     1      25.429   7.031  50.329  1.00  0.00     0.019 A 
HETATM   26  C14 UNL     1      25.939   6.019  49.531  1.00  0.00     0.013 A 
HETATM   27 BR1  UNL     1      27.384   6.476  48.406  1.00  0.00    -0.051 Br
HETATM   28  C15 UNL     1      25.342   4.787  49.636  1.00  0.00     0.048 A 
ENDBRANCH  20  22
ENDBRANCH   8  20
TORSDOF 5
ENDMDL
MODEL 4
REMARK VINA RESULT:      -8.1      1.900      5.336
REMARK  5 active torsions:
REMARK  status: ('A' for Active; 'I' for Inactive)
REMARK    1  A    between atoms: N1_1  and  C1_2 
REMARK    2  A    between atoms: C2_3  and  C3_4 
REMARK       I    between atoms: C3_4  and  N2_6 
REMARK    3  A    between atoms: N2_6  and  C4_7 
REMARK    4  A    between atoms: C9_14  and  N5_15 
REMARK    5  A    between atoms: N5_15  and  C10_16 
ROOT
HETATM    1  C4  UNL     1      22.546  -0.806  53.755  1.00  0.00     0.036 A 
HETATM    2  C5  UNL     1      22.888  -1.261  55.002  1.00  0.00     0.032 A 
HETATM    3  C6  UNL     1      24.135  -1.163  55.579  1.00  0.00     0.035 A 
HETATM    4  C7  UNL     1      25.097  -0.555  54.823  1.00  0.00     0.072 A 
HETATM    5  N3  UNL     1      26.339  -0.455  55.387  1.00  0.00    -0.241 NA
HETATM    6  C8  UNL     1      27.354   0.120  54.732  1.00  0.00     0.236 A 
HETATM    7  N4  UNL     1      27.081   0.585  53.510  1.00  0.00    -0.224 NA
HETATM    8  C9  UNL     1      25.897   0.525  52.892  1.00  0.00     0.142 A 
HETATM    9  C16 UNL     1      24.846  -0.063  53.553  1.00  0.00     0.041 A 
HETATM   10  C17 UNL     1      23.583  -0.209  53.071  1.00  0.00     0.047 A 
ENDROOT
BRANCH   1  11
HETATM   11  N2  UNL     1      21.300  -0.888  53.133  1.00  0.00    -0.324 N 
HETATM   12  C3  UNL     1      20.275   0.080  53.035  1.00  0.00     0.247 C 
HETATM   13  O1  UNL     1      20.467   1.194  53.570  1.00  0.00    -0.268 OA
HETATM   14  H5  UNL     1      20.999  -1.764  52.642  1.00  0.00     0.169 HD
BRANCH  12  15
HETATM   15  C2  UNL     1      19.002  -0.109  52.356  1.00  0.00     0.091 C 
HETATM   16  C1  UNL     1      18.114  -0.915  52.895  1.00  0.00     0.086 C 
BRANCH  16  17
HETATM   17  N1  UNL     1      17.850  -1.776  53.992  1.00  0.00    -0.408 N 
HETATM   18  H1  UNL     1      18.563  -2.259  54.601  1.00  0.00     0.155 HD
HETATM   19  H2  UNL     1      16.897  -2.056  54.358  1.00  0.00     0.155 HD
ENDBRANCH  16  17
ENDBRANCH  12  15
ENDBRANCH   1  11
BRANCH   8  20
HETATM   20  N5  UNL     1      25.695   1.034  51.605  1.00  0.00    -0.340 N 
HETATM   21  H9  UNL     1      25.654   0.430  50.768  1.00  0.00     0.167 HD
BRANCH  20  22
HETATM   22  C10 UNL     1      25.510   2.371  51.148  1.00  0.00     0.035 A 
HETATM   23  C11 UNL     1      24.431   3.210  51.457  1.00  0.00     0.029 A 
HETATM   24  C12 UNL     1      24.319   4.477  50.971  1.00  0.00     0.004 A 
HETATM   25  C13 UNL     1      25.264   5.021  50.139  1.00  0.00     0.019 A 
HETATM   26  C14 UNL     1      26.361   4.249  49.790  1.00  0.00     0.013 A 
HETATM   27 BR1  UNL     1      27.628   5.048  48.644  1.00  0.00    -0.051 Br
HETATM   28  C15 UNL     1      26.416   2.980  50.312  1.00  0.00     0.048 A 
ENDBRANCH  20  22
ENDBRANCH   8  20
TORSDOF 5
ENDMDL
MODEL 5
REMARK VINA RESULT:      -7.9      2.513      5.845
REMARK  5 active torsions:
REMARK  status: ('A' for Active; 'I' for Inactive)
REMARK    1  A    between atoms: N1_1  and  C1_2 
REMARK    2  A    between atoms: C2_3  and  C3_4 
REMARK       I    between atoms: C3_4  and  N2_6 
REMARK    3  A    between atoms: N2_6  and  C4_7 
REMARK    4  A    between atoms: C9_14  and  N5_15 
REMARK    5  A    between atoms: N5_15  and  C10_16 
ROOT
HETATM    1  C4  UNL     1      22.825   0.377  52.454  1.00  0.00     0.036 A 
HETATM    2  C5  UNL     1      23.414  -0.349  53.456  1.00  0.00     0.032 A 
HETATM    3  C6  UNL     1      24.733  -0.260  53.845  1.00  0.00     0.035 A 
HETATM    4  C7  UNL     1      25.500   0.637  53.157  1.00  0.00     0.072 A 
HETATM    5  N3  UNL     1      26.811   0.730  53.534  1.00  0.00    -0.241 NA
HETATM    6  C8  UNL     1      27.650   1.577  52.926  1.00  0.00     0.236 A 
HETATM    7  N4  UNL     1      27.132   2.314  51.939  1.00  0.00    -0.224 NA
HETATM    8  C9  UNL     1      25.865   2.280  51.514  1.00  0.00     0.142 A 
HETATM    9  C16 UNL     1      24.994   1.416  52.130  1.00  0.00     0.041 A 
HETATM   10  C17 UNL     1      23.679   1.255  51.820  1.00  0.00     0.047 A 
ENDROOT
BRANCH   1  11
HETATM   11  N2  UNL     1      21.498   0.316  52.027  1.00  0.00    -0.324 N 
HETATM   12  C3  UNL     1      20.329   0.012  52.759  1.00  0.00     0.247 C 
HETATM   13  O1  UNL     1      20.449  -0.250  53.976  1.00  0.00    -0.268 OA
HETATM   14  H5  UNL     1      21.244   0.512  51.030  1.00  0.00     0.169 HD
BRANCH  12  15
HETATM   15  C2  UNL     1      18.981  -0.024  52.213  1.00  0.00     0.091 C 
HETATM   16  C1  UNL     1      18.075  -0.761  52.817  1.00  0.00     0.086 C 
BRANCH  16  17
HETATM   17  N1  UNL     1      17.839  -1.637  53.909  1.00  0.00    -0.408 N 
HETATM   18  H1  UNL     1      18.482  -2.396  54.260  1.00  0.00     0.155 HD
HETATM   19  H2  UNL     1      16.982  -1.654  54.530  1.00  0.00     0.155 HD
ENDBRANCH  16  17
ENDBRANCH  12  15
ENDBRANCH   1  11
BRANCH   8  20
HETATM   20  N5  UNL     1      25.403   3.086  50.468  1.00  0.00    -0.340 N 
HETATM   21  H9  UNL     1      24.513   2.904  49.976  1.00  0.00     0.167 HD
BRANCH  20  22
HETATM   22  C10 UNL     1      25.968   4.247  49.865  1.00  0.00     0.035 A 
HETATM   23  C11 UNL     1      27.093   4.284  49.030  1.00  0.00     0.029 A 
HETATM   24  C12 UNL     1      27.579   5.439  48.499  1.00  0.00     0.004 A 
HETATM   25  C13 UNL     1      26.997   6.655  48.748  1.00  0.00     0.019 A 
HETATM   26  C14 UNL     1      25.879   6.696  49.567  1.00  0.00     0.013 A 
HETATM   27 BR1  UNL     1      25.119   8.395  49.876  1.00  0.00    -0.051 Br
HETATM   28  C15 UNL     1      25.436   5.499  50.072  1.00  0.00     0.048 A 
ENDBRANCH  20  22
ENDBRANCH   8  20
TORSDOF 5
ENDMDL
MODEL 6
REMARK VINA RESULT:      -7.8      2.913      5.400
REMARK  5 active torsions:
REMARK  status: ('A' for Active; 'I' for Inactive)
REMARK    1  A    between atoms: N1_1  and  C1_2 
REMARK    2  A    between atoms: C2_3  and  C3_4 
REMARK       I    between atoms: C3_4  and  N2_6 
REMARK    3  A    between atoms: N2_6  and  C4_7 
REMARK    4  A    between atoms: C9_14  and  N5_15 
REMARK    5  A    between atoms: N5_15  and  C10_16 
ROOT
HETATM    1  C4  UNL     1      26.200   2.686  51.535  1.00  0.00     0.036 A 
HETATM    2  C5  UNL     1      26.403   3.093  50.242  1.00  0.00     0.032 A 
HETATM    3  C6  UNL     1      25.415   3.366  49.321  1.00  0.00     0.035 A 
HETATM    4  C7  UNL     1      24.131   3.209  49.758  1.00  0.00     0.072 A 
HETATM    5  N3  UNL     1      23.143   3.475  48.850  1.00  0.00    -0.241 NA
HETATM    6  C8  UNL     1      21.851   3.351  49.173  1.00  0.00     0.236 A 
HETATM    7  N4  UNL     1      21.590   2.957  50.423  1.00  0.00    -0.224 NA
HETATM    8  C9  UNL     1      22.497   2.679  51.366  1.00  0.00     0.142 A 
HETATM    9  C16 UNL     1      23.827   2.801  51.047  1.00  0.00     0.041 A 
HETATM   10  C17 UNL     1      24.872   2.556  51.881  1.00  0.00     0.047 A 
ENDROOT
BRANCH   1  11
HETATM   11  N2  UNL     1      27.169   2.397  52.496  1.00  0.00    -0.324 N 
HETATM   12  C3  UNL     1      27.691   1.149  52.904  1.00  0.00     0.247 C 
HETATM   13  O1  UNL     1      27.250   0.119  52.349  1.00  0.00    -0.268 OA
HETATM   14  H5  UNL     1      27.629   3.163  53.044  1.00  0.00     0.169 HD
BRANCH  12  15
HETATM   15  C2  UNL     1      28.710   0.957  53.925  1.00  0.00     0.091 C 
HETATM   16  C1  UNL     1      29.202  -0.249  54.105  1.00  0.00     0.086 C 
BRANCH  16  17
HETATM   17  N1  UNL     1      29.146  -1.597  53.665  1.00  0.00    -0.408 N 
HETATM   18  H1  UNL     1      29.844  -2.090  53.048  1.00  0.00     0.155 HD
HETATM   19  H2  UNL     1      28.392  -2.305  53.895  1.00  0.00     0.155 HD
ENDBRANCH  16  17
ENDBRANCH  12  15
ENDBRANCH   1  11
BRANCH   8  20
HETATM   20  N5  UNL     1      22.138   2.267  52.653  1.00  0.00    -0.340 N 
HETATM   21  H9  UNL     1      22.129   2.910  53.461  1.00  0.00     0.167 HD
BRANCH  20  22
HETATM   22  C10 UNL     1      21.730   0.993  53.146  1.00  0.00     0.035 A 
HETATM   23  C11 UNL     1      22.547   0.054  53.791  1.00  0.00     0.029 A 
HETATM   24  C12 UNL     1      22.083  -1.150  54.225  1.00  0.00     0.004 A 
HETATM   25  C13 UNL     1      20.776  -1.529  54.058  1.00  0.00     0.019 A 
HETATM   26  C14 UNL     1      19.910  -0.650  53.427  1.00  0.00     0.013 A 
HETATM   27 BR1  UNL     1      18.123  -1.223  53.224  1.00  0.00    -0.051 Br
HETATM   28  C15 UNL     1      20.436   0.548  53.012  1.00  0.00     0.048 A 
ENDBRANCH  20  22
ENDBRANCH   8  20
TORSDOF 5
ENDMDL
MODEL 7
REMARK VINA RESULT:      -7.6      2.539      4.355
REMARK  5 active torsions:
REMARK  status: ('A' for Active; 'I' for Inactive)
REMARK    1  A    between atoms: N1_1  and  C1_2 
REMARK    2  A    between atoms: C2_3  and  C3_4 
REMARK       I    between atoms: C3_4  and  N2_6 
REMARK    3  A    between atoms: N2_6  and  C4_7 
REMARK    4  A    between atoms: C9_14  and  N5_15 
REMARK    5  A    between atoms: N5_15  and  C10_16 
ROOT
HETATM    1  C4  UNL     1      26.407   1.043  52.242  1.00  0.00     0.036 A 
HETATM    2  C5  UNL     1      27.209   0.694  53.297  1.00  0.00     0.032 A 
HETATM    3  C6  UNL     1      26.808  -0.000  54.417  1.00  0.00     0.035 A 
HETATM    4  C7  UNL     1      25.491  -0.363  54.456  1.00  0.00     0.072 A 
HETATM    5  N3  UNL     1      25.083  -1.050  55.565  1.00  0.00    -0.241 NA
HETATM    6  C8  UNL     1      23.814  -1.451  55.705  1.00  0.00     0.236 A 
HETATM    7  N4  UNL     1      22.983  -1.141  54.706  1.00  0.00    -0.224 NA
HETATM    8  C9  UNL     1      23.305  -0.473  53.593  1.00  0.00     0.142 A 
HETATM    9  C16 UNL     1      24.604  -0.056  53.437  1.00  0.00     0.041 A 
HETATM   10  C17 UNL     1      25.097   0.633  52.373  1.00  0.00     0.047 A 
ENDROOT
BRANCH   1  11
HETATM   11  N2  UNL     1      26.771   1.746  51.094  1.00  0.00    -0.324 N 
HETATM   12  C3  UNL     1      26.232   2.936  50.556  1.00  0.00     0.247 C 
HETATM   13  O1  UNL     1      25.282   3.477  51.164  1.00  0.00    -0.268 OA
HETATM   14  H5  UNL     1      27.553   1.411  50.482  1.00  0.00     0.169 HD
BRANCH  12  15
HETATM   15  C2  UNL     1      26.690   3.594  49.342  1.00  0.00     0.091 C 
HETATM   16  C1  UNL     1      26.664   4.907  49.288  1.00  0.00     0.086 C 
BRANCH  16  17
HETATM   17  N1  UNL     1      26.338   6.086  50.007  1.00  0.00    -0.408 N 
HETATM   18  H1  UNL     1      25.387   6.364  50.368  1.00  0.00     0.155 HD
HETATM   19  H2  UNL     1      27.006   6.859  50.286  1.00  0.00     0.155 HD
ENDBRANCH  16  17
ENDBRANCH  12  15
ENDBRANCH   1  11
BRANCH   8  20
HETATM   20  N5  UNL     1      22.370  -0.185  52.594  1.00  0.00    -0.340 N 
HETATM   21  H9  UNL     1      22.171  -0.833  51.815  1.00  0.00     0.167 HD
BRANCH  20  22
HETATM   22  C10 UNL     1      21.530   0.950  52.401  1.00  0.00     0.035 A 
HETATM   23  C11 UNL     1      20.133   0.938  52.289  1.00  0.00     0.029 A 
HETATM   24  C12 UNL     1      19.400   2.068  52.094  1.00  0.00     0.004 A 
HETATM   25  C13 UNL     1      19.983   3.305  51.994  1.00  0.00     0.019 A 
HETATM   26  C14 UNL     1      21.363   3.394  52.095  1.00  0.00     0.013 A 
HETATM   27 BR1  UNL     1      22.113   5.119  51.949  1.00  0.00    -0.051 Br
HETATM   28  C15 UNL     1      22.047   2.219  52.291  1.00  0.00     0.048 A 
ENDBRANCH  20  22
ENDBRANCH   8  20
TORSDOF 5
ENDMDL
MODEL 8
REMARK VINA RESULT:      -7.4      2.744      5.871
REMARK  5 active torsions:
REMARK  status: ('A' for Active; 'I' for Inactive)
REMARK    1  A    between atoms: N1_1  and  C1_2 
REMARK    2  A    between atoms: C2_3  and  C3_4 
REMARK       I    between atoms: C3_4  and  N2_6 
REMARK    3  A    between atoms: N2_6  and  C4_7 
REMARK    4  A    between atoms: C9_14  and  N5_15 
REMARK    5  A    between atoms: N5_15  and  C10_16 
ROOT
HETATM    1  C4  UNL     1      22.588   0.782  52.116  1.00  0.00     0.036 A 
HETATM    2  C5  UNL     1      23.070   0.034  53.158  1.00  0.00     0.032 A 
HETATM    3  C6  UNL     1      24.376   0.017  53.599  1.00  0.00     0.035 A 
HETATM    4  C7  UNL     1      25.246   0.824  52.922  1.00  0.00     0.072 A 
HETATM    5  N3  UNL     1      26.545   0.811  53.350  1.00  0.00    -0.241 NA
HETATM    6  C8  UNL     1      27.479   1.563  52.757  1.00  0.00     0.236 A 
HETATM    7  N4  UNL     1      27.068   2.316  51.732  1.00  0.00    -0.224 NA
HETATM    8  C9  UNL     1      25.820   2.383  51.256  1.00  0.00     0.142 A 
HETATM    9  C16 UNL     1      24.852   1.616  51.856  1.00  0.00     0.041 A 
HETATM   10  C17 UNL     1      23.541   1.563  51.496  1.00  0.00     0.047 A 
ENDROOT
BRANCH   1  11
HETATM   11  N2  UNL     1      21.279   0.827  51.636  1.00  0.00    -0.324 N 
HETATM   12  C3  UNL     1      20.198   1.643  52.039  1.00  0.00     0.247 C 
HETATM   13  O1  UNL     1      20.395   2.465  52.960  1.00  0.00    -0.268 OA
HETATM   14  H5  UNL     1      20.967   0.193  50.862  1.00  0.00     0.169 HD
BRANCH  12  15
HETATM   15  C2  UNL     1      18.861   1.610  51.467  1.00  0.00     0.091 C 
HETATM   16  C1  UNL     1      18.733   1.643  50.159  1.00  0.00     0.086 C 
BRANCH  16  17
HETATM   17  N1  UNL     1      19.441   1.703  48.930  1.00  0.00    -0.408 N 
HETATM   18  H1  UNL     1      20.136   2.439  48.637  1.00  0.00     0.155 HD
HETATM   19  H2  UNL     1      19.373   1.013  48.129  1.00  0.00     0.155 HD
ENDBRANCH  16  17
ENDBRANCH  12  15
ENDBRANCH   1  11
BRANCH   8  20
HETATM   20  N5  UNL     1      25.473   3.197  50.173  1.00  0.00    -0.340 N 
HETATM   21  H9  UNL     1      24.655   3.005  49.573  1.00  0.00     0.167 HD
BRANCH  20  22
HETATM   22  C10 UNL     1      26.083   4.379  49.661  1.00  0.00     0.035 A 
HETATM   23  C11 UNL     1      27.260   4.444  48.904  1.00  0.00     0.029 A 
HETATM   24  C12 UNL     1      27.787   5.618  48.459  1.00  0.00     0.004 A 
HETATM   25  C13 UNL     1      27.196   6.826  48.724  1.00  0.00     0.019 A 
HETATM   26  C14 UNL     1      26.026   6.840  49.468  1.00  0.00     0.013 A 
HETATM   27 BR1  UNL     1      25.256   8.529  49.803  1.00  0.00    -0.051 Br
HETATM   28  C15 UNL     1      25.545   5.624  49.889  1.00  0.00     0.048 A 
ENDBRANCH  20  22
ENDBRANCH   8  20
TORSDOF 5
ENDMDL
MODEL 9
REMARK VINA RESULT:      -7.2      3.592      6.502
REMARK  5 active torsions:
REMARK  status: ('A' for Active; 'I' for Inactive)
REMARK    1  A    between atoms: N1_1  and  C1_2 
REMARK    2  A    between atoms: C2_3  and  C3_4 
REMARK       I    between atoms: C3_4  and  N2_6 
REMARK    3  A    between atoms: N2_6  and  C4_7 
REMARK    4  A    between atoms: C9_14  and  N5_15 
REMARK    5  A    between atoms: N5_15  and  C10_16 
ROOT
HETATM    1  C4  UNL     1      23.851   1.903  51.815  1.00  0.00     0.036 A 
HETATM    2  C5  UNL     1      25.044   1.331  52.172  1.00  0.00     0.032 A 
HETATM    3  C6  UNL     1      25.212   0.351  53.127  1.00  0.00     0.035 A 
HETATM    4  C7  UNL     1      24.076  -0.070  53.758  1.00  0.00     0.072 A 
HETATM    5  N3  UNL     1      24.233  -1.040  54.709  1.00  0.00    -0.241 NA
HETATM    6  C8  UNL     1      23.187  -1.522  55.388  1.00  0.00     0.236 A 
HETATM    7  N4  UNL     1      21.994  -1.002  55.083  1.00  0.00    -0.224 NA
HETATM    8  C9  UNL     1      21.760  -0.055  54.169  1.00  0.00     0.142 A 
HETATM    9  C16 UNL     1      22.826   0.449  53.465  1.00  0.00     0.041 A 
HETATM   10  C17 UNL     1      22.764   1.413  52.507  1.00  0.00     0.047 A 
ENDROOT
BRANCH   1  11
HETATM   11  N2  UNL     1      23.638   2.897  50.860  1.00  0.00    -0.324 N 
HETATM   12  C3  UNL     1      23.651   4.302  51.001  1.00  0.00     0.247 C 
HETATM   13  O1  UNL     1      23.884   4.776  52.135  1.00  0.00    -0.268 OA
HETATM   14  H5  UNL     1      23.431   2.650  49.862  1.00  0.00     0.169 HD
BRANCH  12  15
HETATM   15  C2  UNL     1      23.415   5.258  49.930  1.00  0.00     0.091 C 
HETATM   16  C1  UNL     1      22.784   6.377  50.211  1.00  0.00     0.086 C 
BRANCH  16  17
HETATM   17  N1  UNL     1      22.168   7.127  51.247  1.00  0.00    -0.408 N 
HETATM   18  H1  UNL     1      21.176   7.483  51.264  1.00  0.00     0.155 HD
HETATM   19  H2  UNL     1      22.618   7.437  52.154  1.00  0.00     0.155 HD
ENDBRANCH  16  17
ENDBRANCH  12  15
ENDBRANCH   1  11
BRANCH   8  20
HETATM   20  N5  UNL     1      20.477   0.439  53.913  1.00  0.00    -0.340 N 
HETATM   21  H9  UNL     1      20.168   1.374  54.224  1.00  0.00     0.167 HD
BRANCH  20  22
HETATM   22  C10 UNL     1      19.371  -0.145  53.228  1.00  0.00     0.035 A 
HETATM   23  C11 UNL     1      18.690   0.405  52.134  1.00  0.00     0.029 A 
HETATM   24  C12 UNL     1      17.632  -0.212  51.538  1.00  0.00     0.004 A 
HETATM   25  C13 UNL     1      17.158  -1.422  51.974  1.00  0.00     0.019 A 
HETATM   26  C14 UNL     1      17.783  -2.027  53.053  1.00  0.00     0.013 A 
HETATM   27 BR1  UNL     1      17.090  -3.691  53.610  1.00  0.00    -0.051 Br
HETATM   28  C15 UNL     1      18.844  -1.356  53.611  1.00  0.00     0.048 A 
ENDBRANCH  20  22
ENDBRANCH   8  20
TORSDOF 5
ENDMDL
