MODEL 1
REMARK VINA RESULT:      -8.9      0.000      0.000
REMARK  5 active torsions:
REMARK  status: ('A' for Active; 'I' for Inactive)
REMARK    1  A    between atoms: C2_2  and  C3_3 
REMARK    2  A    between atoms: C3_3  and  O1_6 
REMARK    3  A    between atoms: O1_6  and  C6_7 
REMARK    4  A    between atoms: C6_7  and  C7_9 
REMARK    5  A    between atoms: C9_11  and  N1_12 
ROOT
HETATM    1  N1  UNL     1      23.198   2.570  51.848  1.00  0.00    -0.310 N 
HETATM    2  C10 UNL     1      22.631   3.863  52.017  1.00  0.00     0.121 C 
HETATM    3  C11 UNL     1      22.768   4.415  50.850  1.00  0.00     0.055 C 
HETATM    4  C12 UNL     1      22.470   5.672  50.189  1.00  0.00     0.140 C 
HETATM    5  N2  UNL     1      22.408   5.870  48.942  1.00  0.00    -0.224 NA
HETATM    6  C13 UNL     1      22.452   4.719  48.062  1.00  0.00     0.232 C 
HETATM    7  N3  UNL     1      22.555   3.571  48.692  1.00  0.00    -0.245 NA
HETATM    8  C14 UNL     1      23.427   3.521  49.861  1.00  0.00     0.179 C 
HETATM    9  C15 UNL     1      24.753   4.073  49.549  1.00  0.00     0.053 C 
HETATM   10  C16 UNL     1      25.824   4.868  49.365  1.00  0.00     0.031 C 
HETATM   11 CL1  UNL     1      27.332   4.125  48.749  1.00  0.00    -0.085 Cl
HETATM   12  C17 UNL     1      25.993   6.333  49.562  1.00  0.00     0.006 C 
HETATM   13  C18 UNL     1      25.071   7.160  49.977  1.00  0.00     0.045 C 
HETATM   14  C19 UNL     1      24.232   8.245  50.409  1.00  0.00    -0.000 C 
HETATM   15  C20 UNL     1      23.007   8.063  50.756  1.00  0.00     0.086 C 
HETATM   16  N4  UNL     1      22.191   6.913  50.823  1.00  0.00    -0.350 N 
HETATM   17  N5  UNL     1      23.438   2.237  50.514  1.00  0.00    -0.194 NA
HETATM   18  C21 UNL     1      22.368   1.426  50.036  1.00  0.00     0.140 C 
HETATM   19  H21 UNL     1      21.299   6.622  51.265  1.00  0.00     0.166 HD
ENDROOT
BRANCH   1  20
HETATM   20  C9  UNL     1      23.505   1.663  52.968  1.00  0.00     0.130 A 
HETATM   21  C8  UNL     1      24.014   0.365  52.570  1.00  0.00     0.013 A 
HETATM   22  C7  UNL     1      25.201   0.528  53.085  1.00  0.00     0.018 A 
HETATM   23  C22 UNL     1      24.852   1.866  53.558  1.00  0.00     0.075 A 
BRANCH  22  24
HETATM   24  C6  UNL     1      26.393  -0.309  53.150  1.00  0.00     0.289 C 
HETATM   25  O2  UNL     1      26.281  -1.500  53.529  1.00  0.00    -0.260 OA
BRANCH  24  26
HETATM   26  O1  UNL     1      27.641   0.202  52.796  1.00  0.00    -0.307 OA
BRANCH  26  27
HETATM   27  C3  UNL     1      28.558   0.703  53.753  1.00  0.00     0.063 C 
HETATM   28  C4  UNL     1      28.112   0.324  55.148  1.00  0.00     0.046 C 
HETATM   29  C5  UNL     1      28.624   2.201  53.586  1.00  0.00     0.046 C 
BRANCH  27  30
HETATM   30  C2  UNL     1      29.892   0.052  53.423  1.00  0.00     0.033 C 
HETATM   31  C1  UNL     1      29.815  -1.453  53.490  1.00  0.00     0.008 C 
ENDBRANCH  27  30
ENDBRANCH  26  27
ENDBRANCH  24  26
ENDBRANCH  22  24
ENDBRANCH   1  20
TORSDOF 5
ENDMDL
MODEL 2
REMARK VINA RESULT:      -8.8      2.084      2.448
REMARK  5 active torsions:
REMARK  status: ('A' for Active; 'I' for Inactive)
REMARK    1  A    between atoms: C2_2  and  C3_3 
REMARK    2  A    between atoms: C3_3  and  O1_6 
REMARK    3  A    between atoms: O1_6  and  C6_7 
REMARK    4  A    between atoms: C6_7  and  C7_9 
REMARK    5  A    between atoms: C9_11  and  N1_12 
ROOT
HETATM    1  N1  UNL     1      22.517   2.978  52.178  1.00  0.00    -0.310 N 
HETATM    2  C10 UNL     1      22.640   4.390  52.287  1.00  0.00     0.121 C 
HETATM    3  C11 UNL     1      21.825   4.841  51.383  1.00  0.00     0.055 C 
HETATM    4  C12 UNL     1      21.367   6.113  50.855  1.00  0.00     0.140 C 
HETATM    5  N2  UNL     1      20.316   6.313  50.180  1.00  0.00    -0.224 NA
HETATM    6  C13 UNL     1      19.362   5.229  50.060  1.00  0.00     0.232 C 
HETATM    7  N3  UNL     1      19.720   4.133  50.689  1.00  0.00    -0.245 NA
HETATM    8  C14 UNL     1      21.129   3.758  50.638  1.00  0.00     0.179 C 
HETATM    9  C15 UNL     1      21.621   3.757  49.254  1.00  0.00     0.053 C 
HETATM   10  C16 UNL     1      22.147   4.079  48.056  1.00  0.00     0.031 C 
HETATM   11 CL1  UNL     1      22.213   2.811  46.794  1.00  0.00    -0.085 Cl
HETATM   12  C17 UNL     1      22.687   5.369  47.547  1.00  0.00     0.006 C 
HETATM   13  C18 UNL     1      22.753   6.488  48.216  1.00  0.00     0.045 C 
HETATM   14  C19 UNL     1      22.925   7.814  48.745  1.00  0.00    -0.000 C 
HETATM   15  C20 UNL     1      22.585   8.118  49.947  1.00  0.00     0.086 C 
HETATM   16  N4  UNL     1      22.015   7.369  51.000  1.00  0.00    -0.350 N 
HETATM   17  N5  UNL     1      21.434   2.571  51.396  1.00  0.00    -0.194 NA
HETATM   18  C21 UNL     1      20.345   2.230  52.249  1.00  0.00     0.140 C 
HETATM   19  H21 UNL     1      21.896   7.445  52.027  1.00  0.00     0.166 HD
ENDROOT
BRANCH   1  20
HETATM   20  C9  UNL     1      23.438   2.029  52.826  1.00  0.00     0.130 A 
HETATM   21  C8  UNL     1      24.335   1.342  51.917  1.00  0.00     0.013 A 
HETATM   22  C7  UNL     1      25.428   1.883  52.380  1.00  0.00     0.018 A 
HETATM   23  C22 UNL     1      24.672   2.655  53.365  1.00  0.00     0.075 A 
BRANCH  22  24
HETATM   24  C6  UNL     1      26.838   1.755  52.034  1.00  0.00     0.289 C 
HETATM   25  O2  UNL     1      27.357   2.600  51.265  1.00  0.00    -0.260 OA
BRANCH  24  26
HETATM   26  O1  UNL     1      27.604   0.710  52.550  1.00  0.00    -0.307 OA
BRANCH  26  27
HETATM   27  C3  UNL     1      28.381   0.843  53.727  1.00  0.00     0.063 C 
HETATM   28  C4  UNL     1      27.638   0.260  54.908  1.00  0.00     0.046 C 
HETATM   29  C5  UNL     1      28.665   2.311  53.927  1.00  0.00     0.046 C 
BRANCH  27  30
HETATM   30  C2  UNL     1      29.661   0.064  53.464  1.00  0.00     0.033 C 
HETATM   31  C1  UNL     1      29.410  -1.421  53.388  1.00  0.00     0.008 C 
ENDBRANCH  27  30
ENDBRANCH  26  27
ENDBRANCH  24  26
ENDBRANCH  22  24
ENDBRANCH   1  20
TORSDOF 5
ENDMDL
MODEL 3
REMARK VINA RESULT:      -8.8      1.820      2.342
REMARK  5 active torsions:
REMARK  status: ('A' for Active; 'I' for Inactive)
REMARK    1  A    between atoms: C2_2  and  C3_3 
REMARK    2  A    between atoms: C3_3  and  O1_6 
REMARK    3  A    between atoms: O1_6  and  C6_7 
REMARK    4  A    between atoms: C6_7  and  C7_9 
REMARK    5  A    between atoms: C9_11  and  N1_12 
ROOT
HETATM    1  N1  UNL     1      22.984   2.820  51.684  1.00  0.00    -0.310 N 
HETATM    2  C10 UNL     1      23.925   3.850  51.961  1.00  0.00     0.121 C 
HETATM    3  C11 UNL     1      23.405   4.900  51.403  1.00  0.00     0.055 C 
HETATM    4  C12 UNL     1      23.706   6.308  51.223  1.00  0.00     0.140 C 
HETATM    5  N2  UNL     1      22.885   7.219  50.912  1.00  0.00    -0.224 NA
HETATM    6  C13 UNL     1      21.473   6.897  50.909  1.00  0.00     0.232 C 
HETATM    7  N3  UNL     1      21.210   5.654  51.240  1.00  0.00    -0.245 NA
HETATM    8  C14 UNL     1      22.106   4.620  50.735  1.00  0.00     0.179 C 
HETATM    9  C15 UNL     1      22.294   4.751  49.284  1.00  0.00     0.053 C 
HETATM   10  C16 UNL     1      22.725   5.069  48.048  1.00  0.00     0.031 C 
HETATM   11 CL1  UNL     1      21.849   4.382  46.646  1.00  0.00    -0.085 Cl
HETATM   12  C17 UNL     1      23.835   5.954  47.604  1.00  0.00     0.006 C 
HETATM   13  C18 UNL     1      24.641   6.621  48.385  1.00  0.00     0.045 C 
HETATM   14  C19 UNL     1      25.632   7.436  49.034  1.00  0.00    -0.000 C 
HETATM   15  C20 UNL     1      25.717   7.517  50.314  1.00  0.00     0.086 C 
HETATM   16  N4  UNL     1      24.979   6.923  51.362  1.00  0.00    -0.350 N 
HETATM   17  N5  UNL     1      21.767   3.294  51.190  1.00  0.00    -0.194 NA
HETATM   18  C21 UNL     1      20.825   3.360  52.257  1.00  0.00     0.140 C 
HETATM   19  H21 UNL     1      25.081   6.754  52.380  1.00  0.00     0.166 HD
ENDROOT
BRANCH   1  20
HETATM   20  C9  UNL     1      23.259   1.388  51.894  1.00  0.00     0.130 A 
HETATM   21  C8  UNL     1      24.665   1.052  51.998  1.00  0.00     0.013 A 
HETATM   22  C7  UNL     1      24.616   0.673  53.245  1.00  0.00     0.018 A 
HETATM   23  C22 UNL     1      23.185   0.961  53.314  1.00  0.00     0.075 A 
BRANCH  22  24
HETATM   24  C6  UNL     1      25.611   0.165  54.182  1.00  0.00     0.289 C 
HETATM   25  O2  UNL     1      25.484  -0.999  54.634  1.00  0.00    -0.260 OA
BRANCH  24  26
HETATM   26  O1  UNL     1      26.690   0.957  54.571  1.00  0.00    -0.307 OA
BRANCH  26  27
HETATM   27  C3  UNL     1      27.919   0.972  53.866  1.00  0.00     0.063 C 
HETATM   28  C4  UNL     1      29.076   0.941  54.840  1.00  0.00     0.046 C 
HETATM   29  C5  UNL     1      27.948   2.221  53.021  1.00  0.00     0.046 C 
BRANCH  27  30
HETATM   30  C2  UNL     1      27.913  -0.280  53.003  1.00  0.00     0.033 C 
HETATM   31  C1  UNL     1      29.048  -1.209  53.352  1.00  0.00     0.008 C 
ENDBRANCH  27  30
ENDBRANCH  26  27
ENDBRANCH  24  26
ENDBRANCH  22  24
ENDBRANCH   1  20
TORSDOF 5
ENDMDL
MODEL 4
REMARK VINA RESULT:      -8.7      2.587      3.615
REMARK  5 active torsions:
REMARK  status: ('A' for Active; 'I' for Inactive)
REMARK    1  A    between atoms: C2_2  and  C3_3 
REMARK    2  A    between atoms: C3_3  and  O1_6 
REMARK    3  A    between atoms: O1_6  and  C6_7 
REMARK    4  A    between atoms: C6_7  and  C7_9 
REMARK    5  A    between atoms: C9_11  and  N1_12 
ROOT
HETATM    1  N1  UNL     1      20.181   2.091  52.210  1.00  0.00    -0.310 N 
HETATM    2  C10 UNL     1      20.908   3.215  52.690  1.00  0.00     0.121 C 
HETATM    3  C11 UNL     1      20.983   3.998  51.657  1.00  0.00     0.055 C 
HETATM    4  C12 UNL     1      21.533   5.292  51.299  1.00  0.00     0.140 C 
HETATM    5  N2  UNL     1      21.203   6.001  50.305  1.00  0.00    -0.224 NA
HETATM    6  C13 UNL     1      20.042   5.601  49.534  1.00  0.00     0.232 C 
HETATM    7  N3  UNL     1      19.457   4.513  49.978  1.00  0.00    -0.245 NA
HETATM    8  C14 UNL     1      20.315   3.434  50.453  1.00  0.00     0.179 C 
HETATM    9  C15 UNL     1      21.348   3.110  49.460  1.00  0.00     0.053 C 
HETATM   10  C16 UNL     1      22.472   3.046  48.720  1.00  0.00     0.031 C 
HETATM   11 CL1  UNL     1      22.518   1.894  47.351  1.00  0.00    -0.085 Cl
HETATM   12  C17 UNL     1      23.742   3.816  48.813  1.00  0.00     0.006 C 
HETATM   13  C18 UNL     1      24.009   4.748  49.687  1.00  0.00     0.045 C 
HETATM   14  C19 UNL     1      24.523   5.791  50.534  1.00  0.00    -0.000 C 
HETATM   15  C20 UNL     1      23.837   6.279  51.506  1.00  0.00     0.086 C 
HETATM   16  N4  UNL     1      22.544   6.002  52.000  1.00  0.00    -0.350 N 
HETATM   17  N5  UNL     1      19.584   2.303  50.966  1.00  0.00    -0.194 NA
HETATM   18  C21 UNL     1      18.214   2.641  51.158  1.00  0.00     0.140 C 
HETATM   19  H21 UNL     1      21.992   6.172  52.862  1.00  0.00     0.166 HD
ENDROOT
BRANCH   1  20
HETATM   20  C9  UNL     1      20.065   0.822  52.948  1.00  0.00     0.130 A 
HETATM   21  C8  UNL     1      21.006  -0.203  52.541  1.00  0.00     0.013 A 
HETATM   22  C7  UNL     1      21.662  -0.232  53.667  1.00  0.00     0.018 A 
HETATM   23  C22 UNL     1      20.800   0.802  54.238  1.00  0.00     0.075 A 
BRANCH  22  24
HETATM   24  C6  UNL     1      22.804  -1.002  54.147  1.00  0.00     0.289 C 
HETATM   25  O2  UNL     1      22.721  -1.588  55.254  1.00  0.00    -0.260 OA
BRANCH  24  26
HETATM   26  O1  UNL     1      23.971  -1.089  53.390  1.00  0.00    -0.307 OA
BRANCH  26  27
HETATM   27  C3  UNL     1      25.045  -0.176  53.538  1.00  0.00     0.063 C 
HETATM   28  C4  UNL     1      26.142  -0.502  52.548  1.00  0.00     0.046 C 
HETATM   29  C5  UNL     1      25.541  -0.276  54.959  1.00  0.00     0.046 C 
BRANCH  27  30
HETATM   30  C2  UNL     1      24.459   1.198  53.252  1.00  0.00     0.033 C 
HETATM   31  C1  UNL     1      24.274   1.434  51.774  1.00  0.00     0.008 C 
ENDBRANCH  27  30
ENDBRANCH  26  27
ENDBRANCH  24  26
ENDBRANCH  22  24
ENDBRANCH   1  20
TORSDOF 5
ENDMDL
MODEL 5
REMARK VINA RESULT:      -8.0      2.129      3.021
REMARK  5 active torsions:
REMARK  status: ('A' for Active; 'I' for Inactive)
REMARK    1  A    between atoms: C2_2  and  C3_3 
REMARK    2  A    between atoms: C3_3  and  O1_6 
REMARK    3  A    between atoms: O1_6  and  C6_7 
REMARK    4  A    between atoms: C6_7  and  C7_9 
REMARK    5  A    between atoms: C9_11  and  N1_12 
ROOT
HETATM    1  N1  UNL     1      23.666   4.172  50.865  1.00  0.00    -0.310 N 
HETATM    2  C10 UNL     1      24.402   5.367  51.092  1.00  0.00     0.121 C 
HETATM    3  C11 UNL     1      23.675   6.288  50.538  1.00  0.00     0.055 C 
HETATM    4  C12 UNL     1      23.697   7.723  50.324  1.00  0.00     0.140 C 
HETATM    5  N2  UNL     1      22.709   8.455  50.029  1.00  0.00    -0.224 NA
HETATM    6  C13 UNL     1      21.383   7.871  50.082  1.00  0.00     0.232 C 
HETATM    7  N3  UNL     1      21.372   6.608  50.441  1.00  0.00    -0.245 NA
HETATM    8  C14 UNL     1      22.432   5.751  49.921  1.00  0.00     0.179 C 
HETATM    9  C15 UNL     1      22.544   5.884  48.462  1.00  0.00     0.053 C 
HETATM   10  C16 UNL     1      22.867   6.250  47.207  1.00  0.00     0.031 C 
HETATM   11 CL1  UNL     1      22.092   5.379  45.848  1.00  0.00    -0.085 Cl
HETATM   12  C17 UNL     1      23.773   7.319  46.709  1.00  0.00     0.006 C 
HETATM   13  C18 UNL     1      24.463   8.144  47.450  1.00  0.00     0.045 C 
HETATM   14  C19 UNL     1      25.302   9.146  48.050  1.00  0.00    -0.000 C 
HETATM   15  C20 UNL     1      25.411   9.270  49.325  1.00  0.00     0.086 C 
HETATM   16  N4  UNL     1      24.834   8.570  50.408  1.00  0.00    -0.350 N 
HETATM   17  N5  UNL     1      22.366   4.396  50.409  1.00  0.00    -0.194 NA
HETATM   18  C21 UNL     1      21.463   4.306  51.507  1.00  0.00     0.140 C 
HETATM   19  H21 UNL     1      24.999   8.446  51.424  1.00  0.00     0.166 HD
ENDROOT
BRANCH   1  20
HETATM   20  C9  UNL     1      24.214   2.823  51.088  1.00  0.00     0.130 A 
HETATM   21  C8  UNL     1      25.650   2.719  50.915  1.00  0.00     0.013 A 
HETATM   22  C7  UNL     1      25.912   2.444  52.162  1.00  0.00     0.018 A 
HETATM   23  C22 UNL     1      24.494   2.512  52.512  1.00  0.00     0.075 A 
BRANCH  22  24
HETATM   24  C6  UNL     1      27.143   2.177  52.896  1.00  0.00     0.289 C 
HETATM   25  O2  UNL     1      28.241   2.504  52.384  1.00  0.00    -0.260 OA
BRANCH  24  26
HETATM   26  O1  UNL     1      27.105   1.568  54.150  1.00  0.00    -0.307 OA
BRANCH  26  27
HETATM   27  C3  UNL     1      27.230   0.168  54.321  1.00  0.00     0.063 C 
HETATM   28  C4  UNL     1      27.020  -0.538  53.000  1.00  0.00     0.046 C 
HETATM   29  C5  UNL     1      26.207  -0.264  55.342  1.00  0.00     0.046 C 
BRANCH  27  30
HETATM   30  C2  UNL     1      28.646  -0.059  54.828  1.00  0.00     0.033 C 
HETATM   31  C1  UNL     1      29.532  -0.666  53.769  1.00  0.00     0.008 C 
ENDBRANCH  27  30
ENDBRANCH  26  27
ENDBRANCH  24  26
ENDBRANCH  22  24
ENDBRANCH   1  20
TORSDOF 5
ENDMDL
MODEL 6
REMARK VINA RESULT:      -8.0      3.455      5.310
REMARK  5 active torsions:
REMARK  status: ('A' for Active; 'I' for Inactive)
REMARK    1  A    between atoms: C2_2  and  C3_3 
REMARK    2  A    between atoms: C3_3  and  O1_6 
REMARK    3  A    between atoms: O1_6  and  C6_7 
REMARK    4  A    between atoms: C6_7  and  C7_9 
REMARK    5  A    between atoms: C9_11  and  N1_12 
ROOT
HETATM    1  N1  UNL     1      25.355   6.220  48.995  1.00  0.00    -0.310 N 
HETATM    2  C10 UNL     1      26.403   6.817  49.749  1.00  0.00     0.121 C 
HETATM    3  C11 UNL     1      26.497   8.013  49.255  1.00  0.00     0.055 C 
HETATM    4  C12 UNL     1      27.279   9.220  49.444  1.00  0.00     0.140 C 
HETATM    5  N2  UNL     1      26.974  10.384  49.055  1.00  0.00    -0.224 NA
HETATM    6  C13 UNL     1      25.641  10.603  48.530  1.00  0.00     0.232 C 
HETATM    7  N3  UNL     1      24.889   9.527  48.522  1.00  0.00    -0.245 NA
HETATM    8  C14 UNL     1      25.523   8.265  48.159  1.00  0.00     0.179 C 
HETATM    9  C15 UNL     1      26.268   8.397  46.899  1.00  0.00     0.053 C 
HETATM   10  C16 UNL     1      27.205   8.601  45.953  1.00  0.00     0.031 C 
HETATM   11 CL1  UNL     1      26.742   8.361  44.240  1.00  0.00    -0.085 Cl
HETATM   12  C17 UNL     1      28.622   9.040  46.067  1.00  0.00     0.006 C 
HETATM   13  C18 UNL     1      29.249   9.322  47.177  1.00  0.00     0.045 C 
HETATM   14  C19 UNL     1      30.133   9.680  48.253  1.00  0.00    -0.000 C 
HETATM   15  C20 UNL     1      29.757   9.654  49.482  1.00  0.00     0.086 C 
HETATM   16  N4  UNL     1      28.535   9.316  50.103  1.00  0.00    -0.350 N 
HETATM   17  N5  UNL     1      24.632   7.134  48.226  1.00  0.00    -0.194 NA
HETATM   18  C21 UNL     1      23.437   7.482  48.918  1.00  0.00     0.140 C 
HETATM   19  H21 UNL     1      28.190   9.067  51.049  1.00  0.00     0.166 HD
ENDROOT
BRANCH   1  20
HETATM   20  C9  UNL     1      25.055   4.779  49.018  1.00  0.00     0.130 A 
HETATM   21  C8  UNL     1      26.215   3.922  49.171  1.00  0.00     0.013 A 
HETATM   22  C7  UNL     1      25.882   3.460  50.344  1.00  0.00     0.018 A 
HETATM   23  C22 UNL     1      24.660   4.264  50.353  1.00  0.00     0.075 A 
BRANCH  22  24
HETATM   24  C6  UNL     1      26.500   2.515  51.265  1.00  0.00     0.289 C 
HETATM   25  O2  UNL     1      27.614   2.796  51.770  1.00  0.00    -0.260 OA
BRANCH  24  26
HETATM   26  O1  UNL     1      25.866   1.315  51.584  1.00  0.00    -0.307 OA
BRANCH  26  27
HETATM   27  C3  UNL     1      25.126   1.139  52.779  1.00  0.00     0.063 C 
HETATM   28  C4  UNL     1      23.683   0.821  52.454  1.00  0.00     0.046 C 
HETATM   29  C5  UNL     1      25.240   2.410  53.583  1.00  0.00     0.046 C 
BRANCH  27  30
HETATM   30  C2  UNL     1      25.780  -0.030  53.499  1.00  0.00     0.033 C 
HETATM   31  C1  UNL     1      26.481  -0.960  52.540  1.00  0.00     0.008 C 
ENDBRANCH  27  30
ENDBRANCH  26  27
ENDBRANCH  24  26
ENDBRANCH  22  24
ENDBRANCH   1  20
TORSDOF 5
ENDMDL
MODEL 7
REMARK VINA RESULT:      -7.6      6.895      9.629
REMARK  5 active torsions:
REMARK  status: ('A' for Active; 'I' for Inactive)
REMARK    1  A    between atoms: C2_2  and  C3_3 
REMARK    2  A    between atoms: C3_3  and  O1_6 
REMARK    3  A    between atoms: O1_6  and  C6_7 
REMARK    4  A    between atoms: C6_7  and  C7_9 
REMARK    5  A    between atoms: C9_11  and  N1_12 
ROOT
HETATM    1  N1  UNL     1      30.034   7.111  47.793  1.00  0.00    -0.310 N 
HETATM    2  C10 UNL     1      30.565   5.858  48.209  1.00  0.00     0.121 C 
HETATM    3  C11 UNL     1      31.849   6.021  48.116  1.00  0.00     0.055 C 
HETATM    4  C12 UNL     1      33.069   5.269  48.339  1.00  0.00     0.140 C 
HETATM    5  N2  UNL     1      34.231   5.746  48.486  1.00  0.00    -0.224 NA
HETATM    6  C13 UNL     1      34.369   7.181  48.636  1.00  0.00     0.232 C 
HETATM    7  N3  UNL     1      33.229   7.832  48.597  1.00  0.00    -0.245 NA
HETATM    8  C14 UNL     1      32.228   7.378  47.638  1.00  0.00     0.179 C 
HETATM    9  C15 UNL     1      32.809   7.251  46.295  1.00  0.00     0.053 C 
HETATM   10  C16 UNL     1      33.404   6.818  45.167  1.00  0.00     0.031 C 
HETATM   11 CL1  UNL     1      33.562   7.965  43.801  1.00  0.00    -0.085 Cl
HETATM   12  C17 UNL     1      34.015   5.503  44.834  1.00  0.00     0.006 C 
HETATM   13  C18 UNL     1      34.085   4.469  45.627  1.00  0.00     0.045 C 
HETATM   14  C19 UNL     1      34.277   3.218  46.311  1.00  0.00    -0.000 C 
HETATM   15  C20 UNL     1      33.864   3.029  47.514  1.00  0.00     0.086 C 
HETATM   16  N4  UNL     1      33.183   3.856  48.434  1.00  0.00    -0.350 N 
HETATM   17  N5  UNL     1      30.994   8.120  47.703  1.00  0.00    -0.194 NA
HETATM   18  C21 UNL     1      30.951   8.912  48.887  1.00  0.00     0.140 C 
HETATM   19  H21 UNL     1      32.638   3.753  49.311  1.00  0.00     0.166 HD
ENDROOT
BRANCH   1  20
HETATM   20  C9  UNL     1      28.611   7.330  47.487  1.00  0.00     0.130 A 
HETATM   21  C8  UNL     1      27.713   6.331  48.034  1.00  0.00     0.013 A 
HETATM   22  C7  UNL     1      27.105   7.140  48.856  1.00  0.00     0.018 A 
HETATM   23  C22 UNL     1      27.928   8.265  48.417  1.00  0.00     0.075 A 
BRANCH  22  24
HETATM   24  C6  UNL     1      26.028   6.967  49.824  1.00  0.00     0.289 C 
HETATM   25  O2  UNL     1      25.418   7.981  50.244  1.00  0.00    -0.260 OA
BRANCH  24  26
HETATM   26  O1  UNL     1      25.678   5.697  50.279  1.00  0.00    -0.307 OA
BRANCH  26  27
HETATM   27  C3  UNL     1      24.506   5.029  49.848  1.00  0.00     0.063 C 
HETATM   28  C4  UNL     1      24.077   5.554  48.495  1.00  0.00     0.046 C 
HETATM   29  C5  UNL     1      23.438   5.256  50.888  1.00  0.00     0.046 C 
BRANCH  27  30
HETATM   30  C2  UNL     1      24.882   3.558  49.754  1.00  0.00     0.033 C 
HETATM   31  C1  UNL     1      26.362   3.369  49.534  1.00  0.00     0.008 C 
ENDBRANCH  27  30
ENDBRANCH  26  27
ENDBRANCH  24  26
ENDBRANCH  22  24
ENDBRANCH   1  20
TORSDOF 5
ENDMDL
MODEL 8
REMARK VINA RESULT:      -7.5      3.446      5.303
REMARK  5 active torsions:
REMARK  status: ('A' for Active; 'I' for Inactive)
REMARK    1  A    between atoms: C2_2  and  C3_3 
REMARK    2  A    between atoms: C3_3  and  O1_6 
REMARK    3  A    between atoms: O1_6  and  C6_7 
REMARK    4  A    between atoms: C6_7  and  C7_9 
REMARK    5  A    between atoms: C9_11  and  N1_12 
ROOT
HETATM    1  N1  UNL     1      24.801   5.882  49.055  1.00  0.00    -0.310 N 
HETATM    2  C10 UNL     1      26.203   5.810  49.279  1.00  0.00     0.121 C 
HETATM    3  C11 UNL     1      26.620   7.011  49.015  1.00  0.00     0.055 C 
HETATM    4  C12 UNL     1      27.862   7.761  48.993  1.00  0.00     0.140 C 
HETATM    5  N2  UNL     1      27.981   9.020  49.010  1.00  0.00    -0.224 NA
HETATM    6  C13 UNL     1      26.796   9.817  49.261  1.00  0.00     0.232 C 
HETATM    7  N3  UNL     1      25.707   9.108  49.445  1.00  0.00    -0.245 NA
HETATM    8  C14 UNL     1      25.523   7.928  48.607  1.00  0.00     0.179 C 
HETATM    9  C15 UNL     1      25.702   8.261  47.187  1.00  0.00     0.053 C 
HETATM   10  C16 UNL     1      26.189   8.486  45.951  1.00  0.00     0.031 C 
HETATM   11 CL1  UNL     1      25.051   9.031  44.681  1.00  0.00    -0.085 Cl
HETATM   12  C17 UNL     1      27.575   8.389  45.420  1.00  0.00     0.006 C 
HETATM   13  C18 UNL     1      28.634   8.044  46.103  1.00  0.00     0.045 C 
HETATM   14  C19 UNL     1      29.922   7.699  46.642  1.00  0.00    -0.000 C 
HETATM   15  C20 UNL     1      30.077   7.355  47.871  1.00  0.00     0.086 C 
HETATM   16  N4  UNL     1      29.174   7.218  48.948  1.00  0.00    -0.350 N 
HETATM   17  N5  UNL     1      24.325   7.187  48.914  1.00  0.00    -0.194 NA
HETATM   18  C21 UNL     1      23.776   7.621  50.155  1.00  0.00     0.140 C 
HETATM   19  H21 UNL     1      29.147   6.769  49.883  1.00  0.00     0.166 HD
ENDROOT
BRANCH   1  20
HETATM   20  C9  UNL     1      23.927   4.699  48.979  1.00  0.00     0.130 A 
HETATM   21  C8  UNL     1      24.567   3.451  49.348  1.00  0.00     0.013 A 
HETATM   22  C7  UNL     1      23.845   3.245  50.414  1.00  0.00     0.018 A 
HETATM   23  C22 UNL     1      23.097   4.481  50.190  1.00  0.00     0.075 A 
BRANCH  22  24
HETATM   24  C6  UNL     1      23.815   2.190  51.420  1.00  0.00     0.289 C 
HETATM   25  O2  UNL     1      23.070   1.197  51.239  1.00  0.00    -0.260 OA
BRANCH  24  26
HETATM   26  O1  UNL     1      24.601   2.280  52.568  1.00  0.00    -0.307 OA
BRANCH  26  27
HETATM   27  C3  UNL     1      25.673   1.392  52.829  1.00  0.00     0.063 C 
HETATM   28  C4  UNL     1      26.466   1.151  51.563  1.00  0.00     0.046 C 
HETATM   29  C5  UNL     1      25.088   0.108  53.362  1.00  0.00     0.046 C 
BRANCH  27  30
HETATM   30  C2  UNL     1      26.535   2.083  53.875  1.00  0.00     0.033 C 
HETATM   31  C1  UNL     1      27.951   2.279  53.396  1.00  0.00     0.008 C 
ENDBRANCH  27  30
ENDBRANCH  26  27
ENDBRANCH  24  26
ENDBRANCH  22  24
ENDBRANCH   1  20
TORSDOF 5
ENDMDL
MODEL 9
REMARK VINA RESULT:      -7.4      3.605      7.582
REMARK  5 active torsions:
REMARK  status: ('A' for Active; 'I' for Inactive)
REMARK    1  A    between atoms: C2_2  and  C3_3 
REMARK    2  A    between atoms: C3_3  and  O1_6 
REMARK    3  A    between atoms: O1_6  and  C6_7 
REMARK    4  A    between atoms: C6_7  and  C7_9 
REMARK    5  A    between atoms: C9_11  and  N1_12 
ROOT
HETATM    1  N1  UNL     1      21.593   2.971  49.586  1.00  0.00    -0.310 N 
HETATM    2  C10 UNL     1      22.065   1.898  50.391  1.00  0.00     0.121 C 
HETATM    3  C11 UNL     1      22.907   2.466  51.200  1.00  0.00     0.055 C 
HETATM    4  C12 UNL     1      23.792   2.106  52.292  1.00  0.00     0.140 C 
HETATM    5  N2  UNL     1      24.286   2.893  53.150  1.00  0.00    -0.224 NA
HETATM    6  C13 UNL     1      23.798   4.257  53.190  1.00  0.00     0.232 C 
HETATM    7  N3  UNL     1      22.872   4.518  52.297  1.00  0.00    -0.245 NA
HETATM    8  C14 UNL     1      23.031   3.930  50.971  1.00  0.00     0.179 C 
HETATM    9  C15 UNL     1      24.372   4.203  50.435  1.00  0.00     0.053 C 
HETATM   10  C16 UNL     1      25.676   4.159  50.098  1.00  0.00     0.031 C 
HETATM   11 CL1  UNL     1      26.337   5.496  49.108  1.00  0.00    -0.085 Cl
HETATM   12  C17 UNL     1      26.735   3.170  50.435  1.00  0.00     0.006 C 
HETATM   13  C18 UNL     1      26.576   2.098  51.163  1.00  0.00     0.045 C 
HETATM   14  C19 UNL     1      26.644   0.879  51.924  1.00  0.00    -0.000 C 
HETATM   15  C20 UNL     1      25.612   0.384  52.512  1.00  0.00     0.086 C 
HETATM   16  N4  UNL     1      24.267   0.803  52.598  1.00  0.00    -0.350 N 
HETATM   17  N5  UNL     1      21.943   4.231  50.075  1.00  0.00    -0.194 NA
HETATM   18  C21 UNL     1      20.840   4.774  50.796  1.00  0.00     0.140 C 
HETATM   19  H21 UNL     1      23.346   0.399  52.853  1.00  0.00     0.166 HD
ENDROOT
BRANCH   1  20
HETATM   20  C9  UNL     1      20.809   2.780  48.354  1.00  0.00     0.130 A 
HETATM   21  C8  UNL     1      20.638   3.979  47.556  1.00  0.00     0.013 A 
HETATM   22  C7  UNL     1      21.333   3.556  46.536  1.00  0.00     0.018 A 
HETATM   23  C22 UNL     1      21.604   2.283  47.203  1.00  0.00     0.075 A 
BRANCH  22  24
HETATM   24  C6  UNL     1      21.687   4.141  45.249  1.00  0.00     0.289 C 
HETATM   25  O2  UNL     1      21.272   3.597  44.197  1.00  0.00    -0.260 OA
BRANCH  24  26
HETATM   26  O1  UNL     1      22.476   5.289  45.182  1.00  0.00    -0.307 OA
BRANCH  26  27
HETATM   27  C3  UNL     1      21.923   6.590  45.098  1.00  0.00     0.063 C 
HETATM   28  C4  UNL     1      20.466   6.509  44.699  1.00  0.00     0.046 C 
HETATM   29  C5  UNL     1      22.726   7.367  44.086  1.00  0.00     0.046 C 
BRANCH  27  30
HETATM   30  C2  UNL     1      22.062   7.187  46.490  1.00  0.00     0.033 C 
HETATM   31  C1  UNL     1      23.331   6.737  47.170  1.00  0.00     0.008 C 
ENDBRANCH  27  30
ENDBRANCH  26  27
ENDBRANCH  24  26
ENDBRANCH  22  24
ENDBRANCH   1  20
TORSDOF 5
ENDMDL
