MODEL 1
REMARK VINA RESULT:      -8.8      0.000      0.000
REMARK  6 active torsions:
REMARK  status: ('A' for Active; 'I' for Inactive)
REMARK    1  A    between atoms: C4_4  and  C5_5 
REMARK    2  A    between atoms: C5_5  and  C6_6 
REMARK    3  A    between atoms: C12_13  and  O1_16 
REMARK    4  A    between atoms: O1_16  and  C14_17 
REMARK    5  A    between atoms: C14_17  and  C15_18 
REMARK    6  A    between atoms: C20_23  and  O2_24 
ROOT
HETATM    1  C6  UNL     1      22.983   2.928  52.071  1.00  0.00     0.057 C 
HETATM    2  C7  UNL     1      21.644   3.551  52.228  1.00  0.00     0.130 C 
HETATM    3  N1  UNL     1      21.127   4.166  51.006  1.00  0.00    -0.394 N 
HETATM    4  C8  UNL     1      20.007   3.682  50.187  1.00  0.00     0.148 C 
HETATM    5  C9  UNL     1      21.771   5.374  50.539  1.00  0.00     0.081 C 
HETATM    6  C10 UNL     1      22.940   5.970  50.842  1.00  0.00    -0.006 C 
HETATM    7  C11 UNL     1      23.803   5.276  51.881  1.00  0.00     0.082 C 
HETATM    8  C12 UNL     1      24.060   3.850  51.480  1.00  0.00     0.157 C 
HETATM    9  C13 UNL     1      23.842   3.823  50.003  1.00  0.00     0.098 C 
HETATM   10  N2  UNL     1      23.684   3.817  48.844  1.00  0.00    -0.194 NA
ENDROOT
BRANCH   8  11
HETATM   11  O1  UNL     1      25.225   3.407  51.869  1.00  0.00    -0.360 OA
BRANCH  11  12
HETATM   12  C14 UNL     1      26.200   2.716  51.391  1.00  0.00     0.211 C 
BRANCH  12  13
HETATM   13  C15 UNL     1      26.635   1.519  52.130  1.00  0.00    -0.001 A 
HETATM   14  C16 UNL     1      26.496   0.198  51.669  1.00  0.00     0.012 A 
HETATM   15  C17 UNL     1      26.862  -0.918  52.359  1.00  0.00     0.001 A 
HETATM   16  C18 UNL     1      27.419  -0.756  53.624  1.00  0.00     0.003 A 
HETATM   17  C19 UNL     1      27.585   0.513  54.140  1.00  0.00     0.037 A 
HETATM   18  C20 UNL     1      27.200   1.616  53.408  1.00  0.00     0.074 A 
BRANCH  18  19
HETATM   19  O2  UNL     1      27.385   2.868  53.963  1.00  0.00    -0.360 OA
HETATM   20  H23 UNL     1      26.811   3.136  54.771  1.00  0.00     0.217 HD
ENDBRANCH  18  19
ENDBRANCH  12  13
ENDBRANCH  11  12
ENDBRANCH   8  11
BRANCH   1  21
HETATM   21  C5  UNL     1      22.847   1.673  51.235  1.00  0.00     0.049 C 
BRANCH  21  22
HETATM   22  C4  UNL     1      22.363   0.508  52.032  1.00  0.00    -0.047 C 
HETATM   23  C3  UNL     1      23.244  -0.001  53.085  1.00  0.00     0.010 C 
HETATM   24  C2  UNL     1      22.960  -0.752  54.163  1.00  0.00    -0.083 C 
HETATM   25  C1  UNL     1      24.120  -1.105  55.056  1.00  0.00     0.043 C 
HETATM   26  C24 UNL     1      21.661  -1.290  54.607  1.00  0.00     0.037 C 
HETATM   27  C23 UNL     1      20.486  -0.416  54.254  1.00  0.00     0.032 C 
HETATM   28  C22 UNL     1      20.392  -0.073  52.830  1.00  0.00    -0.014 C 
HETATM   29  C21 UNL     1      21.182  -0.035  51.787  1.00  0.00    -0.023 C 
ENDBRANCH  21  22
ENDBRANCH   1  21
TORSDOF 6
ENDMDL
MODEL 2
REMARK VINA RESULT:      -8.4      0.962      1.802
REMARK  6 active torsions:
REMARK  status: ('A' for Active; 'I' for Inactive)
REMARK    1  A    between atoms: C4_4  and  C5_5 
REMARK    2  A    between atoms: C5_5  and  C6_6 
REMARK    3  A    between atoms: C12_13  and  O1_16 
REMARK    4  A    between atoms: O1_16  and  C14_17 
REMARK    5  A    between atoms: C14_17  and  C15_18 
REMARK    6  A    between atoms: C20_23  and  O2_24 
ROOT
HETATM    1  C6  UNL     1      23.377   3.104  51.575  1.00  0.00     0.057 C 
HETATM    2  C7  UNL     1      22.487   4.216  51.998  1.00  0.00     0.130 C 
HETATM    3  N1  UNL     1      21.739   4.830  50.902  1.00  0.00    -0.394 N 
HETATM    4  C8  UNL     1      20.293   4.727  50.663  1.00  0.00     0.148 C 
HETATM    5  C9  UNL     1      22.479   5.622  49.944  1.00  0.00     0.081 C 
HETATM    6  C10 UNL     1      23.793   5.744  49.670  1.00  0.00    -0.006 C 
HETATM    7  C11 UNL     1      24.738   4.901  50.506  1.00  0.00     0.082 C 
HETATM    8  C12 UNL     1      24.348   3.450  50.436  1.00  0.00     0.157 C 
HETATM    9  C13 UNL     1      23.549   3.330  49.179  1.00  0.00     0.098 C 
HETATM   10  N2  UNL     1      22.939   3.244  48.186  1.00  0.00    -0.194 NA
ENDROOT
BRANCH   8  11
HETATM   11  O1  UNL     1      25.366   2.637  50.516  1.00  0.00    -0.360 OA
BRANCH  11  12
HETATM   12  C14 UNL     1      26.445   2.511  51.207  1.00  0.00     0.211 C 
BRANCH  12  13
HETATM   13  C15 UNL     1      26.542   1.385  52.150  1.00  0.00    -0.001 A 
HETATM   14  C16 UNL     1      26.574   0.029  51.779  1.00  0.00     0.012 A 
HETATM   15  C17 UNL     1      26.628  -1.022  52.644  1.00  0.00     0.001 A 
HETATM   16  C18 UNL     1      26.654  -0.750  54.008  1.00  0.00     0.003 A 
HETATM   17  C19 UNL     1      26.625   0.559  54.444  1.00  0.00     0.037 A 
HETATM   18  C20 UNL     1      26.570   1.593  53.535  1.00  0.00     0.074 A 
BRANCH  18  19
HETATM   19  O2  UNL     1      26.543   2.889  54.016  1.00  0.00    -0.360 OA
HETATM   20  H23 UNL     1      25.649   3.392  54.017  1.00  0.00     0.217 HD
ENDBRANCH  18  19
ENDBRANCH  12  13
ENDBRANCH  11  12
ENDBRANCH   8  11
BRANCH   1  21
HETATM   21  C5  UNL     1      22.525   1.911  51.196  1.00  0.00     0.049 C 
BRANCH  21  22
HETATM   22  C4  UNL     1      22.088   1.124  52.386  1.00  0.00    -0.047 C 
HETATM   23  C3  UNL     1      20.707   0.636  52.404  1.00  0.00     0.010 C 
HETATM   24  C2  UNL     1      20.150  -0.361  53.113  1.00  0.00    -0.083 C 
HETATM   25  C1  UNL     1      18.681  -0.600  52.888  1.00  0.00     0.043 C 
HETATM   26  C24 UNL     1      20.774  -1.268  54.093  1.00  0.00     0.037 C 
HETATM   27  C23 UNL     1      22.220  -1.575  53.806  1.00  0.00     0.032 C 
HETATM   28  C22 UNL     1      23.073  -0.391  53.650  1.00  0.00    -0.014 C 
HETATM   29  C21 UNL     1      22.926   0.882  53.381  1.00  0.00    -0.023 C 
ENDBRANCH  21  22
ENDBRANCH   1  21
TORSDOF 6
ENDMDL
MODEL 3
REMARK VINA RESULT:      -8.4      2.830      6.738
REMARK  6 active torsions:
REMARK  status: ('A' for Active; 'I' for Inactive)
REMARK    1  A    between atoms: C4_4  and  C5_5 
REMARK    2  A    between atoms: C5_5  and  C6_6 
REMARK    3  A    between atoms: C12_13  and  O1_16 
REMARK    4  A    between atoms: O1_16  and  C14_17 
REMARK    5  A    between atoms: C14_17  and  C15_18 
REMARK    6  A    between atoms: C20_23  and  O2_24 
ROOT
HETATM    1  C6  UNL     1      25.052   1.324  53.111  1.00  0.00     0.057 C 
HETATM    2  C7  UNL     1      26.003   2.184  53.860  1.00  0.00     0.130 C 
HETATM    3  N1  UNL     1      27.369   1.666  53.900  1.00  0.00    -0.394 N 
HETATM    4  C8  UNL     1      28.539   2.222  53.206  1.00  0.00     0.148 C 
HETATM    5  C9  UNL     1      27.616   0.485  54.698  1.00  0.00     0.081 C 
HETATM    6  C10 UNL     1      26.805  -0.437  55.253  1.00  0.00    -0.006 C 
HETATM    7  C11 UNL     1      25.317  -0.250  55.027  1.00  0.00     0.082 C 
HETATM    8  C12 UNL     1      25.018  -0.145  53.558  1.00  0.00     0.157 C 
HETATM    9  C13 UNL     1      26.182  -0.794  52.884  1.00  0.00     0.098 C 
HETATM   10  N2  UNL     1      27.091  -1.319  52.368  1.00  0.00    -0.194 NA
ENDROOT
BRANCH   8  11
HETATM   11  O1  UNL     1      23.853  -0.637  53.231  1.00  0.00    -0.360 OA
BRANCH  11  12
HETATM   12  C14 UNL     1      22.643  -0.615  53.667  1.00  0.00     0.211 C 
BRANCH  12  13
HETATM   13  C15 UNL     1      21.573  -0.214  52.738  1.00  0.00    -0.001 A 
HETATM   14  C16 UNL     1      21.784   0.371  51.478  1.00  0.00     0.012 A 
HETATM   15  C17 UNL     1      20.802   0.778  50.625  1.00  0.00     0.001 A 
HETATM   16  C18 UNL     1      19.478   0.609  51.019  1.00  0.00     0.003 A 
HETATM   17  C19 UNL     1      19.197   0.041  52.245  1.00  0.00     0.037 A 
HETATM   18  C20 UNL     1      20.221  -0.357  53.077  1.00  0.00     0.074 A 
BRANCH  18  19
HETATM   19  O2  UNL     1      19.894  -0.921  54.296  1.00  0.00    -0.360 OA
HETATM   20  H23 UNL     1      19.166  -0.474  54.863  1.00  0.00     0.217 HD
ENDBRANCH  18  19
ENDBRANCH  12  13
ENDBRANCH  11  12
ENDBRANCH   8  11
BRANCH   1  21
HETATM   21  C5  UNL     1      25.365   1.418  51.632  1.00  0.00     0.049 C 
BRANCH  21  22
HETATM   22  C4  UNL     1      25.114   2.783  51.084  1.00  0.00    -0.047 C 
HETATM   23  C3  UNL     1      26.184   3.402  50.298  1.00  0.00     0.010 C 
HETATM   24  C2  UNL     1      26.133   4.405  49.404  1.00  0.00    -0.083 C 
HETATM   25  C1  UNL     1      27.439   4.801  48.770  1.00  0.00     0.043 C 
HETATM   26  C24 UNL     1      24.969   5.185  48.946  1.00  0.00     0.037 C 
HETATM   27  C23 UNL     1      23.679   4.408  48.935  1.00  0.00     0.032 C 
HETATM   28  C22 UNL     1      23.345   3.769  50.213  1.00  0.00    -0.014 C 
HETATM   29  C21 UNL     1      23.965   3.400  51.306  1.00  0.00    -0.023 C 
ENDBRANCH  21  22
ENDBRANCH   1  21
TORSDOF 6
ENDMDL
MODEL 4
REMARK VINA RESULT:      -8.1      2.669      5.954
REMARK  6 active torsions:
REMARK  status: ('A' for Active; 'I' for Inactive)
REMARK    1  A    between atoms: C4_4  and  C5_5 
REMARK    2  A    between atoms: C5_5  and  C6_6 
REMARK    3  A    between atoms: C12_13  and  O1_16 
REMARK    4  A    between atoms: O1_16  and  C14_17 
REMARK    5  A    between atoms: C14_17  and  C15_18 
REMARK    6  A    between atoms: C20_23  and  O2_24 
ROOT
HETATM    1  C6  UNL     1      24.848   3.154  50.137  1.00  0.00     0.057 C 
HETATM    2  C7  UNL     1      23.779   3.413  49.139  1.00  0.00     0.130 C 
HETATM    3  N1  UNL     1      22.637   4.156  49.669  1.00  0.00    -0.394 N 
HETATM    4  C8  UNL     1      22.269   5.543  49.350  1.00  0.00     0.148 C 
HETATM    5  C9  UNL     1      21.770   3.476  50.606  1.00  0.00     0.081 C 
HETATM    6  C10 UNL     1      21.898   2.344  51.325  1.00  0.00    -0.006 C 
HETATM    7  C11 UNL     1      23.201   1.584  51.159  1.00  0.00     0.082 C 
HETATM    8  C12 UNL     1      24.373   2.485  51.436  1.00  0.00     0.157 C 
HETATM    9  C13 UNL     1      23.816   3.589  52.274  1.00  0.00     0.098 C 
HETATM   10  N2  UNL     1      23.373   4.439  52.942  1.00  0.00    -0.194 NA
ENDROOT
BRANCH   8  11
HETATM   11  O1  UNL     1      25.391   1.860  51.961  1.00  0.00    -0.360 OA
BRANCH  11  12
HETATM   12  C14 UNL     1      25.626   0.766  52.598  1.00  0.00     0.211 C 
BRANCH  12  13
HETATM   13  C15 UNL     1      27.012   0.476  53.001  1.00  0.00    -0.001 A 
HETATM   14  C16 UNL     1      27.646  -0.770  52.849  1.00  0.00     0.012 A 
HETATM   15  C17 UNL     1      28.915  -1.060  53.249  1.00  0.00     0.001 A 
HETATM   16  C18 UNL     1      29.658  -0.055  53.861  1.00  0.00     0.003 A 
HETATM   17  C19 UNL     1      29.097   1.193  54.043  1.00  0.00     0.037 A 
HETATM   18  C20 UNL     1      27.809   1.444  53.623  1.00  0.00     0.074 A 
BRANCH  18  19
HETATM   19  O2  UNL     1      27.288   2.708  53.826  1.00  0.00    -0.360 OA
HETATM   20  H23 UNL     1      26.336   2.792  54.199  1.00  0.00     0.217 HD
ENDBRANCH  18  19
ENDBRANCH  12  13
ENDBRANCH  11  12
ENDBRANCH   8  11
BRANCH   1  21
HETATM   21  C5  UNL     1      25.558   4.456  50.445  1.00  0.00     0.049 C 
BRANCH  21  22
HETATM   22  C4  UNL     1      26.255   5.019  49.252  1.00  0.00    -0.047 C 
HETATM   23  C3  UNL     1      25.742   6.277  48.702  1.00  0.00     0.010 C 
HETATM   24  C2  UNL     1      26.342   7.184  47.912  1.00  0.00    -0.083 C 
HETATM   25  C1  UNL     1      25.516   8.382  47.525  1.00  0.00     0.043 C 
HETATM   26  C24 UNL     1      27.709   7.179  47.360  1.00  0.00     0.037 C 
HETATM   27  C23 UNL     1      28.723   6.506  48.247  1.00  0.00     0.032 C 
HETATM   28  C22 UNL     1      28.370   5.138  48.643  1.00  0.00    -0.014 C 
HETATM   29  C21 UNL     1      27.293   4.397  48.720  1.00  0.00    -0.023 C 
ENDBRANCH  21  22
ENDBRANCH   1  21
TORSDOF 6
ENDMDL
MODEL 5
REMARK VINA RESULT:      -8.0      1.888      5.187
REMARK  6 active torsions:
REMARK  status: ('A' for Active; 'I' for Inactive)
REMARK    1  A    between atoms: C4_4  and  C5_5 
REMARK    2  A    between atoms: C5_5  and  C6_6 
REMARK    3  A    between atoms: C12_13  and  O1_16 
REMARK    4  A    between atoms: O1_16  and  C14_17 
REMARK    5  A    between atoms: C14_17  and  C15_18 
REMARK    6  A    between atoms: C20_23  and  O2_24 
ROOT
HETATM    1  C6  UNL     1      25.494   2.437  50.725  1.00  0.00     0.057 C 
HETATM    2  C7  UNL     1      26.090   2.937  49.459  1.00  0.00     0.130 C 
HETATM    3  N1  UNL     1      25.845   4.356  49.207  1.00  0.00    -0.394 N 
HETATM    4  C8  UNL     1      26.837   5.439  49.255  1.00  0.00     0.148 C 
HETATM    5  C9  UNL     1      24.495   4.755  48.874  1.00  0.00     0.081 C 
HETATM    6  C10 UNL     1      23.301   4.140  48.976  1.00  0.00    -0.006 C 
HETATM    7  C11 UNL     1      23.313   2.736  49.552  1.00  0.00     0.082 C 
HETATM    8  C12 UNL     1      23.995   2.725  50.892  1.00  0.00     0.157 C 
HETATM    9  C13 UNL     1      23.911   4.136  51.375  1.00  0.00     0.098 C 
HETATM   10  N2  UNL     1      23.825   5.240  51.750  1.00  0.00    -0.194 NA
ENDROOT
BRANCH   8  11
HETATM   11  O1  UNL     1      23.504   1.836  51.713  1.00  0.00    -0.360 OA
BRANCH  11  12
HETATM   12  C14 UNL     1      22.502   1.030  51.773  1.00  0.00     0.211 C 
BRANCH  12  13
HETATM   13  C15 UNL     1      22.404   0.123  52.929  1.00  0.00    -0.001 A 
HETATM   14  C16 UNL     1      23.485  -0.257  53.743  1.00  0.00     0.012 A 
HETATM   15  C17 UNL     1      23.412  -1.123  54.793  1.00  0.00     0.001 A 
HETATM   16  C18 UNL     1      22.176  -1.686  55.096  1.00  0.00     0.003 A 
HETATM   17  C19 UNL     1      21.071  -1.357  54.338  1.00  0.00     0.037 A 
HETATM   18  C20 UNL     1      21.189  -0.476  53.284  1.00  0.00     0.074 A 
BRANCH  18  19
HETATM   19  O2  UNL     1      20.056  -0.175  52.551  1.00  0.00    -0.360 OA
HETATM   20  H23 UNL     1      19.658  -0.900  51.945  1.00  0.00     0.217 HD
ENDBRANCH  18  19
ENDBRANCH  12  13
ENDBRANCH  11  12
ENDBRANCH   8  11
BRANCH   1  21
HETATM   21  C5  UNL     1      26.273   3.005  51.892  1.00  0.00     0.049 C 
BRANCH  21  22
HETATM   22  C4  UNL     1      26.883   1.940  52.741  1.00  0.00    -0.047 C 
HETATM   23  C3  UNL     1      26.600   0.547  52.384  1.00  0.00     0.010 C 
HETATM   24  C2  UNL     1      27.262  -0.579  52.699  1.00  0.00    -0.083 C 
HETATM   25  C1  UNL     1      26.689  -1.863  52.160  1.00  0.00     0.043 C 
HETATM   26  C24 UNL     1      28.483  -0.746  53.508  1.00  0.00     0.037 C 
HETATM   27  C23 UNL     1      29.439   0.414  53.415  1.00  0.00     0.032 C 
HETATM   28  C22 UNL     1      28.843   1.718  53.726  1.00  0.00    -0.014 C 
HETATM   29  C21 UNL     1      27.648   2.253  53.773  1.00  0.00    -0.023 C 
ENDBRANCH  21  22
ENDBRANCH   1  21
TORSDOF 6
ENDMDL
MODEL 6
REMARK VINA RESULT:      -7.8      2.650      6.462
REMARK  6 active torsions:
REMARK  status: ('A' for Active; 'I' for Inactive)
REMARK    1  A    between atoms: C4_4  and  C5_5 
REMARK    2  A    between atoms: C5_5  and  C6_6 
REMARK    3  A    between atoms: C12_13  and  O1_16 
REMARK    4  A    between atoms: O1_16  and  C14_17 
REMARK    5  A    between atoms: C14_17  and  C15_18 
REMARK    6  A    between atoms: C20_23  and  O2_24 
ROOT
HETATM    1  C6  UNL     1      25.102   1.648  53.015  1.00  0.00     0.057 C 
HETATM    2  C7  UNL     1      26.055   2.393  53.876  1.00  0.00     0.130 C 
HETATM    3  N1  UNL     1      27.404   1.830  53.896  1.00  0.00    -0.394 N 
HETATM    4  C8  UNL     1      28.609   2.420  53.296  1.00  0.00     0.148 C 
HETATM    5  C9  UNL     1      27.594   0.564  54.569  1.00  0.00     0.081 C 
HETATM    6  C10 UNL     1      26.741  -0.386  55.001  1.00  0.00    -0.006 C 
HETATM    7  C11 UNL     1      25.265  -0.129  54.758  1.00  0.00     0.082 C 
HETATM    8  C12 UNL     1      25.013   0.141  53.301  1.00  0.00     0.157 C 
HETATM    9  C13 UNL     1      26.177  -0.469  52.592  1.00  0.00     0.098 C 
HETATM   10  N2  UNL     1      27.085  -0.964  52.046  1.00  0.00    -0.194 NA
ENDROOT
BRANCH   8  11
HETATM   11  O1  UNL     1      23.845  -0.276  52.893  1.00  0.00    -0.360 OA
BRANCH  11  12
HETATM   12  C14 UNL     1      22.840  -0.931  53.361  1.00  0.00     0.211 C 
BRANCH  12  13
HETATM   13  C15 UNL     1      21.496  -0.600  52.858  1.00  0.00    -0.001 A 
HETATM   14  C16 UNL     1      21.236   0.092  51.663  1.00  0.00     0.012 A 
HETATM   15  C17 UNL     1      19.998   0.435  51.206  1.00  0.00     0.001 A 
HETATM   16  C18 UNL     1      18.893   0.081  51.972  1.00  0.00     0.003 A 
HETATM   17  C19 UNL     1      19.075  -0.600  53.159  1.00  0.00     0.037 A 
HETATM   18  C20 UNL     1      20.344  -0.927  53.585  1.00  0.00     0.074 A 
BRANCH  18  19
HETATM   19  O2  UNL     1      20.480  -1.609  54.779  1.00  0.00    -0.360 OA
HETATM   20  H23 UNL     1      20.862  -2.562  54.759  1.00  0.00     0.217 HD
ENDBRANCH  18  19
ENDBRANCH  12  13
ENDBRANCH  11  12
ENDBRANCH   8  11
BRANCH   1  21
HETATM   21  C5  UNL     1      25.460   1.888  51.563  1.00  0.00     0.049 C 
BRANCH  21  22
HETATM   22  C4  UNL     1      24.420   2.681  50.844  1.00  0.00    -0.047 C 
HETATM   23  C3  UNL     1      23.155   2.924  51.542  1.00  0.00     0.010 C 
HETATM   24  C2  UNL     1      22.217   3.864  51.331  1.00  0.00    -0.083 C 
HETATM   25  C1  UNL     1      21.021   3.829  52.244  1.00  0.00     0.043 C 
HETATM   26  C24 UNL     1      22.186   4.938  50.323  1.00  0.00     0.037 C 
HETATM   27  C23 UNL     1      23.547   5.465  49.951  1.00  0.00     0.032 C 
HETATM   28  C22 UNL     1      24.497   4.436  49.513  1.00  0.00    -0.014 C 
HETATM   29  C21 UNL     1      24.643   3.139  49.624  1.00  0.00    -0.023 C 
ENDBRANCH  21  22
ENDBRANCH   1  21
TORSDOF 6
ENDMDL
MODEL 7
REMARK VINA RESULT:      -7.8      1.905      4.973
REMARK  6 active torsions:
REMARK  status: ('A' for Active; 'I' for Inactive)
REMARK    1  A    between atoms: C4_4  and  C5_5 
REMARK    2  A    between atoms: C5_5  and  C6_6 
REMARK    3  A    between atoms: C12_13  and  O1_16 
REMARK    4  A    between atoms: O1_16  and  C14_17 
REMARK    5  A    between atoms: C14_17  and  C15_18 
REMARK    6  A    between atoms: C20_23  and  O2_24 
ROOT
HETATM    1  C6  UNL     1      22.138   2.464  50.284  1.00  0.00     0.057 C 
HETATM    2  C7  UNL     1      21.367   2.090  49.070  1.00  0.00     0.130 C 
HETATM    3  N1  UNL     1      19.918   2.205  49.227  1.00  0.00    -0.394 N 
HETATM    4  C8  UNL     1      19.043   3.202  48.593  1.00  0.00     0.148 C 
HETATM    5  C9  UNL     1      19.258   1.251  50.091  1.00  0.00     0.081 C 
HETATM    6  C10 UNL     1      19.709   0.383  51.018  1.00  0.00    -0.006 C 
HETATM    7  C11 UNL     1      21.209   0.359  51.246  1.00  0.00     0.082 C 
HETATM    8  C12 UNL     1      21.713   1.738  51.569  1.00  0.00     0.157 C 
HETATM    9  C13 UNL     1      20.514   2.476  52.067  1.00  0.00     0.098 C 
HETATM   10  N2  UNL     1      19.572   3.039  52.470  1.00  0.00    -0.194 NA
ENDROOT
BRANCH   8  11
HETATM   11  O1  UNL     1      22.732   1.738  52.385  1.00  0.00    -0.360 OA
BRANCH  11  12
HETATM   12  C14 UNL     1      23.412   0.890  53.075  1.00  0.00     0.211 C 
BRANCH  12  13
HETATM   13  C15 UNL     1      24.881   0.941  52.994  1.00  0.00    -0.001 A 
HETATM   14  C16 UNL     1      25.706  -0.157  52.694  1.00  0.00     0.012 A 
HETATM   15  C17 UNL     1      27.067  -0.129  52.650  1.00  0.00     0.001 A 
HETATM   16  C18 UNL     1      27.710   1.074  52.924  1.00  0.00     0.003 A 
HETATM   17  C19 UNL     1      26.962   2.194  53.227  1.00  0.00     0.037 A 
HETATM   18  C20 UNL     1      25.586   2.122  53.260  1.00  0.00     0.074 A 
BRANCH  18  19
HETATM   19  O2  UNL     1      24.877   3.268  53.568  1.00  0.00    -0.360 OA
HETATM   20  H23 UNL     1      24.832   4.019  52.870  1.00  0.00     0.217 HD
ENDBRANCH  18  19
ENDBRANCH  12  13
ENDBRANCH  11  12
ENDBRANCH   8  11
BRANCH   1  21
HETATM   21  C5  UNL     1      22.056   3.964  50.474  1.00  0.00     0.049 C 
BRANCH  21  22
HETATM   22  C4  UNL     1      23.389   4.625  50.361  1.00  0.00    -0.047 C 
HETATM   23  C3  UNL     1      24.553   3.763  50.143  1.00  0.00     0.010 C 
HETATM   24  C2  UNL     1      25.769   4.059  49.651  1.00  0.00    -0.083 C 
HETATM   25  C1  UNL     1      26.747   2.918  49.560  1.00  0.00     0.043 C 
HETATM   26  C24 UNL     1      26.294   5.354  49.182  1.00  0.00     0.037 C 
HETATM   27  C23 UNL     1      25.250   6.249  48.568  1.00  0.00     0.032 C 
HETATM   28  C22 UNL     1      24.083   6.495  49.423  1.00  0.00    -0.014 C 
HETATM   29  C21 UNL     1      23.502   5.939  50.457  1.00  0.00    -0.023 C 
ENDBRANCH  21  22
ENDBRANCH   1  21
TORSDOF 6
ENDMDL
MODEL 8
REMARK VINA RESULT:      -7.6      2.064      5.404
REMARK  6 active torsions:
REMARK  status: ('A' for Active; 'I' for Inactive)
REMARK    1  A    between atoms: C4_4  and  C5_5 
REMARK    2  A    between atoms: C5_5  and  C6_6 
REMARK    3  A    between atoms: C12_13  and  O1_16 
REMARK    4  A    between atoms: O1_16  and  C14_17 
REMARK    5  A    between atoms: C14_17  and  C15_18 
REMARK    6  A    between atoms: C20_23  and  O2_24 
ROOT
HETATM    1  C6  UNL     1      22.676   2.012  50.546  1.00  0.00     0.057 C 
HETATM    2  C7  UNL     1      21.876   1.627  49.355  1.00  0.00     0.130 C 
HETATM    3  N1  UNL     1      20.447   1.907  49.482  1.00  0.00    -0.394 N 
HETATM    4  C8  UNL     1      19.687   2.937  48.760  1.00  0.00     0.148 C 
HETATM    5  C9  UNL     1      19.685   1.099  50.409  1.00  0.00     0.081 C 
HETATM    6  C10 UNL     1      20.036   0.264  51.407  1.00  0.00    -0.006 C 
HETATM    7  C11 UNL     1      21.523   0.099  51.657  1.00  0.00     0.082 C 
HETATM    8  C12 UNL     1      22.169   1.439  51.878  1.00  0.00     0.157 C 
HETATM    9  C13 UNL     1      21.053   2.336  52.300  1.00  0.00     0.098 C 
HETATM   10  N2  UNL     1      20.174   3.026  52.646  1.00  0.00    -0.194 NA
ENDROOT
BRANCH   8  11
HETATM   11  O1  UNL     1      23.178   1.395  52.706  1.00  0.00    -0.360 OA
BRANCH  11  12
HETATM   12  C14 UNL     1      23.970   0.515  53.212  1.00  0.00     0.211 C 
BRANCH  12  13
HETATM   13  C15 UNL     1      25.400   0.847  53.326  1.00  0.00    -0.001 A 
HETATM   14  C16 UNL     1      26.070   1.791  52.528  1.00  0.00     0.012 A 
HETATM   15  C17 UNL     1      27.400   2.080  52.601  1.00  0.00     0.001 A 
HETATM   16  C18 UNL     1      28.172   1.395  53.534  1.00  0.00     0.003 A 
HETATM   17  C19 UNL     1      27.579   0.454  54.351  1.00  0.00     0.037 A 
HETATM   18  C20 UNL     1      26.230   0.191  54.244  1.00  0.00     0.074 A 
BRANCH  18  19
HETATM   19  O2  UNL     1      25.678  -0.759  55.082  1.00  0.00    -0.360 OA
HETATM   20  H23 UNL     1      26.119  -0.923  55.995  1.00  0.00     0.217 HD
ENDBRANCH  18  19
ENDBRANCH  12  13
ENDBRANCH  11  12
ENDBRANCH   8  11
BRANCH   1  21
HETATM   21  C5  UNL     1      22.753   3.523  50.618  1.00  0.00     0.049 C 
BRANCH  21  22
HETATM   22  C4  UNL     1      23.761   4.086  49.673  1.00  0.00    -0.047 C 
HETATM   23  C3  UNL     1      23.405   5.315  48.960  1.00  0.00     0.010 C 
HETATM   24  C2  UNL     1      24.190   6.226  48.360  1.00  0.00    -0.083 C 
HETATM   25  C1  UNL     1      23.488   7.388  47.710  1.00  0.00     0.043 C 
HETATM   26  C24 UNL     1      25.659   6.257  48.243  1.00  0.00     0.037 C 
HETATM   27  C23 UNL     1      26.377   5.636  49.412  1.00  0.00     0.032 C 
HETATM   28  C22 UNL     1      25.958   4.265  49.724  1.00  0.00    -0.014 C 
HETATM   29  C21 UNL     1      24.928   3.489  49.495  1.00  0.00    -0.023 C 
ENDBRANCH  21  22
ENDBRANCH   1  21
TORSDOF 6
ENDMDL
MODEL 9
REMARK VINA RESULT:      -7.5      2.111      5.094
REMARK  6 active torsions:
REMARK  status: ('A' for Active; 'I' for Inactive)
REMARK    1  A    between atoms: C4_4  and  C5_5 
REMARK    2  A    between atoms: C5_5  and  C6_6 
REMARK    3  A    between atoms: C12_13  and  O1_16 
REMARK    4  A    between atoms: O1_16  and  C14_17 
REMARK    5  A    between atoms: C14_17  and  C15_18 
REMARK    6  A    between atoms: C20_23  and  O2_24 
ROOT
HETATM    1  C6  UNL     1      23.340   2.470  50.811  1.00  0.00     0.057 C 
HETATM    2  C7  UNL     1      24.280   2.869  49.733  1.00  0.00     0.130 C 
HETATM    3  N1  UNL     1      24.434   4.315  49.583  1.00  0.00    -0.394 N 
HETATM    4  C8  UNL     1      25.623   5.111  49.920  1.00  0.00     0.148 C 
HETATM    5  C9  UNL     1      23.313   5.058  49.050  1.00  0.00     0.081 C 
HETATM    6  C10 UNL     1      22.012   4.757  48.869  1.00  0.00    -0.006 C 
HETATM    7  C11 UNL     1      21.575   3.368  49.294  1.00  0.00     0.082 C 
HETATM    8  C12 UNL     1      21.949   3.117  50.729  1.00  0.00     0.157 C 
HETATM    9  C13 UNL     1      22.104   4.477  51.326  1.00  0.00     0.098 C 
HETATM   10  N2  UNL     1      22.207   5.546  51.788  1.00  0.00    -0.194 NA
ENDROOT
BRANCH   8  11
HETATM   11  O1  UNL     1      21.107   2.338  51.353  1.00  0.00    -0.360 OA
BRANCH  11  12
HETATM   12  C14 UNL     1      20.570   2.239  52.518  1.00  0.00     0.211 C 
BRANCH  12  13
HETATM   13  C15 UNL     1      20.546   0.917  53.166  1.00  0.00    -0.001 A 
HETATM   14  C16 UNL     1      21.461   0.487  54.143  1.00  0.00     0.012 A 
HETATM   15  C17 UNL     1      21.469  -0.746  54.723  1.00  0.00     0.001 A 
HETATM   16  C18 UNL     1      20.503  -1.666  54.328  1.00  0.00     0.003 A 
HETATM   17  C19 UNL     1      19.573  -1.311  53.372  1.00  0.00     0.037 A 
HETATM   18  C20 UNL     1      19.599  -0.053  52.810  1.00  0.00     0.074 A 
BRANCH  18  19
HETATM   19  O2  UNL     1      18.649   0.260  51.857  1.00  0.00    -0.360 OA
HETATM   20  H23 UNL     1      18.549   1.240  51.568  1.00  0.00     0.217 HD
ENDBRANCH  18  19
ENDBRANCH  12  13
ENDBRANCH  11  12
ENDBRANCH   8  11
BRANCH   1  21
HETATM   21  C5  UNL     1      23.978   2.763  52.153  1.00  0.00     0.049 C 
BRANCH  21  22
HETATM   22  C4  UNL     1      25.018   1.758  52.519  1.00  0.00    -0.047 C 
HETATM   23  C3  UNL     1      26.366   2.256  52.806  1.00  0.00     0.010 C 
HETATM   24  C2  UNL     1      27.372   1.684  53.490  1.00  0.00    -0.083 C 
HETATM   25  C1  UNL     1      28.644   2.482  53.597  1.00  0.00     0.043 C 
HETATM   26  C24 UNL     1      27.415   0.372  54.161  1.00  0.00     0.037 C 
HETATM   27  C23 UNL     1      26.087  -0.074  54.713  1.00  0.00     0.032 C 
HETATM   28  C22 UNL     1      24.993  -0.081  53.734  1.00  0.00    -0.014 C 
HETATM   29  C21 UNL     1      24.723   0.471  52.578  1.00  0.00    -0.023 C 
ENDBRANCH  21  22
ENDBRANCH   1  21
TORSDOF 6
ENDMDL
