MODEL 1
REMARK VINA RESULT:      -8.6      0.000      0.000
REMARK  5 active torsions:
REMARK  status: ('A' for Active; 'I' for Inactive)
REMARK    1  A    between atoms: C2_2  and  S1_3 
REMARK    2  A    between atoms: C6_7  and  N1_8 
REMARK    3  A    between atoms: N1_8  and  C7_9 
REMARK    4  A    between atoms: C7_9  and  C8_10 
REMARK    5  A    between atoms: N2_20  and  C17_21 
ROOT
HETATM    1  S1  UNL     1      27.211  -0.566  52.700  1.00  0.00    -0.243 SA
HETATM    2  C3  UNL     1      26.521   0.267  52.505  1.00  0.00     0.041 A 
HETATM    3  C4  UNL     1      25.740   1.179  52.299  1.00  0.00    -0.043 A 
HETATM    4  C5  UNL     1      26.206   2.215  51.635  1.00  0.00     0.034 A 
HETATM    5  C6  UNL     1      24.936   2.804  51.744  1.00  0.00     0.028 A 
HETATM    6  C14 UNL     1      23.783   2.300  52.358  1.00  0.00     0.026 A 
HETATM    7  C15 UNL     1      23.736   1.077  52.982  1.00  0.00    -0.007 A 
HETATM    8  C16 UNL     1      24.974   0.291  52.982  1.00  0.00     0.040 A 
HETATM    9  N2  UNL     1      25.856  -0.873  53.284  1.00  0.00     0.000 N 
HETATM   10  C17 UNL     1      27.254  -0.621  52.714  1.00  0.00     0.047 A 
HETATM   11  H6  UNL     1      28.065  -1.571  52.917  1.00  0.00     0.105 HD
ENDROOT
BRANCH   5  12
HETATM   12  N1  UNL     1      24.927   4.087  51.101  1.00  0.00    -0.386 N 
HETATM   13  H8  UNL     1      25.081   4.818  51.797  1.00  0.00     0.160 HD
BRANCH  12  14
HETATM   14  C7  UNL     1      24.742   4.383  49.732  1.00  0.00     0.158 C 
BRANCH  14  15
HETATM   15  C8  UNL     1      26.020   4.959  49.184  1.00  0.00    -0.041 A 
HETATM   16  C9  UNL     1      25.897   6.311  48.838  1.00  0.00     0.010 A 
HETATM   17  C10 UNL     1      26.940   7.068  48.309  1.00  0.00     0.019 A 
HETATM   18  C11 UNL     1      28.139   6.413  48.131  1.00  0.00     0.011 A 
HETATM   19 BR1  UNL     1      29.638   7.353  47.412  1.00  0.00    -0.051 Br
HETATM   20  C12 UNL     1      28.268   5.087  48.466  1.00  0.00     0.019 A 
HETATM   21  C13 UNL     1      27.239   4.352  48.986  1.00  0.00     0.010 A 
ENDBRANCH  14  15
ENDBRANCH  12  14
ENDBRANCH   5  12
BRANCH   1  22
HETATM   22  C2  UNL     1      28.978  -2.615  53.193  1.00  0.00     0.048 C 
HETATM   23  C1  UNL     1      29.765  -1.374  53.529  1.00  0.00     0.014 C 
ENDBRANCH   1  22
TORSDOF 5
ENDMDL
MODEL 2
REMARK VINA RESULT:      -8.4      1.796      3.331
REMARK  5 active torsions:
REMARK  status: ('A' for Active; 'I' for Inactive)
REMARK    1  A    between atoms: C2_2  and  S1_3 
REMARK    2  A    between atoms: C6_7  and  N1_8 
REMARK    3  A    between atoms: N1_8  and  C7_9 
REMARK    4  A    between atoms: C7_9  and  C8_10 
REMARK    5  A    between atoms: N2_20  and  C17_21 
ROOT
HETATM    1  S1  UNL     1      23.526  -0.199  53.511  1.00  0.00    -0.243 SA
HETATM    2  C3  UNL     1      24.374   0.400  53.150  1.00  0.00     0.041 A 
HETATM    3  C4  UNL     1      25.327   1.052  52.765  1.00  0.00    -0.043 A 
HETATM    4  C5  UNL     1      25.092   1.937  51.819  1.00  0.00     0.034 A 
HETATM    5  C6  UNL     1      26.454   2.279  51.858  1.00  0.00     0.028 A 
HETATM    6  C14 UNL     1      27.470   1.753  52.665  1.00  0.00     0.026 A 
HETATM    7  C15 UNL     1      27.257   0.762  53.592  1.00  0.00    -0.007 A 
HETATM    8  C16 UNL     1      25.885   0.258  53.713  1.00  0.00     0.040 A 
HETATM    9  N2  UNL     1      24.781  -0.590  54.247  1.00  0.00     0.000 N 
HETATM   10  C17 UNL     1      23.472  -0.239  53.535  1.00  0.00     0.047 A 
HETATM   11  H6  UNL     1      22.476  -0.907  53.941  1.00  0.00     0.105 HD
ENDROOT
BRANCH   5  12
HETATM   12  N1  UNL     1      26.732   3.319  50.909  1.00  0.00    -0.386 N 
HETATM   13  H8  UNL     1      27.180   4.104  51.384  1.00  0.00     0.160 HD
BRANCH  12  14
HETATM   14  C7  UNL     1      26.463   3.338  49.522  1.00  0.00     0.158 C 
BRANCH  14  15
HETATM   15  C8  UNL     1      26.909   4.661  48.960  1.00  0.00    -0.041 A 
HETATM   16  C9  UNL     1      25.864   5.590  48.875  1.00  0.00     0.010 A 
HETATM   17  C10 UNL     1      26.024   6.886  48.387  1.00  0.00     0.019 A 
HETATM   18  C11 UNL     1      27.294   7.229  47.975  1.00  0.00     0.011 A 
HETATM   19 BR1  UNL     1      27.628   8.980  47.288  1.00  0.00    -0.051 Br
HETATM   20  C12 UNL     1      28.323   6.323  48.054  1.00  0.00     0.019 A 
HETATM   21  C13 UNL     1      28.157   5.054  48.535  1.00  0.00     0.010 A 
ENDBRANCH  14  15
ENDBRANCH  12  14
ENDBRANCH   5  12
BRANCH   1  22
HETATM   22  C2  UNL     1      21.382  -1.695  54.364  1.00  0.00     0.048 C 
HETATM   23  C1  UNL     1      20.756  -0.407  53.894  1.00  0.00     0.014 C 
ENDBRANCH   1  22
TORSDOF 5
ENDMDL
MODEL 3
REMARK VINA RESULT:      -8.2      1.247      1.612
REMARK  5 active torsions:
REMARK  status: ('A' for Active; 'I' for Inactive)
REMARK    1  A    between atoms: C2_2  and  S1_3 
REMARK    2  A    between atoms: C6_7  and  N1_8 
REMARK    3  A    between atoms: N1_8  and  C7_9 
REMARK    4  A    between atoms: C7_9  and  C8_10 
REMARK    5  A    between atoms: N2_20  and  C17_21 
ROOT
HETATM    1  S1  UNL     1      27.228  -0.302  53.163  1.00  0.00    -0.243 SA
HETATM    2  C3  UNL     1      26.374   0.387  53.096  1.00  0.00     0.041 A 
HETATM    3  C4  UNL     1      25.414   1.132  53.020  1.00  0.00    -0.043 A 
HETATM    4  C5  UNL     1      25.668   2.423  53.020  1.00  0.00     0.034 A 
HETATM    5  C6  UNL     1      24.286   2.653  52.922  1.00  0.00     0.028 A 
HETATM    6  C14 UNL     1      23.241   1.722  52.861  1.00  0.00     0.026 A 
HETATM    7  C15 UNL     1      23.442   0.364  52.893  1.00  0.00    -0.007 A 
HETATM    8  C16 UNL     1      24.831  -0.094  52.995  1.00  0.00     0.040 A 
HETATM    9  N2  UNL     1      25.942  -1.084  53.087  1.00  0.00     0.000 N 
HETATM   10  C17 UNL     1      27.282  -0.348  53.168  1.00  0.00     0.047 A 
HETATM   11  H6  UNL     1      28.284  -1.119  53.235  1.00  0.00     0.105 HD
ENDROOT
BRANCH   5  12
HETATM   12  N1  UNL     1      24.020   4.063  52.879  1.00  0.00    -0.386 N 
HETATM   13  H8  UNL     1      24.354   4.499  53.739  1.00  0.00     0.160 HD
BRANCH  12  14
HETATM   14  C7  UNL     1      23.401   4.809  51.852  1.00  0.00     0.158 C 
BRANCH  14  15
HETATM   15  C8  UNL     1      24.449   5.226  50.855  1.00  0.00    -0.041 A 
HETATM   16  C9  UNL     1      24.730   6.597  50.911  1.00  0.00     0.010 A 
HETATM   17  C10 UNL     1      25.664   7.225  50.089  1.00  0.00     0.019 A 
HETATM   18  C11 UNL     1      26.322   6.417  49.187  1.00  0.00     0.011 A 
HETATM   19 BR1  UNL     1      27.623   7.172  48.009  1.00  0.00    -0.051 Br
HETATM   20  C12 UNL     1      26.051   5.072  49.125  1.00  0.00     0.019 A 
HETATM   21  C13 UNL     1      25.134   4.464  49.937  1.00  0.00     0.010 A 
ENDBRANCH  14  15
ENDBRANCH  12  14
ENDBRANCH   5  12
BRANCH   1  22
HETATM   22  C2  UNL     1      29.391  -1.988  53.362  1.00  0.00     0.048 C 
HETATM   23  C1  UNL     1      30.000  -0.612  53.454  1.00  0.00     0.014 C 
ENDBRANCH   1  22
TORSDOF 5
ENDMDL
MODEL 4
REMARK VINA RESULT:      -7.8      4.880      7.471
REMARK  5 active torsions:
REMARK  status: ('A' for Active; 'I' for Inactive)
REMARK    1  A    between atoms: C2_2  and  S1_3 
REMARK    2  A    between atoms: C6_7  and  N1_8 
REMARK    3  A    between atoms: N1_8  and  C7_9 
REMARK    4  A    between atoms: C7_9  and  C8_10 
REMARK    5  A    between atoms: N2_20  and  C17_21 
ROOT
HETATM    1  S1  UNL     1      18.340  -0.486  52.393  1.00  0.00    -0.243 SA
HETATM    2  C3  UNL     1      19.414  -0.317  52.555  1.00  0.00     0.041 A 
HETATM    3  C4  UNL     1      20.602  -0.143  52.753  1.00  0.00    -0.043 A 
HETATM    4  C5  UNL     1      21.240   0.616  51.888  1.00  0.00     0.034 A 
HETATM    5  C6  UNL     1      22.412   0.413  52.634  1.00  0.00     0.028 A 
HETATM    6  C14 UNL     1      22.591  -0.338  53.802  1.00  0.00     0.026 A 
HETATM    7  C15 UNL     1      21.574  -1.025  54.418  1.00  0.00    -0.007 A 
HETATM    8  C16 UNL     1      20.251  -0.943  53.792  1.00  0.00     0.040 A 
HETATM    9  N2  UNL     1      18.794  -1.216  53.630  1.00  0.00     0.000 N 
HETATM   10  C17 UNL     1      18.270  -0.498  52.383  1.00  0.00     0.047 A 
HETATM   11  H6  UNL     1      17.032  -0.669  52.180  1.00  0.00     0.105 HD
ENDROOT
BRANCH   5  12
HETATM   12  N1  UNL     1      23.510   1.117  52.035  1.00  0.00    -0.386 N 
HETATM   13  H8  UNL     1      23.636   0.797  51.074  1.00  0.00     0.160 HD
BRANCH  12  14
HETATM   14  C7  UNL     1      24.336   2.108  52.610  1.00  0.00     0.158 C 
BRANCH  14  15
HETATM   15  C8  UNL     1      25.666   1.492  52.953  1.00  0.00    -0.041 A 
HETATM   16  C9  UNL     1      25.901   0.298  52.259  1.00  0.00     0.010 A 
HETATM   17  C10 UNL     1      27.061  -0.461  52.405  1.00  0.00     0.019 A 
HETATM   18  C11 UNL     1      27.999   0.024  53.290  1.00  0.00     0.011 A 
HETATM   19 BR1  UNL     1      29.627  -0.935  53.570  1.00  0.00    -0.051 Br
HETATM   20  C12 UNL     1      27.775   1.194  53.975  1.00  0.00     0.019 A 
HETATM   21  C13 UNL     1      26.635   1.933  53.825  1.00  0.00     0.010 A 
ENDBRANCH  14  15
ENDBRANCH  12  14
ENDBRANCH   5  12
BRANCH   1  22
HETATM   22  C2  UNL     1      15.662  -0.906  51.933  1.00  0.00     0.048 C 
HETATM   23  C1  UNL     1      16.228  -0.668  50.557  1.00  0.00     0.014 C 
ENDBRANCH   1  22
TORSDOF 5
ENDMDL
MODEL 5
REMARK VINA RESULT:      -7.8      6.954     10.164
REMARK  5 active torsions:
REMARK  status: ('A' for Active; 'I' for Inactive)
REMARK    1  A    between atoms: C2_2  and  S1_3 
REMARK    2  A    between atoms: C6_7  and  N1_8 
REMARK    3  A    between atoms: N1_8  and  C7_9 
REMARK    4  A    between atoms: C7_9  and  C8_10 
REMARK    5  A    between atoms: N2_20  and  C17_21 
ROOT
HETATM    1  S1  UNL     1      23.485   1.649  51.655  1.00  0.00    -0.243 SA
HETATM    2  C3  UNL     1      22.822   1.006  52.251  1.00  0.00     0.041 A 
HETATM    3  C4  UNL     1      22.106   0.286  52.922  1.00  0.00    -0.043 A 
HETATM    4  C5  UNL     1      20.818   0.319  52.653  1.00  0.00     0.034 A 
HETATM    5  C6  UNL     1      20.623  -0.630  53.670  1.00  0.00     0.028 A 
HETATM    6  C14 UNL     1      21.572  -1.230  54.507  1.00  0.00     0.026 A 
HETATM    7  C15 UNL     1      22.915  -0.953  54.440  1.00  0.00    -0.007 A 
HETATM    8  C16 UNL     1      23.337   0.025  53.431  1.00  0.00     0.040 A 
HETATM    9  N2  UNL     1      24.292   0.874  52.664  1.00  0.00     0.000 N 
HETATM   10  C17 UNL     1      23.529   1.691  51.617  1.00  0.00     0.047 A 
HETATM   11  H6  UNL     1      24.272   2.432  50.910  1.00  0.00     0.105 HD
ENDROOT
BRANCH   5  12
HETATM   12  N1  UNL     1      19.231  -0.961  53.779  1.00  0.00    -0.386 N 
HETATM   13  H8  UNL     1      19.067  -1.464  54.653  1.00  0.00     0.160 HD
BRANCH  12  14
HETATM   14  C7  UNL     1      18.186  -0.677  52.872  1.00  0.00     0.158 C 
BRANCH  14  15
HETATM   15  C8  UNL     1      17.204  -1.818  52.891  1.00  0.00    -0.041 A 
HETATM   16  C9  UNL     1      17.694  -2.940  53.571  1.00  0.00     0.010 A 
HETATM   17  C10 UNL     1      16.973  -4.122  53.725  1.00  0.00     0.019 A 
HETATM   18  C11 UNL     1      15.715  -4.146  53.161  1.00  0.00     0.011 A 
HETATM   19 BR1  UNL     1      14.637  -5.716  53.311  1.00  0.00    -0.051 Br
HETATM   20  C12 UNL     1      15.228  -3.050  52.492  1.00  0.00     0.019 A 
HETATM   21  C13 UNL     1      15.942  -1.894  52.346  1.00  0.00     0.010 A 
ENDBRANCH  14  15
ENDBRANCH  12  14
ENDBRANCH   5  12
BRANCH   1  22
HETATM   22  C2  UNL     1      25.103   3.295  50.160  1.00  0.00     0.048 C 
HETATM   23  C1  UNL     1      23.842   3.195  49.343  1.00  0.00     0.014 C 
ENDBRANCH   1  22
TORSDOF 5
ENDMDL
MODEL 6
REMARK VINA RESULT:      -7.6      2.957      3.810
REMARK  5 active torsions:
REMARK  status: ('A' for Active; 'I' for Inactive)
REMARK    1  A    between atoms: C2_2  and  S1_3 
REMARK    2  A    between atoms: C6_7  and  N1_8 
REMARK    3  A    between atoms: N1_8  and  C7_9 
REMARK    4  A    between atoms: C7_9  and  C8_10 
REMARK    5  A    between atoms: N2_20  and  C17_21 
ROOT
HETATM    1  S1  UNL     1      22.884   0.531  52.682  1.00  0.00    -0.243 SA
HETATM    2  C3  UNL     1      23.351   1.259  52.004  1.00  0.00     0.041 A 
HETATM    3  C4  UNL     1      23.852   2.062  51.239  1.00  0.00    -0.043 A 
HETATM    4  C5  UNL     1      24.990   2.606  51.616  1.00  0.00     0.034 A 
HETATM    5  C6  UNL     1      24.993   3.333  50.415  1.00  0.00     0.028 A 
HETATM    6  C14 UNL     1      24.053   3.322  49.377  1.00  0.00     0.026 A 
HETATM    7  C15 UNL     1      22.922   2.543  49.396  1.00  0.00    -0.007 A 
HETATM    8  C16 UNL     1      22.726   1.696  50.577  1.00  0.00     0.040 A 
HETATM    9  N2  UNL     1      22.035   0.703  51.449  1.00  0.00     0.000 N 
HETATM   10  C17 UNL     1      22.852   0.484  52.725  1.00  0.00     0.047 A 
HETATM   11  H6  UNL     1      22.340  -0.359  53.519  1.00  0.00     0.105 HD
ENDROOT
BRANCH   5  12
HETATM   12  N1  UNL     1      26.162   4.163  50.340  1.00  0.00    -0.386 N 
HETATM   13  H8  UNL     1      26.207   4.764  51.165  1.00  0.00     0.160 HD
BRANCH  12  14
HETATM   14  C7  UNL     1      27.145   4.208  49.327  1.00  0.00     0.158 C 
BRANCH  14  15
HETATM   15  C8  UNL     1      27.095   5.557  48.661  1.00  0.00    -0.041 A 
HETATM   16  C9  UNL     1      28.344   5.964  48.175  1.00  0.00     0.010 A 
HETATM   17  C10 UNL     1      28.557   7.175  47.520  1.00  0.00     0.019 A 
HETATM   18  C11 UNL     1      27.452   7.986  47.364  1.00  0.00     0.011 A 
HETATM   19 BR1  UNL     1      27.628   9.670  46.481  1.00  0.00    -0.051 Br
HETATM   20  C12 UNL     1      26.225   7.594  47.839  1.00  0.00     0.019 A 
HETATM   21  C13 UNL     1      26.025   6.403  48.480  1.00  0.00     0.010 A 
ENDBRANCH  14  15
ENDBRANCH  12  14
ENDBRANCH   5  12
BRANCH   1  22
HETATM   22  C2  UNL     1      21.734  -1.263  54.421  1.00  0.00     0.048 C 
HETATM   23  C1  UNL     1      21.087   0.050  54.781  1.00  0.00     0.014 C 
ENDBRANCH   1  22
TORSDOF 5
ENDMDL
MODEL 7
REMARK VINA RESULT:      -7.5      6.028      7.868
REMARK  5 active torsions:
REMARK  status: ('A' for Active; 'I' for Inactive)
REMARK    1  A    between atoms: C2_2  and  S1_3 
REMARK    2  A    between atoms: C6_7  and  N1_8 
REMARK    3  A    between atoms: N1_8  and  C7_9 
REMARK    4  A    between atoms: C7_9  and  C8_10 
REMARK    5  A    between atoms: N2_20  and  C17_21 
ROOT
HETATM    1  S1  UNL     1      26.183   0.077  53.995  1.00  0.00    -0.243 SA
HETATM    2  C3  UNL     1      25.115  -0.046  53.762  1.00  0.00     0.041 A 
HETATM    3  C4  UNL     1      23.931  -0.195  53.523  1.00  0.00    -0.043 A 
HETATM    4  C5  UNL     1      23.490   0.308  52.390  1.00  0.00     0.034 A 
HETATM    5  C6  UNL     1      22.212  -0.169  52.723  1.00  0.00     0.028 A 
HETATM    6  C14 UNL     1      21.806  -0.875  53.862  1.00  0.00     0.026 A 
HETATM    7  C15 UNL     1      22.663  -1.219  54.878  1.00  0.00    -0.007 A 
HETATM    8  C16 UNL     1      24.063  -0.810  54.726  1.00  0.00     0.040 A 
HETATM    9  N2  UNL     1      25.498  -0.675  55.106  1.00  0.00     0.000 N 
HETATM   10  C17 UNL     1      26.251   0.085  54.012  1.00  0.00     0.047 A 
HETATM   11  H6  UNL     1      27.486   0.232  54.252  1.00  0.00     0.105 HD
ENDROOT
BRANCH   5  12
HETATM   12  N1  UNL     1      21.275   0.160  51.687  1.00  0.00    -0.386 N 
HETATM   13  H8  UNL     1      21.492  -0.379  50.847  1.00  0.00     0.160 HD
BRANCH  12  14
HETATM   14  C7  UNL     1      20.194   1.068  51.735  1.00  0.00     0.158 C 
BRANCH  14  15
HETATM   15  C8  UNL     1      18.905   0.292  51.711  1.00  0.00    -0.041 A 
HETATM   16  C9  UNL     1      18.198   0.459  50.514  1.00  0.00     0.010 A 
HETATM   17  C10 UNL     1      16.975  -0.155  50.250  1.00  0.00     0.019 A 
HETATM   18  C11 UNL     1      16.471  -0.962  51.247  1.00  0.00     0.011 A 
HETATM   19 BR1  UNL     1      14.802  -1.855  50.994  1.00  0.00    -0.051 Br
HETATM   20  C12 UNL     1      17.159  -1.131  52.424  1.00  0.00     0.019 A 
HETATM   21  C13 UNL     1      18.358  -0.525  52.674  1.00  0.00     0.010 A 
ENDBRANCH  14  15
ENDBRANCH  12  14
ENDBRANCH   5  12
BRANCH   1  22
HETATM   22  C2  UNL     1      28.852   0.436  54.552  1.00  0.00     0.048 C 
HETATM   23  C1  UNL     1      28.841  -0.709  53.573  1.00  0.00     0.014 C 
ENDBRANCH   1  22
TORSDOF 5
ENDMDL
MODEL 8
REMARK VINA RESULT:      -7.4      4.759      7.862
REMARK  5 active torsions:
REMARK  status: ('A' for Active; 'I' for Inactive)
REMARK    1  A    between atoms: C2_2  and  S1_3 
REMARK    2  A    between atoms: C6_7  and  N1_8 
REMARK    3  A    between atoms: N1_8  and  C7_9 
REMARK    4  A    between atoms: C7_9  and  C8_10 
REMARK    5  A    between atoms: N2_20  and  C17_21 
ROOT
HETATM    1  S1  UNL     1      25.502   3.125  50.606  1.00  0.00    -0.243 SA
HETATM    2  C3  UNL     1      25.068   2.341  51.244  1.00  0.00     0.041 A 
HETATM    3  C4  UNL     1      24.608   1.469  51.957  1.00  0.00    -0.043 A 
HETATM    4  C5  UNL     1      23.306   1.290  51.905  1.00  0.00     0.034 A 
HETATM    5  C6  UNL     1      23.449   0.265  52.853  1.00  0.00     0.028 A 
HETATM    6  C14 UNL     1      24.615  -0.207  53.469  1.00  0.00     0.026 A 
HETATM    7  C15 UNL     1      25.863   0.306  53.209  1.00  0.00    -0.007 A 
HETATM    8  C16 UNL     1      25.935   1.400  52.235  1.00  0.00     0.040 A 
HETATM    9  N2  UNL     1      26.589   2.447  51.399  1.00  0.00     0.000 N 
HETATM   10  C17 UNL     1      25.532   3.176  50.566  1.00  0.00     0.047 A 
HETATM   11  H6  UNL     1      26.008   4.077  49.815  1.00  0.00     0.105 HD
ENDROOT
BRANCH   5  12
HETATM   12  N1  UNL     1      22.171  -0.313  53.157  1.00  0.00    -0.386 N 
HETATM   13  H8  UNL     1      22.161  -1.291  52.865  1.00  0.00     0.160 HD
BRANCH  12  14
HETATM   14  C7  UNL     1      21.051   0.299  53.763  1.00  0.00     0.158 C 
BRANCH  14  15
HETATM   15  C8  UNL     1      19.830   0.006  52.934  1.00  0.00    -0.041 A 
HETATM   16  C9  UNL     1      19.828   0.698  51.715  1.00  0.00     0.010 A 
HETATM   17  C10 UNL     1      18.806   0.594  50.774  1.00  0.00     0.019 A 
HETATM   18  C11 UNL     1      17.760  -0.244  51.100  1.00  0.00     0.011 A 
HETATM   19 BR1  UNL     1      16.304  -0.462  49.883  1.00  0.00    -0.051 Br
HETATM   20  C12 UNL     1      17.755  -0.924  52.293  1.00  0.00     0.019 A 
HETATM   21  C13 UNL     1      18.763  -0.817  53.210  1.00  0.00     0.010 A 
ENDBRANCH  14  15
ENDBRANCH  12  14
ENDBRANCH   5  12
BRANCH   1  22
HETATM   22  C2  UNL     1      26.542   5.115  49.018  1.00  0.00     0.048 C 
HETATM   23  C1  UNL     1      25.547   5.836  49.891  1.00  0.00     0.014 C 
ENDBRANCH   1  22
TORSDOF 5
ENDMDL
MODEL 9
REMARK VINA RESULT:      -7.4      4.905      8.063
REMARK  5 active torsions:
REMARK  status: ('A' for Active; 'I' for Inactive)
REMARK    1  A    between atoms: C2_2  and  S1_3 
REMARK    2  A    between atoms: C6_7  and  N1_8 
REMARK    3  A    between atoms: N1_8  and  C7_9 
REMARK    4  A    between atoms: C7_9  and  C8_10 
REMARK    5  A    between atoms: N2_20  and  C17_21 
ROOT
HETATM    1  S1  UNL     1      32.940   5.251  46.881  1.00  0.00    -0.243 SA
HETATM    2  C3  UNL     1      32.144   5.875  47.312  1.00  0.00     0.041 A 
HETATM    3  C4  UNL     1      31.277   6.584  47.789  1.00  0.00    -0.043 A 
HETATM    4  C5  UNL     1      30.119   6.013  48.041  1.00  0.00     0.034 A 
HETATM    5  C6  UNL     1      29.657   7.251  48.515  1.00  0.00     0.028 A 
HETATM    6  C14 UNL     1      30.337   8.472  48.594  1.00  0.00     0.026 A 
HETATM    7  C15 UNL     1      31.639   8.635  48.188  1.00  0.00    -0.007 A 
HETATM    8  C16 UNL     1      32.315   7.448  47.654  1.00  0.00     0.040 A 
HETATM    9  N2  UNL     1      33.437   6.661  47.067  1.00  0.00     0.000 N 
HETATM   10  C17 UNL     1      32.992   5.212  46.853  1.00  0.00     0.047 A 
HETATM   11  H6  UNL     1      33.894   4.468  46.367  1.00  0.00     0.105 HD
ENDROOT
BRANCH   5  12
HETATM   12  N1  UNL     1      28.297   7.136  48.959  1.00  0.00    -0.386 N 
HETATM   13  H8  UNL     1      28.226   7.456  49.926  1.00  0.00     0.160 HD
BRANCH  12  14
HETATM   14  C7  UNL     1      27.174   6.667  48.241  1.00  0.00     0.158 C 
BRANCH  14  15
HETATM   15  C8  UNL     1      26.600   5.476  48.961  1.00  0.00    -0.041 A 
HETATM   16  C9  UNL     1      25.404   5.774  49.626  1.00  0.00     0.010 A 
HETATM   17  C10 UNL     1      24.681   4.840  50.364  1.00  0.00     0.019 A 
HETATM   18  C11 UNL     1      25.207   3.566  50.417  1.00  0.00     0.011 A 
HETATM   19 BR1  UNL     1      24.299   2.204  51.401  1.00  0.00    -0.051 Br
HETATM   20  C12 UNL     1      26.380   3.267  49.768  1.00  0.00     0.019 A 
HETATM   21  C13 UNL     1      27.082   4.190  49.045  1.00  0.00     0.010 A 
ENDBRANCH  14  15
ENDBRANCH  12  14
ENDBRANCH   5  12
BRANCH   1  22
HETATM   22  C2  UNL     1      34.891   3.659  45.776  1.00  0.00     0.048 C 
HETATM   23  C1  UNL     1      34.937   3.317  47.243  1.00  0.00     0.014 C 
ENDBRANCH   1  22
TORSDOF 5
ENDMDL
