MODEL 1
REMARK VINA RESULT:      -9.3      0.000      0.000
REMARK  3 active torsions:
REMARK  status: ('A' for Active; 'I' for Inactive)
REMARK    1  A    between atoms: C2_2  and  C3_3 
REMARK    2  A    between atoms: C4_4  and  O1_5 
REMARK    3  A    between atoms: C23_28  and  O4_29 
ROOT
HETATM    1  C3  UNL     1      25.868   1.575  54.030  1.00  0.00     0.097 A 
HETATM    2  C4  UNL     1      27.066   2.035  53.298  1.00  0.00     0.056 A 
HETATM    3  C6  UNL     1      27.180   2.303  52.007  1.00  0.00     0.036 A 
HETATM    4  C7  UNL     1      26.031   2.150  51.123  1.00  0.00     0.041 A 
HETATM    5  C8  UNL     1      24.880   1.743  51.624  1.00  0.00     0.095 A 
HETATM    6  O2  UNL     1      23.701   1.537  50.992  1.00  0.00    -0.329 OA
HETATM    7  C9  UNL     1      22.400   1.564  51.635  1.00  0.00     0.139 C 
HETATM    8  C10 UNL     1      21.575   0.806  50.622  1.00  0.00     0.014 C 
HETATM    9  C11 UNL     1      21.171   1.102  49.354  1.00  0.00    -0.008 C 
HETATM   10  C12 UNL     1      21.102   1.967  48.184  1.00  0.00     0.143 C 
HETATM   11  N1  UNL     1      19.887   2.413  47.638  1.00  0.00    -0.396 N 
HETATM   12  C13 UNL     1      19.091   3.371  48.366  1.00  0.00     0.319 C 
HETATM   13  O3  UNL     1      18.397   2.905  49.417  1.00  0.00    -0.261 OA
HETATM   14  N2  UNL     1      17.693   3.753  50.201  1.00  0.00    -0.269 N 
HETATM   15  C14 UNL     1      18.793   3.332  51.097  1.00  0.00     0.041 A 
HETATM   16  C15 UNL     1      18.723   1.972  51.497  1.00  0.00     0.025 A 
HETATM   17  C16 UNL     1      20.009   2.208  51.912  1.00  0.00    -0.009 A 
HETATM   18  C17 UNL     1      20.605   3.386  51.778  1.00  0.00     0.025 A 
HETATM   19  C18 UNL     1      20.884   4.691  51.489  1.00  0.00    -0.055 A 
HETATM   20  C19 UNL     1      19.598   4.449  51.065  1.00  0.00     0.085 A 
HETATM   21  C20 UNL     1      22.223   5.056  51.904  1.00  0.00     0.001 C 
HETATM   22  C21 UNL     1      22.756   3.933  52.451  1.00  0.00    -0.017 C 
HETATM   23  C22 UNL     1      22.002   2.980  51.672  1.00  0.00     0.069 C 
HETATM   24  C23 UNL     1      22.474   0.839  52.924  1.00  0.00     0.283 C 
HETATM   25  N3  UNL     1      23.729   1.053  53.653  1.00  0.00    -0.255 NA
HETATM   26  C25 UNL     1      24.757   1.451  53.024  1.00  0.00     0.075 A 
HETATM   27  H16 UNL     1      19.345   1.692  47.151  1.00  0.00     0.155 HD
HETATM   28  H19 UNL     1      16.829   4.321  50.050  1.00  0.00     0.194 HD
ENDROOT
BRANCH  24  29
HETATM   29  O4  UNL     1      22.462  -0.542  52.664  1.00  0.00    -0.366 OA
HETATM   30  C24 UNL     1      22.241  -1.321  53.769  1.00  0.00     0.204 C 
ENDBRANCH  24  29
BRANCH   1  31
HETATM   31  C2  UNL     1      26.012   0.247  54.700  1.00  0.00     0.013 C 
HETATM   32  C1  UNL     1      26.388  -0.885  53.809  1.00  0.00     0.006 C 
ENDBRANCH   1  31
BRANCH   2  33
HETATM   33  O1  UNL     1      28.300   2.253  53.942  1.00  0.00    -0.359 OA
HETATM   34  C5  UNL     1      29.343   1.324  53.964  1.00  0.00     0.209 C 
ENDBRANCH   2  33
TORSDOF 3
ENDMDL
MODEL 2
REMARK VINA RESULT:      -8.7      1.310      1.518
REMARK  3 active torsions:
REMARK  status: ('A' for Active; 'I' for Inactive)
REMARK    1  A    between atoms: C2_2  and  C3_3 
REMARK    2  A    between atoms: C4_4  and  O1_5 
REMARK    3  A    between atoms: C23_28  and  O4_29 
ROOT
HETATM    1  C3  UNL     1      25.585   0.458  54.374  1.00  0.00     0.097 A 
HETATM    2  C4  UNL     1      26.975   0.541  53.880  1.00  0.00     0.056 A 
HETATM    3  C6  UNL     1      27.391   0.852  52.663  1.00  0.00     0.036 A 
HETATM    4  C7  UNL     1      26.424   1.166  51.617  1.00  0.00     0.041 A 
HETATM    5  C8  UNL     1      25.135   1.135  51.898  1.00  0.00     0.095 A 
HETATM    6  O2  UNL     1      24.080   1.389  51.088  1.00  0.00    -0.329 OA
HETATM    7  C9  UNL     1      22.767   1.805  51.544  1.00  0.00     0.139 C 
HETATM    8  C10 UNL     1      21.930   1.451  50.338  1.00  0.00     0.014 C 
HETATM    9  C11 UNL     1      21.868   1.962  49.076  1.00  0.00    -0.008 C 
HETATM   10  C12 UNL     1      22.284   2.887  48.030  1.00  0.00     0.143 C 
HETATM   11  N1  UNL     1      21.392   3.758  47.385  1.00  0.00    -0.396 N 
HETATM   12  C13 UNL     1      20.833   4.870  48.115  1.00  0.00     0.319 C 
HETATM   13  O3  UNL     1      19.854   4.586  48.991  1.00  0.00    -0.261 OA
HETATM   14  N2  UNL     1      19.337   5.560  49.775  1.00  0.00    -0.269 N 
HETATM   15  C14 UNL     1      20.070   4.724  50.751  1.00  0.00     0.041 A 
HETATM   16  C15 UNL     1      19.498   3.441  50.957  1.00  0.00     0.025 A 
HETATM   17  C16 UNL     1      20.700   3.196  51.572  1.00  0.00    -0.009 A 
HETATM   18  C17 UNL     1      21.657   4.109  51.676  1.00  0.00     0.025 A 
HETATM   19  C18 UNL     1      22.386   5.261  51.600  1.00  0.00    -0.055 A 
HETATM   20  C19 UNL     1      21.185   5.502  50.975  1.00  0.00     0.085 A 
HETATM   21  C20 UNL     1      23.678   5.119  52.239  1.00  0.00     0.001 C 
HETATM   22  C21 UNL     1      23.719   3.844  52.703  1.00  0.00    -0.017 C 
HETATM   23  C22 UNL     1      22.846   3.265  51.711  1.00  0.00     0.069 C 
HETATM   24  C23 UNL     1      22.380   1.001  52.727  1.00  0.00     0.283 C 
HETATM   25  N3  UNL     1      23.491   0.720  53.643  1.00  0.00    -0.255 NA
HETATM   26  C25 UNL     1      24.685   0.795  53.217  1.00  0.00     0.075 A 
HETATM   27  H16 UNL     1      20.739   3.302  46.738  1.00  0.00     0.155 HD
HETATM   28  H19 UNL     1      18.741   6.396  49.582  1.00  0.00     0.194 HD
ENDROOT
BRANCH  24  29
HETATM   29  O4  UNL     1      21.970  -0.271  52.290  1.00  0.00    -0.366 OA
HETATM   30  C24 UNL     1      21.439  -1.061  53.276  1.00  0.00     0.204 C 
ENDBRANCH  24  29
BRANCH   1  31
HETATM   31  C2  UNL     1      25.177  -0.889  54.879  1.00  0.00     0.013 C 
HETATM   32  C1  UNL     1      24.979  -0.990  56.351  1.00  0.00     0.006 C 
ENDBRANCH   1  31
BRANCH   2  33
HETATM   33  O1  UNL     1      28.082   0.278  54.710  1.00  0.00    -0.359 OA
HETATM   34  C5  UNL     1      29.289  -0.258  54.254  1.00  0.00     0.209 C 
ENDBRANCH   2  33
TORSDOF 3
ENDMDL
MODEL 3
REMARK VINA RESULT:      -8.5      2.918      6.824
REMARK  3 active torsions:
REMARK  status: ('A' for Active; 'I' for Inactive)
REMARK    1  A    between atoms: C2_2  and  C3_3 
REMARK    2  A    between atoms: C4_4  and  O1_5 
REMARK    3  A    between atoms: C23_28  and  O4_29 
ROOT
HETATM    1  C3  UNL     1      17.840  -0.817  52.002  1.00  0.00     0.097 A 
HETATM    2  C4  UNL     1      16.538  -0.257  51.583  1.00  0.00     0.056 A 
HETATM    3  C6  UNL     1      16.242   1.003  51.309  1.00  0.00     0.036 A 
HETATM    4  C7  UNL     1      17.268   2.034  51.409  1.00  0.00     0.041 A 
HETATM    5  C8  UNL     1      18.490   1.698  51.774  1.00  0.00     0.095 A 
HETATM    6  O2  UNL     1      19.581   2.484  51.928  1.00  0.00    -0.329 OA
HETATM    7  C9  UNL     1      20.954   2.020  51.856  1.00  0.00     0.139 C 
HETATM    8  C10 UNL     1      21.664   3.143  52.572  1.00  0.00     0.014 C 
HETATM    9  C11 UNL     1      21.884   4.450  52.250  1.00  0.00    -0.008 C 
HETATM   10  C12 UNL     1      21.763   5.607  51.372  1.00  0.00     0.143 C 
HETATM   11  N1  UNL     1      22.876   6.303  50.874  1.00  0.00    -0.396 N 
HETATM   12  C13 UNL     1      23.726   5.675  49.892  1.00  0.00     0.319 C 
HETATM   13  O3  UNL     1      24.571   4.732  50.340  1.00  0.00    -0.261 OA
HETATM   14  N2  UNL     1      25.341   4.037  49.471  1.00  0.00    -0.269 N 
HETATM   15  C14 UNL     1      24.387   3.008  49.943  1.00  0.00     0.041 A 
HETATM   16  C15 UNL     1      24.562   2.640  51.303  1.00  0.00     0.025 A 
HETATM   17  C16 UNL     1      23.335   2.054  51.121  1.00  0.00    -0.009 A 
HETATM   18  C17 UNL     1      22.682   2.091  49.966  1.00  0.00     0.025 A 
HETATM   19  C18 UNL     1      22.318   2.322  48.671  1.00  0.00    -0.055 A 
HETATM   20  C19 UNL     1      23.544   2.917  48.858  1.00  0.00     0.085 A 
HETATM   21  C20 UNL     1      21.033   1.727  48.362  1.00  0.00     0.001 C 
HETATM   22  C21 UNL     1      20.621   1.131  49.510  1.00  0.00    -0.017 C 
HETATM   23  C22 UNL     1      21.300   2.016  50.425  1.00  0.00     0.069 C 
HETATM   24  C23 UNL     1      21.081   0.742  52.594  1.00  0.00     0.283 C 
HETATM   25  N3  UNL     1      19.927  -0.151  52.436  1.00  0.00    -0.255 NA
HETATM   26  C25 UNL     1      18.810   0.330  52.073  1.00  0.00     0.075 A 
HETATM   27  H16 UNL     1      23.375   6.868  51.569  1.00  0.00     0.155 HD
HETATM   28  H19 UNL     1      26.155   4.294  48.869  1.00  0.00     0.194 HD
ENDROOT
BRANCH  24  29
HETATM   29  O4  UNL     1      21.110   1.020  53.971  1.00  0.00    -0.366 OA
HETATM   30  C24 UNL     1      21.445  -0.052  54.756  1.00  0.00     0.204 C 
ENDBRANCH  24  29
BRANCH   1  31
HETATM   31  C2  UNL     1      17.837  -1.481  53.341  1.00  0.00     0.013 C 
HETATM   32  C1  UNL     1      17.487  -2.928  53.339  1.00  0.00     0.006 C 
ENDBRANCH   1  31
BRANCH   2  33
HETATM   33  O1  UNL     1      15.394  -1.063  51.420  1.00  0.00    -0.359 OA
HETATM   34  C5  UNL     1      14.234  -0.935  52.187  1.00  0.00     0.209 C 
ENDBRANCH   2  33
TORSDOF 3
ENDMDL
MODEL 4
REMARK VINA RESULT:      -8.1      1.761      2.111
REMARK  3 active torsions:
REMARK  status: ('A' for Active; 'I' for Inactive)
REMARK    1  A    between atoms: C2_2  and  C3_3 
REMARK    2  A    between atoms: C4_4  and  O1_5 
REMARK    3  A    between atoms: C23_28  and  O4_29 
ROOT
HETATM    1  C3  UNL     1      25.242   1.588  53.532  1.00  0.00     0.097 A 
HETATM    2  C4  UNL     1      26.658   1.799  53.164  1.00  0.00     0.056 A 
HETATM    3  C6  UNL     1      27.145   2.238  52.015  1.00  0.00     0.036 A 
HETATM    4  C7  UNL     1      26.244   2.580  50.921  1.00  0.00     0.041 A 
HETATM    5  C8  UNL     1      24.943   2.447  51.089  1.00  0.00     0.095 A 
HETATM    6  O2  UNL     1      23.940   2.704  50.217  1.00  0.00    -0.329 OA
HETATM    7  C9  UNL     1      22.570   2.997  50.593  1.00  0.00     0.139 C 
HETATM    8  C10 UNL     1      21.856   2.697  49.296  1.00  0.00     0.014 C 
HETATM    9  C11 UNL     1      21.859   3.310  48.078  1.00  0.00    -0.008 C 
HETATM   10  C12 UNL     1      22.291   4.345  47.149  1.00  0.00     0.143 C 
HETATM   11  N1  UNL     1      21.395   5.211  46.503  1.00  0.00    -0.396 N 
HETATM   12  C13 UNL     1      20.706   6.221  47.271  1.00  0.00     0.319 C 
HETATM   13  O3  UNL     1      19.683   5.803  48.037  1.00  0.00    -0.261 OA
HETATM   14  N2  UNL     1      19.041   6.672  48.850  1.00  0.00    -0.269 N 
HETATM   15  C14 UNL     1      19.751   5.803  49.813  1.00  0.00     0.041 A 
HETATM   16  C15 UNL     1      19.253   4.475  49.867  1.00  0.00     0.025 A 
HETATM   17  C16 UNL     1      20.416   4.252  50.559  1.00  0.00    -0.009 A 
HETATM   18  C17 UNL     1      21.298   5.210  50.816  1.00  0.00     0.025 A 
HETATM   19  C18 UNL     1      21.950   6.406  50.894  1.00  0.00    -0.055 A 
HETATM   20  C19 UNL     1      20.788   6.625  50.192  1.00  0.00     0.085 A 
HETATM   21  C20 UNL     1      23.195   6.289  51.626  1.00  0.00     0.001 C 
HETATM   22  C21 UNL     1      23.286   4.984  51.987  1.00  0.00    -0.017 C 
HETATM   23  C22 UNL     1      22.535   4.440  50.882  1.00  0.00     0.069 C 
HETATM   24  C23 UNL     1      22.147   2.073  51.670  1.00  0.00     0.283 C 
HETATM   25  N3  UNL     1      23.199   1.784  52.651  1.00  0.00    -0.255 NA
HETATM   26  C25 UNL     1      24.414   1.968  52.335  1.00  0.00     0.075 A 
HETATM   27  H16 UNL     1      20.828   4.774  45.770  1.00  0.00     0.155 HD
HETATM   28  H19 UNL     1      18.406   7.484  48.675  1.00  0.00     0.194 HD
ENDROOT
BRANCH  24  29
HETATM   29  O4  UNL     1      21.859   0.821  51.100  1.00  0.00    -0.366 OA
HETATM   30  C24 UNL     1      21.257  -0.063  51.956  1.00  0.00     0.204 C 
ENDBRANCH  24  29
BRANCH   1  31
HETATM   31  C2  UNL     1      24.888   0.182  53.891  1.00  0.00     0.013 C 
HETATM   32  C1  UNL     1      25.713  -0.874  53.243  1.00  0.00     0.006 C 
ENDBRANCH   1  31
BRANCH   2  33
HETATM   33  O1  UNL     1      27.712   1.534  54.061  1.00  0.00    -0.359 OA
HETATM   34  C5  UNL     1      29.035   1.322  53.667  1.00  0.00     0.209 C 
ENDBRANCH   2  33
TORSDOF 3
ENDMDL
MODEL 5
REMARK VINA RESULT:      -8.1      1.690      3.634
REMARK  3 active torsions:
REMARK  status: ('A' for Active; 'I' for Inactive)
REMARK    1  A    between atoms: C2_2  and  C3_3 
REMARK    2  A    between atoms: C4_4  and  O1_5 
REMARK    3  A    between atoms: C23_28  and  O4_29 
ROOT
HETATM    1  C3  UNL     1      25.094   1.185  52.796  1.00  0.00     0.097 A 
HETATM    2  C4  UNL     1      24.855  -0.161  53.357  1.00  0.00     0.056 A 
HETATM    3  C6  UNL     1      23.695  -0.750  53.596  1.00  0.00     0.036 A 
HETATM    4  C7  UNL     1      22.447  -0.058  53.297  1.00  0.00     0.041 A 
HETATM    5  C8  UNL     1      22.488   1.159  52.790  1.00  0.00     0.095 A 
HETATM    6  O2  UNL     1      21.463   1.972  52.442  1.00  0.00    -0.329 OA
HETATM    7  C9  UNL     1      21.553   3.052  51.477  1.00  0.00     0.139 C 
HETATM    8  C10 UNL     1      20.346   3.872  51.864  1.00  0.00     0.014 C 
HETATM    9  C11 UNL     1      19.005   3.640  51.773  1.00  0.00    -0.008 C 
HETATM   10  C12 UNL     1      17.852   2.825  51.415  1.00  0.00     0.143 C 
HETATM   11  N1  UNL     1      16.856   3.263  50.527  1.00  0.00    -0.396 N 
HETATM   12  C13 UNL     1      17.166   3.399  49.124  1.00  0.00     0.319 C 
HETATM   13  O3  UNL     1      17.894   4.471  48.769  1.00  0.00    -0.261 OA
HETATM   14  N2  UNL     1      18.298   4.627  47.487  1.00  0.00    -0.269 N 
HETATM   15  C14 UNL     1      19.570   4.346  48.188  1.00  0.00     0.041 A 
HETATM   16  C15 UNL     1      19.988   5.383  49.062  1.00  0.00     0.025 A 
HETATM   17  C16 UNL     1      20.852   4.417  49.513  1.00  0.00    -0.009 A 
HETATM   18  C17 UNL     1      20.892   3.191  49.006  1.00  0.00     0.025 A 
HETATM   19  C18 UNL     1      20.659   2.070  48.262  1.00  0.00    -0.055 A 
HETATM   20  C19 UNL     1      19.787   3.037  47.819  1.00  0.00     0.085 A 
HETATM   21  C20 UNL     1      21.537   0.983  48.646  1.00  0.00     0.001 C 
HETATM   22  C21 UNL     1      22.308   1.471  49.649  1.00  0.00    -0.017 C 
HETATM   23  C22 UNL     1      21.355   2.427  50.159  1.00  0.00     0.069 C 
HETATM   24  C23 UNL     1      22.811   3.804  51.695  1.00  0.00     0.283 C 
HETATM   25  N3  UNL     1      23.954   2.956  52.054  1.00  0.00    -0.255 NA
HETATM   26  C25 UNL     1      23.747   1.799  52.533  1.00  0.00     0.075 A 
HETATM   27  H16 UNL     1      16.240   3.993  50.899  1.00  0.00     0.155 HD
HETATM   28  H19 UNL     1      17.794   4.838  46.596  1.00  0.00     0.194 HD
ENDROOT
BRANCH  24  29
HETATM   29  O4  UNL     1      22.644   4.641  52.812  1.00  0.00    -0.366 OA
HETATM   30  C24 UNL     1      23.795   5.255  53.231  1.00  0.00     0.204 C 
ENDBRANCH  24  29
BRANCH   1  31
HETATM   31  C2  UNL     1      25.842   2.117  53.693  1.00  0.00     0.013 C 
HETATM   32  C1  UNL     1      27.316   2.156  53.494  1.00  0.00     0.006 C 
ENDBRANCH   1  31
BRANCH   2  33
HETATM   33  O1  UNL     1      25.911  -1.018  53.725  1.00  0.00    -0.359 OA
HETATM   34  C5  UNL     1      26.822  -1.566  52.818  1.00  0.00     0.209 C 
ENDBRANCH   2  33
TORSDOF 3
ENDMDL
MODEL 6
REMARK VINA RESULT:      -7.9      3.230      5.219
REMARK  3 active torsions:
REMARK  status: ('A' for Active; 'I' for Inactive)
REMARK    1  A    between atoms: C2_2  and  C3_3 
REMARK    2  A    between atoms: C4_4  and  O1_5 
REMARK    3  A    between atoms: C23_28  and  O4_29 
ROOT
HETATM    1  C3  UNL     1      25.562   6.199  48.443  1.00  0.00     0.097 A 
HETATM    2  C4  UNL     1      26.867   5.518  48.578  1.00  0.00     0.056 A 
HETATM    3  C6  UNL     1      27.167   4.473  49.332  1.00  0.00     0.036 A 
HETATM    4  C7  UNL     1      26.142   3.853  50.165  1.00  0.00     0.041 A 
HETATM    5  C8  UNL     1      24.918   4.345  50.159  1.00  0.00     0.095 A 
HETATM    6  O2  UNL     1      23.829   3.930  50.846  1.00  0.00    -0.329 OA
HETATM    7  C9  UNL     1      22.455   4.181  50.452  1.00  0.00     0.139 C 
HETATM    8  C10 UNL     1      21.745   3.959  51.766  1.00  0.00     0.014 C 
HETATM    9  C11 UNL     1      21.530   2.845  52.522  1.00  0.00    -0.008 C 
HETATM   10  C12 UNL     1      21.656   1.419  52.795  1.00  0.00     0.143 C 
HETATM   11  N1  UNL     1      20.546   0.579  52.979  1.00  0.00    -0.396 N 
HETATM   12  C13 UNL     1      19.698   0.266  51.854  1.00  0.00     0.319 C 
HETATM   13  O3  UNL     1      18.849   1.227  51.453  1.00  0.00    -0.261 OA
HETATM   14  N2  UNL     1      18.080   1.043  50.355  1.00  0.00    -0.269 N 
HETATM   15  C14 UNL     1      19.030   2.085  49.906  1.00  0.00     0.041 A 
HETATM   16  C15 UNL     1      18.850   3.341  50.542  1.00  0.00     0.025 A 
HETATM   17  C16 UNL     1      20.076   3.603  49.986  1.00  0.00    -0.009 A 
HETATM   18  C17 UNL     1      20.733   2.722  49.241  1.00  0.00     0.025 A 
HETATM   19  C18 UNL     1      21.102   1.606  48.546  1.00  0.00    -0.055 A 
HETATM   20  C19 UNL     1      19.877   1.343  49.114  1.00  0.00     0.085 A 
HETATM   21  C20 UNL     1      22.386   1.780  47.898  1.00  0.00     0.001 C 
HETATM   22  C21 UNL     1      22.793   3.033  48.222  1.00  0.00    -0.017 C 
HETATM   23  C22 UNL     1      22.114   3.119  49.492  1.00  0.00     0.069 C 
HETATM   24  C23 UNL     1      22.323   5.585  49.996  1.00  0.00     0.283 C 
HETATM   25  N3  UNL     1      23.475   6.069  49.227  1.00  0.00    -0.255 NA
HETATM   26  C25 UNL     1      24.594   5.481  49.343  1.00  0.00     0.075 A 
HETATM   27  H16 UNL     1      20.046   0.716  53.864  1.00  0.00     0.155 HD
HETATM   28  H19 UNL     1      17.269   0.420  50.143  1.00  0.00     0.194 HD
ENDROOT
BRANCH  24  29
HETATM   29  O4  UNL     1      22.290   6.422  51.124  1.00  0.00    -0.366 OA
HETATM   30  C24 UNL     1      22.167   7.755  50.832  1.00  0.00     0.204 C 
ENDBRANCH  24  29
BRANCH   1  31
HETATM   31  C2  UNL     1      25.560   7.639  48.844  1.00  0.00     0.013 C 
HETATM   32  C1  UNL     1      26.194   7.941  50.156  1.00  0.00     0.006 C 
ENDBRANCH   1  31
BRANCH   2  33
HETATM   33  O1  UNL     1      28.009   5.940  47.870  1.00  0.00    -0.359 OA
HETATM   34  C5  UNL     1      29.314   5.573  48.207  1.00  0.00     0.209 C 
ENDBRANCH   2  33
TORSDOF 3
ENDMDL
MODEL 7
REMARK VINA RESULT:      -7.8      2.872      5.044
REMARK  3 active torsions:
REMARK  status: ('A' for Active; 'I' for Inactive)
REMARK    1  A    between atoms: C2_2  and  C3_3 
REMARK    2  A    between atoms: C4_4  and  O1_5 
REMARK    3  A    between atoms: C23_28  and  O4_29 
ROOT
HETATM    1  C3  UNL     1      24.177   1.790  52.553  1.00  0.00     0.097 A 
HETATM    2  C4  UNL     1      23.216   0.831  53.137  1.00  0.00     0.056 A 
HETATM    3  C6  UNL     1      21.896   0.837  53.038  1.00  0.00     0.036 A 
HETATM    4  C7  UNL     1      21.224   1.883  52.277  1.00  0.00     0.041 A 
HETATM    5  C8  UNL     1      21.943   2.821  51.691  1.00  0.00     0.095 A 
HETATM    6  O2  UNL     1      21.529   3.872  50.945  1.00  0.00    -0.329 OA
HETATM    7  C9  UNL     1      22.342   4.560  49.960  1.00  0.00     0.139 C 
HETATM    8  C10 UNL     1      21.591   5.864  49.844  1.00  0.00     0.014 C 
HETATM    9  C11 UNL     1      20.364   6.181  49.339  1.00  0.00    -0.008 C 
HETATM   10  C12 UNL     1      19.096   5.843  48.705  1.00  0.00     0.143 C 
HETATM   11  N1  UNL     1      18.670   6.423  47.499  1.00  0.00    -0.396 N 
HETATM   12  C13 UNL     1      19.349   6.086  46.271  1.00  0.00     0.319 C 
HETATM   13  O3  UNL     1      20.549   6.654  46.069  1.00  0.00    -0.261 OA
HETATM   14  N2  UNL     1      21.286   6.325  44.983  1.00  0.00    -0.269 N 
HETATM   15  C14 UNL     1      22.067   5.727  46.089  1.00  0.00     0.041 A 
HETATM   16  C15 UNL     1      22.679   6.681  46.944  1.00  0.00     0.025 A 
HETATM   17  C16 UNL     1      22.861   5.585  47.748  1.00  0.00    -0.009 A 
HETATM   18  C17 UNL     1      22.460   4.366  47.409  1.00  0.00     0.025 A 
HETATM   19  C18 UNL     1      21.935   3.294  46.747  1.00  0.00    -0.055 A 
HETATM   20  C19 UNL     1      21.745   4.396  45.946  1.00  0.00     0.085 A 
HETATM   21  C20 UNL     1      22.089   2.069  47.505  1.00  0.00     0.001 C 
HETATM   22  C21 UNL     1      22.720   2.426  48.653  1.00  0.00    -0.017 C 
HETATM   23  C22 UNL     1      22.217   3.777  48.721  1.00  0.00     0.069 C 
HETATM   24  C23 UNL     1      23.704   4.767  50.504  1.00  0.00     0.283 C 
HETATM   25  N3  UNL     1      24.201   3.640  51.303  1.00  0.00    -0.255 NA
HETATM   26  C25 UNL     1      23.374   2.816  51.801  1.00  0.00     0.075 A 
HETATM   27  H16 UNL     1      18.385   7.405  47.572  1.00  0.00     0.155 HD
HETATM   28  H19 UNL     1      21.176   6.503  43.960  1.00  0.00     0.194 HD
ENDROOT
BRANCH  24  29
HETATM   29  O4  UNL     1      23.666   5.838  51.413  1.00  0.00    -0.366 OA
HETATM   30  C24 UNL     1      24.562   6.839  51.141  1.00  0.00     0.204 C 
ENDBRANCH  24  29
BRANCH   1  31
HETATM   31  C2  UNL     1      25.017   2.523  53.549  1.00  0.00     0.013 C 
HETATM   32  C1  UNL     1      26.358   1.936  53.814  1.00  0.00     0.006 C 
ENDBRANCH   1  31
BRANCH   2  33
HETATM   33  O1  UNL     1      23.632  -0.266  53.916  1.00  0.00    -0.359 OA
HETATM   34  C5  UNL     1      22.766  -1.054  54.678  1.00  0.00     0.209 C 
ENDBRANCH   2  33
TORSDOF 3
ENDMDL
MODEL 8
REMARK VINA RESULT:      -7.7      6.218      8.312
REMARK  3 active torsions:
REMARK  status: ('A' for Active; 'I' for Inactive)
REMARK    1  A    between atoms: C2_2  and  C3_3 
REMARK    2  A    between atoms: C4_4  and  O1_5 
REMARK    3  A    between atoms: C23_28  and  O4_29 
ROOT
HETATM    1  C3  UNL     1      28.069   9.408  46.951  1.00  0.00     0.097 A 
HETATM    2  C4  UNL     1      29.110   9.910  47.872  1.00  0.00     0.056 A 
HETATM    3  C6  UNL     1      29.124   9.854  49.194  1.00  0.00     0.036 A 
HETATM    4  C7  UNL     1      28.015   9.239  49.913  1.00  0.00     0.041 A 
HETATM    5  C8  UNL     1      27.000   8.740  49.233  1.00  0.00     0.095 A 
HETATM    6  O2  UNL     1      25.882   8.132  49.694  1.00  0.00    -0.329 OA
HETATM    7  C9  UNL     1      25.069   7.205  48.929  1.00  0.00     0.139 C 
HETATM    8  C10 UNL     1      23.777   7.262  49.710  1.00  0.00     0.014 C 
HETATM    9  C11 UNL     1      23.435   6.836  50.959  1.00  0.00    -0.008 C 
HETATM   10  C12 UNL     1      23.729   6.209  52.241  1.00  0.00     0.143 C 
HETATM   11  N1  UNL     1      23.028   5.091  52.720  1.00  0.00    -0.396 N 
HETATM   12  C13 UNL     1      23.208   3.811  52.078  1.00  0.00     0.319 C 
HETATM   13  O3  UNL     1      22.593   3.636  50.897  1.00  0.00    -0.261 OA
HETATM   14  N2  UNL     1      22.780   2.497  50.192  1.00  0.00    -0.269 N 
HETATM   15  C14 UNL     1      23.480   3.502  49.362  1.00  0.00     0.041 A 
HETATM   16  C15 UNL     1      22.615   4.439  48.739  1.00  0.00     0.025 A 
HETATM   17  C16 UNL     1      23.790   5.108  48.508  1.00  0.00    -0.009 A 
HETATM   18  C17 UNL     1      24.972   4.646  48.895  1.00  0.00     0.025 A 
HETATM   19  C18 UNL     1      25.974   3.884  49.422  1.00  0.00    -0.055 A 
HETATM   20  C19 UNL     1      24.794   3.220  49.662  1.00  0.00     0.085 A 
HETATM   21  C20 UNL     1      27.273   4.494  49.218  1.00  0.00     0.001 C 
HETATM   22  C21 UNL     1      27.032   5.653  48.555  1.00  0.00    -0.017 C 
HETATM   23  C22 UNL     1      25.710   5.890  49.082  1.00  0.00     0.069 C 
HETATM   24  C23 UNL     1      24.892   7.725  47.553  1.00  0.00     0.283 C 
HETATM   25  N3  UNL     1      26.089   8.375  47.007  1.00  0.00    -0.255 NA
HETATM   26  C25 UNL     1      26.984   8.803  47.799  1.00  0.00     0.075 A 
HETATM   27  H16 UNL     1      22.067   5.284  53.022  1.00  0.00     0.155 HD
HETATM   28  H19 UNL     1      22.490   1.504  50.341  1.00  0.00     0.194 HD
ENDROOT
BRANCH  24  29
HETATM   29  O4  UNL     1      23.931   8.751  47.581  1.00  0.00    -0.366 OA
HETATM   30  C24 UNL     1      23.372   9.031  46.362  1.00  0.00     0.204 C 
ENDBRANCH  24  29
BRANCH   1  31
HETATM   31  C2  UNL     1      27.433  10.452  46.092  1.00  0.00     0.013 C 
HETATM   32  C1  UNL     1      27.110  11.735  46.773  1.00  0.00     0.006 C 
ENDBRANCH   1  31
BRANCH   2  33
HETATM   33  O1  UNL     1      30.277  10.546  47.408  1.00  0.00    -0.359 OA
HETATM   34  C5  UNL     1      31.078  11.377  48.194  1.00  0.00     0.209 C 
ENDBRANCH   2  33
TORSDOF 3
ENDMDL
MODEL 9
REMARK VINA RESULT:      -7.7      8.105     10.331
REMARK  3 active torsions:
REMARK  status: ('A' for Active; 'I' for Inactive)
REMARK    1  A    between atoms: C2_2  and  C3_3 
REMARK    2  A    between atoms: C4_4  and  O1_5 
REMARK    3  A    between atoms: C23_28  and  O4_29 
ROOT
HETATM    1  C3  UNL     1      32.948   6.180  46.386  1.00  0.00     0.097 A 
HETATM    2  C4  UNL     1      33.826   5.850  47.528  1.00  0.00     0.056 A 
HETATM    3  C6  UNL     1      33.663   6.173  48.801  1.00  0.00     0.036 A 
HETATM    4  C7  UNL     1      32.501   6.951  49.216  1.00  0.00     0.041 A 
HETATM    5  C8  UNL     1      31.618   7.328  48.312  1.00  0.00     0.095 A 
HETATM    6  O2  UNL     1      30.482   8.045  48.476  1.00  0.00    -0.329 OA
HETATM    7  C9  UNL     1      29.345   8.015  47.575  1.00  0.00     0.139 C 
HETATM    8  C10 UNL     1      28.657   9.305  47.954  1.00  0.00     0.014 C 
HETATM    9  C11 UNL     1      28.002   9.706  49.080  1.00  0.00    -0.008 C 
HETATM   10  C12 UNL     1      27.499   9.496  50.432  1.00  0.00     0.143 C 
HETATM   11  N1  UNL     1      26.141   9.617  50.765  1.00  0.00    -0.396 N 
HETATM   12  C13 UNL     1      25.202   8.631  50.287  1.00  0.00     0.319 C 
HETATM   13  O3  UNL     1      24.846   8.714  48.994  1.00  0.00    -0.261 OA
HETATM   14  N2  UNL     1      24.036   7.779  48.447  1.00  0.00    -0.269 N 
HETATM   15  C14 UNL     1      25.330   7.504  47.784  1.00  0.00     0.041 A 
HETATM   16  C15 UNL     1      25.743   8.519  46.882  1.00  0.00     0.025 A 
HETATM   17  C16 UNL     1      26.939   7.850  46.949  1.00  0.00    -0.009 A 
HETATM   18  C17 UNL     1      27.115   6.759  47.685  1.00  0.00     0.025 A 
HETATM   19  C18 UNL     1      26.931   5.698  48.522  1.00  0.00    -0.055 A 
HETATM   20  C19 UNL     1      25.736   6.376  48.462  1.00  0.00     0.085 A 
HETATM   21  C20 UNL     1      28.137   4.905  48.654  1.00  0.00     0.001 C 
HETATM   22  C21 UNL     1      29.064   5.517  47.875  1.00  0.00    -0.017 C 
HETATM   23  C22 UNL     1      28.538   6.856  47.990  1.00  0.00     0.069 C 
HETATM   24  C23 UNL     1      29.826   8.048  46.175  1.00  0.00     0.283 C 
HETATM   25  N3  UNL     1      31.045   7.264  45.948  1.00  0.00    -0.255 NA
HETATM   26  C25 UNL     1      31.796   6.979  46.931  1.00  0.00     0.075 A 
HETATM   27  H16 UNL     1      25.784  10.578  50.770  1.00  0.00     0.155 HD
HETATM   28  H19 UNL     1      23.027   7.541  48.573  1.00  0.00     0.194 HD
ENDROOT
BRANCH  24  29
HETATM   29  O4  UNL     1      30.205   9.365  45.862  1.00  0.00    -0.366 OA
HETATM   30  C24 UNL     1      30.611   9.541  44.565  1.00  0.00     0.204 C 
ENDBRANCH  24  29
BRANCH   1  31
HETATM   31  C2  UNL     1      33.592   7.000  45.315  1.00  0.00     0.013 C 
HETATM   32  C1  UNL     1      34.248   8.254  45.773  1.00  0.00     0.006 C 
ENDBRANCH   1  31
BRANCH   2  33
HETATM   33  O1  UNL     1      35.011   5.106  47.372  1.00  0.00    -0.359 OA
HETATM   34  C5  UNL     1      35.065   3.710  47.410  1.00  0.00     0.209 C 
ENDBRANCH   2  33
TORSDOF 3
ENDMDL
