MODEL 1
REMARK VINA RESULT:      -7.9      0.000      0.000
REMARK  5 active torsions:
REMARK  status: ('A' for Active; 'I' for Inactive)
REMARK    1  A    between atoms: C2_2  and  N1_3 
REMARK    2  A    between atoms: N1_3  and  C3_4 
REMARK    3  A    between atoms: C8_11  and  N4_12 
REMARK       I    between atoms: N4_12  and  C9_13 
REMARK    4  A    between atoms: C9_13  and  C10_15 
REMARK    5  A    between atoms: C11_16  and  C12_17 
ROOT
HETATM    1  C3  UNL     1      26.198   0.741  54.107  1.00  0.00     0.033 A 
HETATM    2  C4  UNL     1      25.627  -0.318  54.790  1.00  0.00     0.032 A 
HETATM    3  C5  UNL     1      24.355  -0.815  54.480  1.00  0.00     0.035 A 
HETATM    4  C6  UNL     1      23.711  -0.177  53.449  1.00  0.00     0.072 A 
HETATM    5  N2  UNL     1      22.502  -0.625  53.150  1.00  0.00    -0.241 NA
HETATM    6  C7  UNL     1      21.741  -0.109  52.183  1.00  0.00     0.236 A 
HETATM    7  N3  UNL     1      22.258   0.906  51.506  1.00  0.00    -0.223 NA
HETATM    8  C8  UNL     1      23.474   1.427  51.740  1.00  0.00     0.144 A 
HETATM    9  C16 UNL     1      24.255   0.881  52.749  1.00  0.00     0.041 A 
HETATM   10  C17 UNL     1      25.499   1.357  53.061  1.00  0.00     0.047 A 
ENDROOT
BRANCH   8  11
HETATM   11  N4  UNL     1      23.988   2.505  50.984  1.00  0.00    -0.307 N 
HETATM   12  C9  UNL     1      24.025   3.207  49.763  1.00  0.00     0.246 C 
HETATM   13  O1  UNL     1      23.317   2.820  48.805  1.00  0.00    -0.268 OA
HETATM   14  H7  UNL     1      24.609   2.908  51.749  1.00  0.00     0.170 HD
BRANCH  12  15
HETATM   15  C10 UNL     1      24.861   4.362  49.581  1.00  0.00     0.071 C 
HETATM   16  C11 UNL     1      25.215   5.403  48.902  1.00  0.00    -0.013 C 
BRANCH  16  17
HETATM   17  C12 UNL     1      26.078   6.570  48.741  1.00  0.00    -0.034 C 
HETATM   18  C13 UNL     1      25.607   7.475  47.609  1.00  0.00     0.018 C 
HETATM   19  C14 UNL     1      27.494   6.104  48.464  1.00  0.00     0.018 C 
HETATM   20  C15 UNL     1      26.129   7.443  49.985  1.00  0.00     0.018 C 
ENDBRANCH  16  17
ENDBRANCH  12  15
ENDBRANCH   8  11
BRANCH   1  21
HETATM   21  N1  UNL     1      27.515   1.197  54.487  1.00  0.00    -0.354 N 
HETATM   22  H3  UNL     1      27.935   2.001  54.995  1.00  0.00     0.166 HD
BRANCH  21  23
HETATM   23  C2  UNL     1      28.356   0.154  53.947  1.00  0.00     0.046 A 
HETATM   24  C1  UNL     1      29.687   0.100  53.831  1.00  0.00     0.133 A 
HETATM   25  S1  UNL     1      28.879  -1.375  53.189  1.00  0.00    -0.171 SA
HETATM   26  C18 UNL     1      27.514  -2.439  52.705  1.00  0.00     0.085 C 
ENDBRANCH  21  23
ENDBRANCH   1  21
TORSDOF 5
ENDMDL
MODEL 2
REMARK VINA RESULT:      -7.6      2.574      3.094
REMARK  5 active torsions:
REMARK  status: ('A' for Active; 'I' for Inactive)
REMARK    1  A    between atoms: C2_2  and  N1_3 
REMARK    2  A    between atoms: N1_3  and  C3_4 
REMARK    3  A    between atoms: C8_11  and  N4_12 
REMARK       I    between atoms: N4_12  and  C9_13 
REMARK    4  A    between atoms: C9_13  and  C10_15 
REMARK    5  A    between atoms: C11_16  and  C12_17 
ROOT
HETATM    1  C3  UNL     1      25.700   0.847  52.397  1.00  0.00     0.033 A 
HETATM    2  C4  UNL     1      25.888  -0.363  53.040  1.00  0.00     0.032 A 
HETATM    3  C5  UNL     1      24.849  -1.035  53.696  1.00  0.00     0.035 A 
HETATM    4  C6  UNL     1      23.628  -0.409  53.657  1.00  0.00     0.072 A 
HETATM    5  N2  UNL     1      22.636  -1.024  54.283  1.00  0.00    -0.241 NA
HETATM    6  C7  UNL     1      21.393  -0.544  54.347  1.00  0.00     0.236 A 
HETATM    7  N3  UNL     1      21.177   0.613  53.740  1.00  0.00    -0.223 NA
HETATM    8  C8  UNL     1      22.120   1.308  53.083  1.00  0.00     0.144 A 
HETATM    9  C16 UNL     1      23.410   0.798  53.024  1.00  0.00     0.041 A 
HETATM   10  C17 UNL     1      24.433   1.445  52.386  1.00  0.00     0.047 A 
ENDROOT
BRANCH   8  11
HETATM   11  N4  UNL     1      21.840   2.534  52.441  1.00  0.00    -0.307 N 
HETATM   12  C9  UNL     1      20.895   3.519  52.088  1.00  0.00     0.246 C 
HETATM   13  O1  UNL     1      19.703   3.390  52.451  1.00  0.00    -0.268 OA
HETATM   14  H7  UNL     1      22.831   2.728  52.104  1.00  0.00     0.170 HD
BRANCH  12  15
HETATM   15  C10 UNL     1      21.260   4.674  51.316  1.00  0.00     0.071 C 
HETATM   16  C11 UNL     1      22.008   5.709  51.118  1.00  0.00    -0.013 C 
BRANCH  16  17
HETATM   17  C12 UNL     1      22.359   6.878  50.314  1.00  0.00    -0.034 C 
HETATM   18  C13 UNL     1      23.583   7.600  50.864  1.00  0.00     0.018 C 
HETATM   19  C14 UNL     1      21.179   7.828  50.283  1.00  0.00     0.018 C 
HETATM   20  C15 UNL     1      22.689   6.525  48.872  1.00  0.00     0.018 C 
ENDBRANCH  16  17
ENDBRANCH  12  15
ENDBRANCH   8  11
BRANCH   1  21
HETATM   21  N1  UNL     1      26.823   1.481  51.744  1.00  0.00    -0.354 N 
HETATM   22  H3  UNL     1      27.041   1.894  50.817  1.00  0.00     0.166 HD
BRANCH  21  23
HETATM   23  C2  UNL     1      27.822   1.455  52.787  1.00  0.00     0.046 A 
HETATM   24  C1  UNL     1      28.226   2.428  53.611  1.00  0.00     0.133 A 
HETATM   25  S1  UNL     1      29.105   0.882  53.887  1.00  0.00    -0.171 SA
HETATM   26  C18 UNL     1      29.595  -0.822  53.592  1.00  0.00     0.085 C 
ENDBRANCH  21  23
ENDBRANCH   1  21
TORSDOF 5
ENDMDL
MODEL 3
REMARK VINA RESULT:      -7.6      3.452      6.715
REMARK  5 active torsions:
REMARK  status: ('A' for Active; 'I' for Inactive)
REMARK    1  A    between atoms: C2_2  and  N1_3 
REMARK    2  A    between atoms: N1_3  and  C3_4 
REMARK    3  A    between atoms: C8_11  and  N4_12 
REMARK       I    between atoms: N4_12  and  C9_13 
REMARK    4  A    between atoms: C9_13  and  C10_15 
REMARK    5  A    between atoms: C11_16  and  C12_17 
ROOT
HETATM    1  C3  UNL     1      21.395   1.388  49.721  1.00  0.00     0.033 A 
HETATM    2  C4  UNL     1      20.067   1.451  49.340  1.00  0.00     0.032 A 
HETATM    3  C5  UNL     1      19.034   0.918  50.122  1.00  0.00     0.035 A 
HETATM    4  C6  UNL     1      19.431   0.327  51.295  1.00  0.00     0.072 A 
HETATM    5  N2  UNL     1      18.470  -0.194  52.042  1.00  0.00    -0.241 NA
HETATM    6  C7  UNL     1      18.689  -0.811  53.204  1.00  0.00     0.236 A 
HETATM    7  N3  UNL     1      19.950  -0.888  53.601  1.00  0.00    -0.223 NA
HETATM    8  C8  UNL     1      20.990  -0.391  52.910  1.00  0.00     0.144 A 
HETATM    9  C16 UNL     1      20.748   0.249  51.702  1.00  0.00     0.041 A 
HETATM   10  C17 UNL     1      21.748   0.773  50.930  1.00  0.00     0.047 A 
ENDROOT
BRANCH   8  11
HETATM   11  N4  UNL     1      22.319  -0.488  53.379  1.00  0.00    -0.307 N 
HETATM   12  C9  UNL     1      23.207  -0.867  54.405  1.00  0.00     0.246 C 
HETATM   13  O1  UNL     1      22.757  -1.383  55.454  1.00  0.00    -0.268 OA
HETATM   14  H7  UNL     1      22.785  -0.070  52.518  1.00  0.00     0.170 HD
BRANCH  12  15
HETATM   15  C10 UNL     1      24.626  -0.673  54.285  1.00  0.00     0.071 C 
HETATM   16  C11 UNL     1      25.660  -0.289  53.611  1.00  0.00    -0.013 C 
BRANCH  16  17
HETATM   17  C12 UNL     1      27.106  -0.103  53.514  1.00  0.00    -0.034 C 
HETATM   18  C13 UNL     1      27.469   1.105  52.659  1.00  0.00     0.018 C 
HETATM   19  C14 UNL     1      27.726  -1.353  52.920  1.00  0.00     0.018 C 
HETATM   20  C15 UNL     1      27.763   0.124  54.866  1.00  0.00     0.018 C 
ENDBRANCH  16  17
ENDBRANCH  12  15
ENDBRANCH   8  11
BRANCH   1  21
HETATM   21  N1  UNL     1      22.404   1.959  48.859  1.00  0.00    -0.354 N 
HETATM   22  H3  UNL     1      22.813   1.771  47.923  1.00  0.00     0.166 HD
BRANCH  21  23
HETATM   23  C2  UNL     1      22.870   3.074  49.650  1.00  0.00     0.046 A 
HETATM   24  C1  UNL     1      22.846   4.384  49.382  1.00  0.00     0.133 A 
HETATM   25  S1  UNL     1      23.594   4.020  50.979  1.00  0.00    -0.171 SA
HETATM   26  C18 UNL     1      24.235   3.005  52.316  1.00  0.00     0.085 C 
ENDBRANCH  21  23
ENDBRANCH   1  21
TORSDOF 5
ENDMDL
MODEL 4
REMARK VINA RESULT:      -7.5      1.727      2.339
REMARK  5 active torsions:
REMARK  status: ('A' for Active; 'I' for Inactive)
REMARK    1  A    between atoms: C2_2  and  N1_3 
REMARK    2  A    between atoms: N1_3  and  C3_4 
REMARK    3  A    between atoms: C8_11  and  N4_12 
REMARK       I    between atoms: N4_12  and  C9_13 
REMARK    4  A    between atoms: C9_13  and  C10_15 
REMARK    5  A    between atoms: C11_16  and  C12_17 
ROOT
HETATM    1  C3  UNL     1      24.133  -0.607  54.436  1.00  0.00     0.033 A 
HETATM    2  C4  UNL     1      23.308  -1.470  55.134  1.00  0.00     0.032 A 
HETATM    3  C5  UNL     1      21.935  -1.570  54.878  1.00  0.00     0.035 A 
HETATM    4  C6  UNL     1      21.462  -0.750  53.884  1.00  0.00     0.072 A 
HETATM    5  N2  UNL     1      20.164  -0.821  53.636  1.00  0.00    -0.241 NA
HETATM    6  C7  UNL     1      19.547  -0.086  52.710  1.00  0.00     0.236 A 
HETATM    7  N3  UNL     1      20.308   0.751  52.020  1.00  0.00    -0.223 NA
HETATM    8  C8  UNL     1      21.631   0.892  52.203  1.00  0.00     0.144 A 
HETATM    9  C16 UNL     1      22.261   0.121  53.170  1.00  0.00     0.041 A 
HETATM   10  C17 UNL     1      23.601   0.209  53.430  1.00  0.00     0.047 A 
ENDROOT
BRANCH   8  11
HETATM   11  N4  UNL     1      22.404   1.792  51.435  1.00  0.00    -0.307 N 
HETATM   12  C9  UNL     1      22.825   2.235  50.165  1.00  0.00     0.246 C 
HETATM   13  O1  UNL     1      22.385   1.671  49.137  1.00  0.00    -0.268 OA
HETATM   14  H7  UNL     1      22.815   2.334  52.254  1.00  0.00     0.170 HD
BRANCH  12  15
HETATM   15  C10 UNL     1      23.753   3.321  50.014  1.00  0.00     0.071 C 
HETATM   16  C11 UNL     1      24.161   4.379  49.393  1.00  0.00    -0.013 C 
BRANCH  16  17
HETATM   17  C12 UNL     1      25.119   5.475  49.261  1.00  0.00    -0.034 C 
HETATM   18  C13 UNL     1      24.776   6.394  48.095  1.00  0.00     0.018 C 
HETATM   19  C14 UNL     1      26.506   4.896  49.062  1.00  0.00     0.018 C 
HETATM   20  C15 UNL     1      25.175   6.361  50.495  1.00  0.00     0.018 C 
ENDBRANCH  16  17
ENDBRANCH  12  15
ENDBRANCH   8  11
BRANCH   1  21
HETATM   21  N1  UNL     1      25.541  -0.560  54.761  1.00  0.00    -0.354 N 
HETATM   22  H3  UNL     1      26.135  -0.569  55.613  1.00  0.00     0.166 HD
BRANCH  21  23
HETATM   23  C2  UNL     1      26.142  -0.482  53.450  1.00  0.00     0.046 A 
HETATM   24  C1  UNL     1      26.628  -1.455  52.671  1.00  0.00     0.133 A 
HETATM   25  S1  UNL     1      26.786   0.174  51.920  1.00  0.00    -0.171 SA
HETATM   26  C18 UNL     1      26.694   1.965  51.813  1.00  0.00     0.085 C 
ENDBRANCH  21  23
ENDBRANCH   1  21
TORSDOF 5
ENDMDL
MODEL 5
REMARK VINA RESULT:      -7.5      2.751      4.866
REMARK  5 active torsions:
REMARK  status: ('A' for Active; 'I' for Inactive)
REMARK    1  A    between atoms: C2_2  and  N1_3 
REMARK    2  A    between atoms: N1_3  and  C3_4 
REMARK    3  A    between atoms: C8_11  and  N4_12 
REMARK       I    between atoms: N4_12  and  C9_13 
REMARK    4  A    between atoms: C9_13  and  C10_15 
REMARK    5  A    between atoms: C11_16  and  C12_17 
ROOT
HETATM    1  C3  UNL     1      24.218  -0.446  53.491  1.00  0.00     0.033 A 
HETATM    2  C4  UNL     1      24.921  -0.881  54.600  1.00  0.00     0.032 A 
HETATM    3  C5  UNL     1      26.165  -0.346  54.959  1.00  0.00     0.035 A 
HETATM    4  C6  UNL     1      26.640   0.641  54.133  1.00  0.00     0.072 A 
HETATM    5  N2  UNL     1      27.821   1.150  54.450  1.00  0.00    -0.241 NA
HETATM    6  C7  UNL     1      28.425   2.108  53.746  1.00  0.00     0.236 A 
HETATM    7  N3  UNL     1      27.779   2.550  52.677  1.00  0.00    -0.223 NA
HETATM    8  C8  UNL     1      26.580   2.094  52.279  1.00  0.00     0.144 A 
HETATM    9  C16 UNL     1      25.962   1.097  53.020  1.00  0.00     0.041 A 
HETATM   10  C17 UNL     1      24.747   0.566  52.680  1.00  0.00     0.047 A 
ENDROOT
BRANCH   8  11
HETATM   11  N4  UNL     1      25.924   2.604  51.137  1.00  0.00    -0.307 N 
HETATM   12  C9  UNL     1      25.998   3.326  49.929  1.00  0.00     0.246 C 
HETATM   13  O1  UNL     1      27.099   3.790  49.553  1.00  0.00    -0.268 OA
HETATM   14  H7  UNL     1      24.954   2.234  51.375  1.00  0.00     0.170 HD
BRANCH  12  15
HETATM   15  C10 UNL     1      24.838   3.553  49.111  1.00  0.00     0.071 C 
HETATM   16  C11 UNL     1      23.593   3.873  48.983  1.00  0.00    -0.013 C 
BRANCH  16  17
HETATM   17  C12 UNL     1      22.428   4.096  48.130  1.00  0.00    -0.034 C 
HETATM   18  C13 UNL     1      22.127   2.890  47.249  1.00  0.00     0.018 C 
HETATM   19  C14 UNL     1      22.679   5.312  47.259  1.00  0.00     0.018 C 
HETATM   20  C15 UNL     1      21.159   4.367  48.922  1.00  0.00     0.018 C 
ENDBRANCH  16  17
ENDBRANCH  12  15
ENDBRANCH   8  11
BRANCH   1  21
HETATM   21  N1  UNL     1      22.941  -1.049  53.184  1.00  0.00    -0.354 N 
HETATM   22  H3  UNL     1      22.583  -1.962  52.843  1.00  0.00     0.166 HD
BRANCH  21  23
HETATM   23  C2  UNL     1      22.028   0.030  53.482  1.00  0.00     0.046 A 
HETATM   24  C1  UNL     1      21.140   0.152  54.475  1.00  0.00     0.133 A 
HETATM   25  S1  UNL     1      21.141   1.575  53.372  1.00  0.00    -0.171 SA
HETATM   26  C18 UNL     1      21.591   2.561  51.940  1.00  0.00     0.085 C 
ENDBRANCH  21  23
ENDBRANCH   1  21
TORSDOF 5
ENDMDL
MODEL 6
REMARK VINA RESULT:      -7.4      1.915      2.929
REMARK  5 active torsions:
REMARK  status: ('A' for Active; 'I' for Inactive)
REMARK    1  A    between atoms: C2_2  and  N1_3 
REMARK    2  A    between atoms: N1_3  and  C3_4 
REMARK    3  A    between atoms: C8_11  and  N4_12 
REMARK       I    between atoms: N4_12  and  C9_13 
REMARK    4  A    between atoms: C9_13  and  C10_15 
REMARK    5  A    between atoms: C11_16  and  C12_17 
ROOT
HETATM    1  C3  UNL     1      25.003   2.318  52.939  1.00  0.00     0.033 A 
HETATM    2  C4  UNL     1      24.062   1.340  53.206  1.00  0.00     0.032 A 
HETATM    3  C5  UNL     1      23.094   0.951  52.271  1.00  0.00     0.035 A 
HETATM    4  C6  UNL     1      23.143   1.610  51.068  1.00  0.00     0.072 A 
HETATM    5  N2  UNL     1      22.228   1.265  50.176  1.00  0.00    -0.241 NA
HETATM    6  C7  UNL     1      22.133   1.815  48.964  1.00  0.00     0.236 A 
HETATM    7  N3  UNL     1      23.020   2.755  48.673  1.00  0.00    -0.223 NA
HETATM    8  C8  UNL     1      23.982   3.170  49.514  1.00  0.00     0.144 A 
HETATM    9  C16 UNL     1      24.070   2.589  50.772  1.00  0.00     0.041 A 
HETATM   10  C17 UNL     1      25.011   2.960  51.694  1.00  0.00     0.047 A 
ENDROOT
BRANCH   8  11
HETATM   11  N4  UNL     1      24.914   4.169  49.155  1.00  0.00    -0.307 N 
HETATM   12  C9  UNL     1      25.237   5.538  49.073  1.00  0.00     0.246 C 
HETATM   13  O1  UNL     1      24.415   6.393  49.476  1.00  0.00    -0.268 OA
HETATM   14  H7  UNL     1      25.673   3.511  48.803  1.00  0.00     0.170 HD
BRANCH  12  15
HETATM   15  C10 UNL     1      26.489   5.988  48.531  1.00  0.00     0.071 C 
HETATM   16  C11 UNL     1      27.546   6.729  48.596  1.00  0.00    -0.013 C 
BRANCH  16  17
HETATM   17  C12 UNL     1      28.817   7.169  48.024  1.00  0.00    -0.034 C 
HETATM   18  C13 UNL     1      29.460   8.276  48.850  1.00  0.00     0.018 C 
HETATM   19  C14 UNL     1      28.578   7.662  46.610  1.00  0.00     0.018 C 
HETATM   20  C15 UNL     1      29.845   6.052  47.941  1.00  0.00     0.018 C 
ENDBRANCH  16  17
ENDBRANCH  12  15
ENDBRANCH   8  11
BRANCH   1  21
HETATM   21  N1  UNL     1      25.968   2.664  53.957  1.00  0.00    -0.354 N 
HETATM   22  H3  UNL     1      26.033   3.309  54.768  1.00  0.00     0.166 HD
BRANCH  21  23
HETATM   23  C2  UNL     1      27.076   1.802  53.617  1.00  0.00     0.046 A 
HETATM   24  C1  UNL     1      28.383   2.075  53.543  1.00  0.00     0.133 A 
HETATM   25  S1  UNL     1      28.013   0.361  53.136  1.00  0.00    -0.171 SA
HETATM   26  C18 UNL     1      26.992  -1.080  52.803  1.00  0.00     0.085 C 
ENDBRANCH  21  23
ENDBRANCH   1  21
TORSDOF 5
ENDMDL
MODEL 7
REMARK VINA RESULT:      -7.3      3.874      8.280
REMARK  5 active torsions:
REMARK  status: ('A' for Active; 'I' for Inactive)
REMARK    1  A    between atoms: C2_2  and  N1_3 
REMARK    2  A    between atoms: N1_3  and  C3_4 
REMARK    3  A    between atoms: C8_11  and  N4_12 
REMARK       I    between atoms: N4_12  and  C9_13 
REMARK    4  A    between atoms: C9_13  and  C10_15 
REMARK    5  A    between atoms: C11_16  and  C12_17 
ROOT
HETATM    1  C3  UNL     1      29.434   5.947  47.798  1.00  0.00     0.033 A 
HETATM    2  C4  UNL     1      29.259   7.108  47.067  1.00  0.00     0.032 A 
HETATM    3  C5  UNL     1      28.055   7.823  47.066  1.00  0.00     0.035 A 
HETATM    4  C6  UNL     1      27.056   7.290  47.842  1.00  0.00     0.072 A 
HETATM    5  N2  UNL     1      25.905   7.945  47.844  1.00  0.00    -0.241 NA
HETATM    6  C7  UNL     1      24.835   7.555  48.537  1.00  0.00     0.236 A 
HETATM    7  N3  UNL     1      24.967   6.447  49.251  1.00  0.00    -0.223 NA
HETATM    8  C8  UNL     1      26.093   5.717  49.309  1.00  0.00     0.144 A 
HETATM    9  C16 UNL     1      27.200   6.134  48.583  1.00  0.00     0.041 A 
HETATM   10  C17 UNL     1      28.383   5.445  48.576  1.00  0.00     0.047 A 
ENDROOT
BRANCH   8  11
HETATM   11  N4  UNL     1      26.191   4.547  50.093  1.00  0.00    -0.307 N 
HETATM   12  C9  UNL     1      25.642   3.306  50.477  1.00  0.00     0.246 C 
HETATM   13  O1  UNL     1      24.570   2.918  49.958  1.00  0.00    -0.268 OA
HETATM   14  H7  UNL     1      27.109   4.794  50.573  1.00  0.00     0.170 HD
BRANCH  12  15
HETATM   15  C10 UNL     1      26.278   2.469  51.456  1.00  0.00     0.071 C 
HETATM   16  C11 UNL     1      26.433   1.322  52.030  1.00  0.00    -0.013 C 
BRANCH  16  17
HETATM   17  C12 UNL     1      27.095   0.492  53.034  1.00  0.00    -0.034 C 
HETATM   18  C13 UNL     1      27.093  -0.982  52.646  1.00  0.00     0.018 C 
HETATM   19  C14 UNL     1      26.389   0.669  54.364  1.00  0.00     0.018 C 
HETATM   20  C15 UNL     1      28.552   0.871  53.246  1.00  0.00     0.018 C 
ENDBRANCH  16  17
ENDBRANCH  12  15
ENDBRANCH   8  11
BRANCH   1  21
HETATM   21  N1  UNL     1      30.707   5.266  47.746  1.00  0.00    -0.354 N 
HETATM   22  H3  UNL     1      31.095   4.390  47.345  1.00  0.00     0.166 HD
BRANCH  21  23
HETATM   23  C2  UNL     1      31.554   6.167  48.492  1.00  0.00     0.046 A 
HETATM   24  C1  UNL     1      31.948   6.112  49.769  1.00  0.00     0.133 A 
HETATM   25  S1  UNL     1      32.595   7.555  48.909  1.00  0.00    -0.171 SA
HETATM   26  C18 UNL     1      32.813   8.719  47.558  1.00  0.00     0.085 C 
ENDBRANCH  21  23
ENDBRANCH   1  21
TORSDOF 5
ENDMDL
MODEL 8
REMARK VINA RESULT:      -7.3      2.254      4.430
REMARK  5 active torsions:
REMARK  status: ('A' for Active; 'I' for Inactive)
REMARK    1  A    between atoms: C2_2  and  N1_3 
REMARK    2  A    between atoms: N1_3  and  C3_4 
REMARK    3  A    between atoms: C8_11  and  N4_12 
REMARK       I    between atoms: N4_12  and  C9_13 
REMARK    4  A    between atoms: C9_13  and  C10_15 
REMARK    5  A    between atoms: C11_16  and  C12_17 
ROOT
HETATM    1  C3  UNL     1      24.010   0.462  52.827  1.00  0.00     0.033 A 
HETATM    2  C4  UNL     1      24.388  -0.419  53.825  1.00  0.00     0.032 A 
HETATM    3  C5  UNL     1      25.682  -0.438  54.361  1.00  0.00     0.035 A 
HETATM    4  C6  UNL     1      26.552   0.479  53.826  1.00  0.00     0.072 A 
HETATM    5  N2  UNL     1      27.784   0.467  54.311  1.00  0.00    -0.241 NA
HETATM    6  C7  UNL     1      28.750   1.286  53.894  1.00  0.00     0.236 A 
HETATM    7  N3  UNL     1      28.423   2.145  52.939  1.00  0.00    -0.223 NA
HETATM    8  C8  UNL     1      27.201   2.228  52.387  1.00  0.00     0.144 A 
HETATM    9  C16 UNL     1      26.204   1.370  52.831  1.00  0.00     0.041 A 
HETATM   10  C17 UNL     1      24.937   1.380  52.316  1.00  0.00     0.047 A 
ENDROOT
BRANCH   8  11
HETATM   11  N4  UNL     1      26.895   3.169  51.378  1.00  0.00    -0.307 N 
HETATM   12  C9  UNL     1      26.552   3.423  50.035  1.00  0.00     0.246 C 
HETATM   13  O1  UNL     1      26.406   2.464  49.243  1.00  0.00    -0.268 OA
HETATM   14  H7  UNL     1      26.987   4.038  51.986  1.00  0.00     0.170 HD
BRANCH  12  15
HETATM   15  C10 UNL     1      26.368   4.760  49.543  1.00  0.00     0.071 C 
HETATM   16  C11 UNL     1      26.805   5.800  48.913  1.00  0.00    -0.013 C 
BRANCH  16  17
HETATM   17  C12 UNL     1      26.592   7.161  48.423  1.00  0.00    -0.034 C 
HETATM   18  C13 UNL     1      25.250   7.309  47.717  1.00  0.00     0.018 C 
HETATM   19  C14 UNL     1      27.713   7.523  47.468  1.00  0.00     0.018 C 
HETATM   20  C15 UNL     1      26.600   8.196  49.536  1.00  0.00     0.018 C 
ENDBRANCH  16  17
ENDBRANCH  12  15
ENDBRANCH   8  11
BRANCH   1  21
HETATM   21  N1  UNL     1      22.656   0.419  52.324  1.00  0.00    -0.354 N 
HETATM   22  H3  UNL     1      21.813  -0.177  52.435  1.00  0.00     0.166 HD
BRANCH  21  23
HETATM   23  C2  UNL     1      22.628   1.572  51.456  1.00  0.00     0.046 A 
HETATM   24  C1  UNL     1      22.392   1.650  50.141  1.00  0.00     0.133 A 
HETATM   25  S1  UNL     1      22.730   3.258  50.877  1.00  0.00    -0.171 SA
HETATM   26  C18 UNL     1      23.184   4.430  52.160  1.00  0.00     0.085 C 
ENDBRANCH  21  23
ENDBRANCH   1  21
TORSDOF 5
ENDMDL
MODEL 9
REMARK VINA RESULT:      -7.3      2.367      4.553
REMARK  5 active torsions:
REMARK  status: ('A' for Active; 'I' for Inactive)
REMARK    1  A    between atoms: C2_2  and  N1_3 
REMARK    2  A    between atoms: N1_3  and  C3_4 
REMARK    3  A    between atoms: C8_11  and  N4_12 
REMARK       I    between atoms: N4_12  and  C9_13 
REMARK    4  A    between atoms: C9_13  and  C10_15 
REMARK    5  A    between atoms: C11_16  and  C12_17 
ROOT
HETATM    1  C3  UNL     1      23.726   0.709  52.189  1.00  0.00     0.033 A 
HETATM    2  C4  UNL     1      23.945  -0.217  53.193  1.00  0.00     0.032 A 
HETATM    3  C5  UNL     1      25.161  -0.306  53.881  1.00  0.00     0.035 A 
HETATM    4  C6  UNL     1      26.124   0.591  53.491  1.00  0.00     0.072 A 
HETATM    5  N2  UNL     1      27.285   0.513  54.123  1.00  0.00    -0.241 NA
HETATM    6  C7  UNL     1      28.325   1.305  53.856  1.00  0.00     0.236 A 
HETATM    7  N3  UNL     1      28.149   2.206  52.901  1.00  0.00    -0.223 NA
HETATM    8  C8  UNL     1      27.009   2.357  52.207  1.00  0.00     0.144 A 
HETATM    9  C16 UNL     1      25.934   1.527  52.494  1.00  0.00     0.041 A 
HETATM   10  C17 UNL     1      24.741   1.604  51.829  1.00  0.00     0.047 A 
ENDROOT
BRANCH   8  11
HETATM   11  N4  UNL     1      26.865   3.341  51.204  1.00  0.00    -0.307 N 
HETATM   12  C9  UNL     1      26.705   3.651  49.838  1.00  0.00     0.246 C 
HETATM   13  O1  UNL     1      26.631   2.725  48.998  1.00  0.00    -0.268 OA
HETATM   14  H7  UNL     1      26.905   4.186  51.851  1.00  0.00     0.170 HD
BRANCH  12  15
HETATM   15  C10 UNL     1      26.627   5.010  49.377  1.00  0.00     0.071 C 
HETATM   16  C11 UNL     1      27.031   5.964  48.604  1.00  0.00    -0.013 C 
BRANCH  16  17
HETATM   17  C12 UNL     1      26.932   7.350  48.153  1.00  0.00    -0.034 C 
HETATM   18  C13 UNL     1      27.102   8.336  49.301  1.00  0.00     0.018 C 
HETATM   19  C14 UNL     1      25.582   7.561  47.496  1.00  0.00     0.018 C 
HETATM   20  C15 UNL     1      27.992   7.713  47.125  1.00  0.00     0.018 C 
ENDBRANCH  16  17
ENDBRANCH  12  15
ENDBRANCH   8  11
BRANCH   1  21
HETATM   21  N1  UNL     1      22.443   0.737  51.523  1.00  0.00    -0.354 N 
HETATM   22  H3  UNL     1      22.082   0.785  50.551  1.00  0.00     0.166 HD
BRANCH  21  23
HETATM   23  C2  UNL     1      21.531   0.678  52.641  1.00  0.00     0.046 A 
HETATM   24  C1  UNL     1      20.710   1.615  53.129  1.00  0.00     0.133 A 
HETATM   25  S1  UNL     1      20.625   0.074  54.056  1.00  0.00    -0.171 SA
HETATM   26  C18 UNL     1      21.066  -1.602  54.528  1.00  0.00     0.085 C 
ENDBRANCH  21  23
ENDBRANCH   1  21
TORSDOF 5
ENDMDL
