MODEL 1
REMARK VINA RESULT:      -7.2      0.000      0.000
REMARK  7 active torsions:
REMARK  status: ('A' for Active; 'I' for Inactive)
REMARK    1  A    between atoms: C2_2  and  C3_3 
REMARK    2  A    between atoms: C2_2  and  C4_5 
REMARK    3  A    between atoms: C3_3  and  N1_4 
REMARK    4  A    between atoms: C6_7  and  C7_8 
REMARK    5  A    between atoms: C7_8  and  C8_9 
REMARK    6  A    between atoms: C11_12  and  O1_13 
REMARK    7  A    between atoms: C15_17  and  O2_18 
ROOT
HETATM    1  C4  UNL     1      22.541   0.890  52.554  1.00  0.00    -0.036 C 
HETATM    2  C5  UNL     1      23.330   1.948  52.457  1.00  0.00    -0.008 C 
HETATM    3  C6  UNL     1      23.878   2.137  51.263  1.00  0.00    -0.009 C 
HETATM    4  C15 UNL     1      22.988   2.048  50.118  1.00  0.00     0.072 C 
HETATM    5  C17 UNL     1      21.926   1.259  50.204  1.00  0.00     0.015 C 
HETATM    6  C18 UNL     1      21.649   0.485  51.439  1.00  0.00     0.070 C 
ENDROOT
BRANCH   3   7
HETATM    7  C7  UNL     1      25.306   2.418  51.148  1.00  0.00     0.080 C 
BRANCH   7   8
HETATM    8  C8  UNL     1      26.201   1.533  51.914  1.00  0.00    -0.054 A 
HETATM    9  C9  UNL     1      27.138   2.123  52.759  1.00  0.00     0.010 A 
HETATM   10  C10 UNL     1      28.020   1.386  53.525  1.00  0.00     0.037 A 
HETATM   11  C11 UNL     1      28.010   0.008  53.484  1.00  0.00     0.068 A 
HETATM   12  C13 UNL     1      27.091  -0.596  52.656  1.00  0.00     0.037 A 
HETATM   13  C14 UNL     1      26.222   0.152  51.902  1.00  0.00     0.010 A 
BRANCH  11  14
HETATM   14  O1  UNL     1      28.823  -0.862  54.186  1.00  0.00    -0.356 OA
HETATM   15  C12 UNL     1      30.122  -1.163  53.770  1.00  0.00     0.210 C 
ENDBRANCH  11  14
ENDBRANCH   7   8
ENDBRANCH   3   7
BRANCH   4  16
HETATM   16  O2  UNL     1      23.270   2.775  48.994  1.00  0.00    -0.356 OA
HETATM   17  C16 UNL     1      22.455   2.619  47.847  1.00  0.00     0.210 C 
ENDBRANCH   4  16
BRANCH   1  18
HETATM   18  C2  UNL     1      22.423  -0.010  53.721  1.00  0.00    -0.033 C 
HETATM   19  C1  UNL     1      23.392  -0.747  54.275  1.00  0.00     0.021 C 
BRANCH  18  20
HETATM   20  C3  UNL     1      21.067  -0.051  54.286  1.00  0.00     0.304 C 
BRANCH  20  21
HETATM   21  N1  UNL     1      20.559  -1.411  54.464  1.00  0.00     0.082 N 
HETATM   22  H5  UNL     1      20.815  -1.787  55.390  1.00  0.00     0.313 HD
HETATM   23  H6  UNL     1      19.586  -1.536  54.164  1.00  0.00     0.313 HD
ENDBRANCH  20  21
ENDBRANCH  18  20
ENDBRANCH   1  18
TORSDOF 7
ENDMDL
MODEL 2
REMARK VINA RESULT:      -7.0      2.988      6.412
REMARK  7 active torsions:
REMARK  status: ('A' for Active; 'I' for Inactive)
REMARK    1  A    between atoms: C2_2  and  C3_3 
REMARK    2  A    between atoms: C2_2  and  C4_5 
REMARK    3  A    between atoms: C3_3  and  N1_4 
REMARK    4  A    between atoms: C6_7  and  C7_8 
REMARK    5  A    between atoms: C7_8  and  C8_9 
REMARK    6  A    between atoms: C11_12  and  O1_13 
REMARK    7  A    between atoms: C15_17  and  O2_18 
ROOT
HETATM    1  C4  UNL     1      24.554   3.216  52.144  1.00  0.00    -0.036 C 
HETATM    2  C5  UNL     1      24.631   2.397  53.181  1.00  0.00    -0.008 C 
HETATM    3  C6  UNL     1      24.986   1.151  52.893  1.00  0.00    -0.009 C 
HETATM    4  C15 UNL     1      26.135   0.988  52.018  1.00  0.00     0.072 C 
HETATM    5  C17 UNL     1      26.389   1.935  51.127  1.00  0.00     0.015 C 
HETATM    6  C18 UNL     1      25.523   3.136  51.022  1.00  0.00     0.070 C 
ENDROOT
BRANCH   3   7
HETATM    7  C7  UNL     1      24.235   0.028  53.446  1.00  0.00     0.080 C 
BRANCH   7   8
HETATM    8  C8  UNL     1      22.791   0.012  53.153  1.00  0.00    -0.054 A 
HETATM    9  C9  UNL     1      21.916  -0.300  54.192  1.00  0.00     0.010 A 
HETATM   10  C10 UNL     1      20.546  -0.338  54.026  1.00  0.00     0.037 A 
HETATM   11  C11 UNL     1      19.974  -0.063  52.801  1.00  0.00     0.068 A 
HETATM   12  C13 UNL     1      20.821   0.247  51.761  1.00  0.00     0.037 A 
HETATM   13  C14 UNL     1      22.180   0.281  51.945  1.00  0.00     0.010 A 
BRANCH  11  14
HETATM   14  O1  UNL     1      18.630  -0.061  52.480  1.00  0.00    -0.356 OA
HETATM   15  C12 UNL     1      17.752  -1.039  52.953  1.00  0.00     0.210 C 
ENDBRANCH  11  14
ENDBRANCH   7   8
ENDBRANCH   3   7
BRANCH   4  16
HETATM   16  O2  UNL     1      26.915  -0.130  52.140  1.00  0.00    -0.356 OA
HETATM   17  C16 UNL     1      27.892  -0.183  53.163  1.00  0.00     0.210 C 
ENDBRANCH   4  16
BRANCH   1  18
HETATM   18  C2  UNL     1      23.552   4.283  51.943  1.00  0.00    -0.033 C 
HETATM   19  C1  UNL     1      22.275   4.278  52.343  1.00  0.00     0.021 C 
BRANCH  18  20
HETATM   20  C3  UNL     1      24.082   5.448  51.222  1.00  0.00     0.304 C 
BRANCH  20  21
HETATM   21  N1  UNL     1      24.311   6.605  52.087  1.00  0.00     0.082 N 
HETATM   22  H5  UNL     1      24.687   7.403  51.551  1.00  0.00     0.313 HD
HETATM   23  H6  UNL     1      23.540   6.801  52.734  1.00  0.00     0.313 HD
ENDBRANCH  20  21
ENDBRANCH  18  20
ENDBRANCH   1  18
TORSDOF 7
ENDMDL
MODEL 3
REMARK VINA RESULT:      -6.9      2.887      6.553
REMARK  7 active torsions:
REMARK  status: ('A' for Active; 'I' for Inactive)
REMARK    1  A    between atoms: C2_2  and  C3_3 
REMARK    2  A    between atoms: C2_2  and  C4_5 
REMARK    3  A    between atoms: C3_3  and  N1_4 
REMARK    4  A    between atoms: C6_7  and  C7_8 
REMARK    5  A    between atoms: C7_8  and  C8_9 
REMARK    6  A    between atoms: C11_12  and  O1_13 
REMARK    7  A    between atoms: C15_17  and  O2_18 
ROOT
HETATM    1  C4  UNL     1      26.873  -0.011  52.894  1.00  0.00    -0.036 C 
HETATM    2  C5  UNL     1      25.605  -0.255  52.605  1.00  0.00    -0.008 C 
HETATM    3  C6  UNL     1      24.725   0.527  53.217  1.00  0.00    -0.009 C 
HETATM    4  C15 UNL     1      24.995   1.954  53.194  1.00  0.00     0.072 C 
HETATM    5  C17 UNL     1      26.257   2.356  53.133  1.00  0.00     0.015 C 
HETATM    6  C18 UNL     1      27.369   1.375  53.090  1.00  0.00     0.070 C 
ENDROOT
BRANCH   3   7
HETATM    7  C7  UNL     1      23.556  -0.056  53.871  1.00  0.00     0.080 C 
BRANCH   7   8
HETATM    8  C8  UNL     1      22.296   0.001  53.110  1.00  0.00    -0.054 A 
HETATM    9  C9  UNL     1      21.108  -0.264  53.789  1.00  0.00     0.010 A 
HETATM   10  C10 UNL     1      19.874  -0.233  53.172  1.00  0.00     0.037 A 
HETATM   11  C11 UNL     1      19.761   0.070  51.831  1.00  0.00     0.068 A 
HETATM   12  C13 UNL     1      20.923   0.336  51.141  1.00  0.00     0.037 A 
HETATM   13  C14 UNL     1      22.141   0.300  51.771  1.00  0.00     0.010 A 
BRANCH  11  14
HETATM   14  O1  UNL     1      18.605   0.140  51.077  1.00  0.00    -0.356 OA
HETATM   15  C12 UNL     1      17.441   0.743  51.557  1.00  0.00     0.210 C 
ENDBRANCH  11  14
ENDBRANCH   7   8
ENDBRANCH   3   7
BRANCH   4  16
HETATM   16  O2  UNL     1      23.948   2.834  53.234  1.00  0.00    -0.356 OA
HETATM   17  C16 UNL     1      23.849   3.837  52.239  1.00  0.00     0.210 C 
ENDBRANCH   4  16
BRANCH   1  18
HETATM   18  C2  UNL     1      27.943  -1.017  53.058  1.00  0.00    -0.033 C 
HETATM   19  C1  UNL     1      29.193  -0.805  53.484  1.00  0.00     0.021 C 
BRANCH  18  20
HETATM   20  C3  UNL     1      27.520  -2.377  52.699  1.00  0.00     0.304 C 
BRANCH  20  21
HETATM   21  N1  UNL     1      28.494  -3.401  53.077  1.00  0.00     0.082 N 
HETATM   22  H5  UNL     1      29.421  -2.986  53.259  1.00  0.00     0.313 HD
HETATM   23  H6  UNL     1      28.144  -4.076  53.766  1.00  0.00     0.313 HD
ENDBRANCH  20  21
ENDBRANCH  18  20
ENDBRANCH   1  18
TORSDOF 7
ENDMDL
MODEL 4
REMARK VINA RESULT:      -6.9      3.169      4.840
REMARK  7 active torsions:
REMARK  status: ('A' for Active; 'I' for Inactive)
REMARK    1  A    between atoms: C2_2  and  C3_3 
REMARK    2  A    between atoms: C2_2  and  C4_5 
REMARK    3  A    between atoms: C3_3  and  N1_4 
REMARK    4  A    between atoms: C6_7  and  C7_8 
REMARK    5  A    between atoms: C7_8  and  C8_9 
REMARK    6  A    between atoms: C11_12  and  O1_13 
REMARK    7  A    between atoms: C15_17  and  O2_18 
ROOT
HETATM    1  C4  UNL     1      25.429   4.362  49.428  1.00  0.00    -0.036 C 
HETATM    2  C5  UNL     1      25.640   3.307  50.199  1.00  0.00    -0.008 C 
HETATM    3  C6  UNL     1      24.640   2.991  51.010  1.00  0.00    -0.009 C 
HETATM    4  C15 UNL     1      23.313   2.943  50.420  1.00  0.00     0.072 C 
HETATM    5  C17 UNL     1      23.056   3.726  49.382  1.00  0.00     0.015 C 
HETATM    6  C18 UNL     1      24.096   4.631  48.833  1.00  0.00     0.070 C 
ENDROOT
BRANCH   3   7
HETATM    7  C7  UNL     1      24.899   2.713  52.421  1.00  0.00     0.080 C 
BRANCH   7   8
HETATM    8  C8  UNL     1      25.893   1.662  52.698  1.00  0.00    -0.054 A 
HETATM    9  C9  UNL     1      25.539   0.340  52.431  1.00  0.00     0.010 A 
HETATM   10  C10 UNL     1      26.396  -0.720  52.651  1.00  0.00     0.037 A 
HETATM   11  C11 UNL     1      27.664  -0.511  53.152  1.00  0.00     0.068 A 
HETATM   12  C13 UNL     1      28.034   0.787  53.422  1.00  0.00     0.037 A 
HETATM   13  C14 UNL     1      27.169   1.828  53.198  1.00  0.00     0.010 A 
BRANCH  11  14
HETATM   14  O1  UNL     1      28.630  -1.461  53.424  1.00  0.00    -0.356 OA
HETATM   15  C12 UNL     1      29.942  -1.115  53.753  1.00  0.00     0.210 C 
ENDBRANCH  11  14
ENDBRANCH   7   8
ENDBRANCH   3   7
BRANCH   4  16
HETATM   16  O2  UNL     1      22.376   2.097  50.948  1.00  0.00    -0.356 OA
HETATM   17  C16 UNL     1      21.818   1.085  50.130  1.00  0.00     0.210 C 
ENDBRANCH   4  16
BRANCH   1  18
HETATM   18  C2  UNL     1      26.427   5.386  49.051  1.00  0.00    -0.033 C 
HETATM   19  C1  UNL     1      27.658   5.176  48.574  1.00  0.00     0.021 C 
BRANCH  18  20
HETATM   20  C3  UNL     1      25.948   6.761  49.246  1.00  0.00     0.304 C 
BRANCH  20  21
HETATM   21  N1  UNL     1      26.149   7.251  50.610  1.00  0.00     0.082 N 
HETATM   22  H5  UNL     1      27.099   7.033  50.949  1.00  0.00     0.313 HD
HETATM   23  H6  UNL     1      25.808   8.206  50.765  1.00  0.00     0.313 HD
ENDBRANCH  20  21
ENDBRANCH  18  20
ENDBRANCH   1  18
TORSDOF 7
ENDMDL
MODEL 5
REMARK VINA RESULT:      -6.8      3.267      5.600
REMARK  7 active torsions:
REMARK  status: ('A' for Active; 'I' for Inactive)
REMARK    1  A    between atoms: C2_2  and  C3_3 
REMARK    2  A    between atoms: C2_2  and  C4_5 
REMARK    3  A    between atoms: C3_3  and  N1_4 
REMARK    4  A    between atoms: C6_7  and  C7_8 
REMARK    5  A    between atoms: C7_8  and  C8_9 
REMARK    6  A    between atoms: C11_12  and  O1_13 
REMARK    7  A    between atoms: C15_17  and  O2_18 
ROOT
HETATM    1  C4  UNL     1      26.566   1.186  53.769  1.00  0.00    -0.036 C 
HETATM    2  C5  UNL     1      25.599   2.083  53.876  1.00  0.00    -0.008 C 
HETATM    3  C6  UNL     1      24.563   1.897  53.069  1.00  0.00    -0.009 C 
HETATM    4  C15 UNL     1      24.017   0.551  53.012  1.00  0.00     0.072 C 
HETATM    5  C17 UNL     1      24.831  -0.470  53.234  1.00  0.00     0.015 C 
HETATM    6  C18 UNL     1      26.267  -0.249  53.535  1.00  0.00     0.070 C 
ENDROOT
BRANCH   3   7
HETATM    7  C7  UNL     1      24.027   3.012  52.293  1.00  0.00     0.080 C 
BRANCH   7   8
HETATM    8  C8  UNL     1      24.905   3.540  51.234  1.00  0.00    -0.054 A 
HETATM    9  C9  UNL     1      24.731   4.866  50.841  1.00  0.00     0.010 A 
HETATM   10  C10 UNL     1      25.502   5.460  49.862  1.00  0.00     0.037 A 
HETATM   11  C11 UNL     1      26.497   4.753  49.219  1.00  0.00     0.068 A 
HETATM   12  C13 UNL     1      26.686   3.441  49.593  1.00  0.00     0.037 A 
HETATM   13  C14 UNL     1      25.910   2.868  50.568  1.00  0.00     0.010 A 
BRANCH  11  14
HETATM   14  O1  UNL     1      27.346   5.205  48.227  1.00  0.00    -0.356 OA
HETATM   15  C12 UNL     1      28.700   5.451  48.462  1.00  0.00     0.210 C 
ENDBRANCH  11  14
ENDBRANCH   7   8
ENDBRANCH   3   7
BRANCH   4  16
HETATM   16  O2  UNL     1      22.688   0.381  52.733  1.00  0.00    -0.356 OA
HETATM   17  C16 UNL     1      22.070  -0.855  53.043  1.00  0.00     0.210 C 
ENDBRANCH   4  16
BRANCH   1  18
HETATM   18  C2  UNL     1      28.018   1.448  53.861  1.00  0.00    -0.033 C 
HETATM   19  C1  UNL     1      28.661   2.567  53.508  1.00  0.00     0.021 C 
BRANCH  18  20
HETATM   20  C3  UNL     1      28.778   0.316  54.408  1.00  0.00     0.304 C 
BRANCH  20  21
HETATM   21  N1  UNL     1      29.927  -0.058  53.583  1.00  0.00     0.082 N 
HETATM   22  H5  UNL     1      30.272   0.747  53.037  1.00  0.00     0.313 HD
HETATM   23  H6  UNL     1      30.628  -0.622  54.075  1.00  0.00     0.313 HD
ENDBRANCH  20  21
ENDBRANCH  18  20
ENDBRANCH   1  18
TORSDOF 7
ENDMDL
MODEL 6
REMARK VINA RESULT:      -6.7      1.701      5.582
REMARK  7 active torsions:
REMARK  status: ('A' for Active; 'I' for Inactive)
REMARK    1  A    between atoms: C2_2  and  C3_3 
REMARK    2  A    between atoms: C2_2  and  C4_5 
REMARK    3  A    between atoms: C3_3  and  N1_4 
REMARK    4  A    between atoms: C6_7  and  C7_8 
REMARK    5  A    between atoms: C7_8  and  C8_9 
REMARK    6  A    between atoms: C11_12  and  O1_13 
REMARK    7  A    between atoms: C15_17  and  O2_18 
ROOT
HETATM    1  C4  UNL     1      24.030  -0.530  53.777  1.00  0.00    -0.036 C 
HETATM    2  C5  UNL     1      24.945  -0.068  52.940  1.00  0.00    -0.008 C 
HETATM    3  C6  UNL     1      25.856   0.729  53.481  1.00  0.00    -0.009 C 
HETATM    4  C15 UNL     1      26.469   0.271  54.717  1.00  0.00     0.072 C 
HETATM    5  C17 UNL     1      25.761  -0.510  55.520  1.00  0.00     0.015 C 
HETATM    6  C18 UNL     1      24.377  -0.912  55.169  1.00  0.00     0.070 C 
ENDROOT
BRANCH   3   7
HETATM    7  C7  UNL     1      26.199   1.995  52.839  1.00  0.00     0.080 C 
BRANCH   7   8
HETATM    8  C8  UNL     1      25.102   2.673  52.126  1.00  0.00    -0.054 A 
HETATM    9  C9  UNL     1      24.099   3.272  52.886  1.00  0.00     0.010 A 
HETATM   10  C10 UNL     1      23.030   3.937  52.318  1.00  0.00     0.037 A 
HETATM   11  C11 UNL     1      22.908   4.037  50.948  1.00  0.00     0.068 A 
HETATM   12  C13 UNL     1      23.888   3.452  50.179  1.00  0.00     0.037 A 
HETATM   13  C14 UNL     1      24.943   2.797  50.760  1.00  0.00     0.010 A 
BRANCH  11  14
HETATM   14  O1  UNL     1      21.903   4.665  50.236  1.00  0.00    -0.356 OA
HETATM   15  C12 UNL     1      22.045   4.997  48.887  1.00  0.00     0.210 C 
ENDBRANCH  11  14
ENDBRANCH   7   8
ENDBRANCH   3   7
BRANCH   4  16
HETATM   16  O2  UNL     1      27.748   0.658  55.013  1.00  0.00    -0.356 OA
HETATM   17  C16 UNL     1      28.833  -0.101  54.512  1.00  0.00     0.210 C 
ENDBRANCH   4  16
BRANCH   1  18
HETATM   18  C2  UNL     1      22.595  -0.731  53.482  1.00  0.00    -0.033 C 
HETATM   19  C1  UNL     1      21.900  -0.216  52.462  1.00  0.00     0.021 C 
BRANCH  18  20
HETATM   20  C3  UNL     1      21.921  -1.604  54.453  1.00  0.00     0.304 C 
BRANCH  20  21
HETATM   21  N1  UNL     1      20.463  -1.494  54.409  1.00  0.00     0.082 N 
HETATM   22  H5  UNL     1      20.028  -1.979  55.209  1.00  0.00     0.313 HD
HETATM   23  H6  UNL     1      20.122  -0.551  54.196  1.00  0.00     0.313 HD
ENDBRANCH  20  21
ENDBRANCH  18  20
ENDBRANCH   1  18
TORSDOF 7
ENDMDL
MODEL 7
REMARK VINA RESULT:      -6.7      4.026      6.025
REMARK  7 active torsions:
REMARK  status: ('A' for Active; 'I' for Inactive)
REMARK    1  A    between atoms: C2_2  and  C3_3 
REMARK    2  A    between atoms: C2_2  and  C4_5 
REMARK    3  A    between atoms: C3_3  and  N1_4 
REMARK    4  A    between atoms: C6_7  and  C7_8 
REMARK    5  A    between atoms: C7_8  and  C8_9 
REMARK    6  A    between atoms: C11_12  and  O1_13 
REMARK    7  A    between atoms: C15_17  and  O2_18 
ROOT
HETATM    1  C4  UNL     1      26.274   1.482  52.421  1.00  0.00    -0.036 C 
HETATM    2  C5  UNL     1      26.628   2.499  51.651  1.00  0.00    -0.008 C 
HETATM    3  C6  UNL     1      25.639   3.067  50.974  1.00  0.00    -0.009 C 
HETATM    4  C15 UNL     1      24.434   3.381  51.724  1.00  0.00     0.072 C 
HETATM    5  C17 UNL     1      24.128   2.627  52.770  1.00  0.00     0.015 C 
HETATM    6  C18 UNL     1      24.991   1.489  53.170  1.00  0.00     0.070 C 
ENDROOT
BRANCH   3   7
HETATM    7  C7  UNL     1      25.790   3.346  49.549  1.00  0.00     0.080 C 
BRANCH   7   8
HETATM    8  C8  UNL     1      26.436   4.625  49.207  1.00  0.00    -0.054 A 
HETATM    9  C9  UNL     1      27.729   4.587  48.686  1.00  0.00     0.010 A 
HETATM   10  C10 UNL     1      28.422   5.726  48.329  1.00  0.00     0.037 A 
HETATM   11  C11 UNL     1      27.854   6.974  48.476  1.00  0.00     0.068 A 
HETATM   12  C13 UNL     1      26.578   7.035  48.989  1.00  0.00     0.037 A 
HETATM   13  C14 UNL     1      25.904   5.892  49.337  1.00  0.00     0.010 A 
BRANCH  11  14
HETATM   14  O1  UNL     1      28.418   8.198  48.166  1.00  0.00    -0.356 OA
HETATM   15  C12 UNL     1      28.768   9.125  49.150  1.00  0.00     0.210 C 
ENDBRANCH  11  14
ENDBRANCH   7   8
ENDBRANCH   3   7
BRANCH   4  16
HETATM   16  O2  UNL     1      23.658   4.438  51.331  1.00  0.00    -0.356 OA
HETATM   17  C16 UNL     1      22.277   4.233  51.099  1.00  0.00     0.210 C 
ENDBRANCH   4  16
BRANCH   1  18
HETATM   18  C2  UNL     1      27.051   0.246  52.652  1.00  0.00    -0.033 C 
HETATM   19  C1  UNL     1      26.723  -0.995  52.279  1.00  0.00     0.021 C 
BRANCH  18  20
HETATM   20  C3  UNL     1      28.309   0.479  53.374  1.00  0.00     0.304 C 
BRANCH  20  21
HETATM   21  N1  UNL     1      28.109   0.803  54.787  1.00  0.00     0.082 N 
HETATM   22  H5  UNL     1      27.396   1.540  54.904  1.00  0.00     0.313 HD
HETATM   23  H6  UNL     1      28.032  -0.019  55.397  1.00  0.00     0.313 HD
ENDBRANCH  20  21
ENDBRANCH  18  20
ENDBRANCH   1  18
TORSDOF 7
ENDMDL
MODEL 8
REMARK VINA RESULT:      -6.6      2.738      6.431
REMARK  7 active torsions:
REMARK  status: ('A' for Active; 'I' for Inactive)
REMARK    1  A    between atoms: C2_2  and  C3_3 
REMARK    2  A    between atoms: C2_2  and  C4_5 
REMARK    3  A    between atoms: C3_3  and  N1_4 
REMARK    4  A    between atoms: C6_7  and  C7_8 
REMARK    5  A    between atoms: C7_8  and  C8_9 
REMARK    6  A    between atoms: C11_12  and  O1_13 
REMARK    7  A    between atoms: C15_17  and  O2_18 
ROOT
HETATM    1  C4  UNL     1      25.547   1.377  52.595  1.00  0.00    -0.036 C 
HETATM    2  C5  UNL     1      24.375   1.847  52.989  1.00  0.00    -0.008 C 
HETATM    3  C6  UNL     1      23.346   1.031  52.803  1.00  0.00    -0.009 C 
HETATM    4  C15 UNL     1      23.522  -0.346  53.233  1.00  0.00     0.072 C 
HETATM    5  C17 UNL     1      24.743  -0.860  53.216  1.00  0.00     0.015 C 
HETATM    6  C18 UNL     1      25.906  -0.053  52.770  1.00  0.00     0.070 C 
ENDROOT
BRANCH   3   7
HETATM    7  C7  UNL     1      22.116   1.528  52.193  1.00  0.00     0.080 C 
BRANCH   7   8
HETATM    8  C8  UNL     1      22.171   1.777  50.742  1.00  0.00    -0.054 A 
HETATM    9  C9  UNL     1      22.921   2.862  50.292  1.00  0.00     0.010 A 
HETATM   10  C10 UNL     1      23.043   3.181  48.954  1.00  0.00     0.037 A 
HETATM   11  C11 UNL     1      22.416   2.423  47.987  1.00  0.00     0.068 A 
HETATM   12  C13 UNL     1      21.670   1.345  48.410  1.00  0.00     0.037 A 
HETATM   13  C14 UNL     1      21.560   1.044  49.744  1.00  0.00     0.010 A 
BRANCH  11  14
HETATM   14  O1  UNL     1      22.442   2.613  46.619  1.00  0.00    -0.356 OA
HETATM   15  C12 UNL     1      21.767   3.669  46.002  1.00  0.00     0.210 C 
ENDBRANCH  11  14
ENDBRANCH   7   8
ENDBRANCH   3   7
BRANCH   4  16
HETATM   16  O2  UNL     1      22.431  -1.064  53.639  1.00  0.00    -0.356 OA
HETATM   17  C16 UNL     1      21.995  -0.959  54.982  1.00  0.00     0.210 C 
ENDBRANCH   4  16
BRANCH   1  18
HETATM   18  C2  UNL     1      26.631   2.151  51.953  1.00  0.00    -0.033 C 
HETATM   19  C1  UNL     1      26.564   2.837  50.807  1.00  0.00     0.021 C 
BRANCH  18  20
HETATM   20  C3  UNL     1      27.890   2.123  52.711  1.00  0.00     0.304 C 
BRANCH  20  21
HETATM   21  N1  UNL     1      27.769   2.706  54.047  1.00  0.00     0.082 N 
HETATM   22  H5  UNL     1      27.857   1.983  54.779  1.00  0.00     0.313 HD
HETATM   23  H6  UNL     1      28.309   3.568  54.178  1.00  0.00     0.313 HD
ENDBRANCH  20  21
ENDBRANCH  18  20
ENDBRANCH   1  18
TORSDOF 7
ENDMDL
MODEL 9
REMARK VINA RESULT:      -6.5      3.080      5.187
REMARK  7 active torsions:
REMARK  status: ('A' for Active; 'I' for Inactive)
REMARK    1  A    between atoms: C2_2  and  C3_3 
REMARK    2  A    between atoms: C2_2  and  C4_5 
REMARK    3  A    between atoms: C3_3  and  N1_4 
REMARK    4  A    between atoms: C6_7  and  C7_8 
REMARK    5  A    between atoms: C7_8  and  C8_9 
REMARK    6  A    between atoms: C11_12  and  O1_13 
REMARK    7  A    between atoms: C15_17  and  O2_18 
ROOT
HETATM    1  C4  UNL     1      24.671   0.415  53.140  1.00  0.00    -0.036 C 
HETATM    2  C5  UNL     1      24.429   1.550  52.504  1.00  0.00    -0.008 C 
HETATM    3  C6  UNL     1      23.341   1.552  51.744  1.00  0.00    -0.009 C 
HETATM    4  C15 UNL     1      22.127   1.026  52.345  1.00  0.00     0.072 C 
HETATM    5  C17 UNL     1      22.239   0.094  53.280  1.00  0.00     0.015 C 
HETATM    6  C18 UNL     1      23.570  -0.405  53.705  1.00  0.00     0.070 C 
ENDROOT
BRANCH   3   7
HETATM    7  C7  UNL     1      23.402   2.064  50.378  1.00  0.00     0.080 C 
BRANCH   7   8
HETATM    8  C8  UNL     1      24.179   3.301  50.186  1.00  0.00    -0.054 A 
HETATM    9  C9  UNL     1      23.631   4.496  50.648  1.00  0.00     0.010 A 
HETATM   10  C10 UNL     1      24.277   5.710  50.524  1.00  0.00     0.037 A 
HETATM   11  C11 UNL     1      25.517   5.792  49.926  1.00  0.00     0.068 A 
HETATM   12  C13 UNL     1      26.077   4.622  49.463  1.00  0.00     0.037 A 
HETATM   13  C14 UNL     1      25.421   3.425  49.595  1.00  0.00     0.010 A 
BRANCH  11  14
HETATM   14  O1  UNL     1      26.284   6.924  49.729  1.00  0.00    -0.356 OA
HETATM   15  C12 UNL     1      27.168   7.046  48.654  1.00  0.00     0.210 C 
ENDBRANCH  11  14
ENDBRANCH   7   8
ENDBRANCH   3   7
BRANCH   4  16
HETATM   16  O2  UNL     1      20.914   1.507  51.932  1.00  0.00    -0.356 OA
HETATM   17  C16 UNL     1      20.418   2.707  52.495  1.00  0.00     0.210 C 
ENDBRANCH   4  16
BRANCH   1  18
HETATM   18  C2  UNL     1      25.999  -0.188  53.380  1.00  0.00    -0.033 C 
HETATM   19  C1  UNL     1      26.640  -1.067  52.601  1.00  0.00     0.021 C 
BRANCH  18  20
HETATM   20  C3  UNL     1      26.627   0.271  54.626  1.00  0.00     0.304 C 
BRANCH  20  21
HETATM   21  N1  UNL     1      27.951  -0.311  54.851  1.00  0.00     0.082 N 
HETATM   22  H5  UNL     1      28.013  -0.746  55.785  1.00  0.00     0.313 HD
HETATM   23  H6  UNL     1      28.307  -0.857  54.059  1.00  0.00     0.313 HD
ENDBRANCH  20  21
ENDBRANCH  18  20
ENDBRANCH   1  18
TORSDOF 7
ENDMDL
