MODEL 1
REMARK VINA RESULT:      -7.7      0.000      0.000
REMARK  5 active torsions:
REMARK  status: ('A' for Active; 'I' for Inactive)
REMARK    1  A    between atoms: C9_12  and  N3_13 
REMARK    2  A    between atoms: N3_13  and  S1_14 
REMARK    3  A    between atoms: S1_14  and  C10_15 
REMARK    4  A    between atoms: C17_22  and  N4_23 
REMARK       I    between atoms: N4_23  and  C18_24 
REMARK    5  A    between atoms: C18_24  and  C19_26 
ROOT
HETATM    1  N1  UNL     1      22.345   2.850  46.900  1.00  0.00    -0.096 N 
HETATM    2  C1  UNL     1      22.226   2.464  48.030  1.00  0.00     0.023 C 
HETATM    3  C2  UNL     1      22.063   1.963  49.433  1.00  0.00     0.076 C 
HETATM    4  C3  UNL     1      21.012   1.158  49.386  1.00  0.00     0.142 C 
HETATM    5  N2  UNL     1      21.369   1.013  50.730  1.00  0.00    -0.247 NA
HETATM    6  C4  UNL     1      21.427  -0.056  51.493  1.00  0.00     0.258 C 
HETATM    7  O1  UNL     1      21.893   0.344  52.867  1.00  0.00    -0.302 OA
HETATM    8  C5  UNL     1      22.682   1.511  52.644  1.00  0.00     0.100 C 
HETATM    9  C6  UNL     1      21.458   1.961  53.022  1.00  0.00     0.017 C 
HETATM   10  C7  UNL     1      21.335   3.189  52.299  1.00  0.00     0.071 C 
HETATM   11  C8  UNL     1      22.457   3.314  51.316  1.00  0.00    -0.024 C 
HETATM   12  C9  UNL     1      22.946   2.941  50.113  1.00  0.00     0.066 C 
HETATM   13  C16 UNL     1      23.432   3.797  52.398  1.00  0.00     0.042 C 
HETATM   14  C17 UNL     1      23.770   2.477  52.319  1.00  0.00     0.069 C 
ENDROOT
BRANCH  12  15
HETATM   15  N3  UNL     1      24.149   3.490  49.690  1.00  0.00    -0.324 N 
HETATM   16  H6  UNL     1      24.960   2.847  49.647  1.00  0.00     0.174 HD
BRANCH  15  17
HETATM   17  S1  UNL     1      24.124   5.183  49.295  1.00  0.00    -0.015 SA
BRANCH  17  18
HETATM   18  C10 UNL     1      25.815   5.618  48.813  1.00  0.00     0.021 A 
HETATM   19  C11 UNL     1      26.821   4.675  48.969  1.00  0.00     0.020 A 
HETATM   20  C12 UNL     1      28.112   5.042  48.580  1.00  0.00     0.001 A 
HETATM   21  C13 UNL     1      28.324   6.284  48.074  1.00  0.00     0.000 A 
HETATM   22  C14 UNL     1      27.351   7.255  47.900  1.00  0.00     0.001 A 
HETATM   23  C15 UNL     1      26.052   6.894  48.289  1.00  0.00     0.020 A 
ENDBRANCH  17  18
ENDBRANCH  15  17
ENDBRANCH  12  15
BRANCH  14  24
HETATM   24  N4  UNL     1      24.915   1.708  52.004  1.00  0.00    -0.324 N 
HETATM   25  C18 UNL     1      25.968   1.658  52.950  1.00  0.00     0.232 C 
HETATM   26  O2  UNL     1      26.151   2.174  54.108  1.00  0.00    -0.272 OA
HETATM   27  H13 UNL     1      25.218   1.123  51.203  1.00  0.00     0.169 HD
BRANCH  25  28
HETATM   28  C19 UNL     1      27.264   0.936  52.867  1.00  0.00     0.188 C 
HETATM   29 BR1  UNL     1      26.897  -0.961  52.757  1.00  0.00    -0.087 Br
ENDBRANCH  25  28
ENDBRANCH  14  24
TORSDOF 5
ENDMDL
MODEL 2
REMARK VINA RESULT:      -7.6      3.009      4.530
REMARK  5 active torsions:
REMARK  status: ('A' for Active; 'I' for Inactive)
REMARK    1  A    between atoms: C9_12  and  N3_13 
REMARK    2  A    between atoms: N3_13  and  S1_14 
REMARK    3  A    between atoms: S1_14  and  C10_15 
REMARK    4  A    between atoms: C17_22  and  N4_23 
REMARK       I    between atoms: N4_23  and  C18_24 
REMARK    5  A    between atoms: C18_24  and  C19_26 
ROOT
HETATM    1  N1  UNL     1      25.860   1.401  53.715  1.00  0.00    -0.096 N 
HETATM    2  C1  UNL     1      24.754   1.480  53.255  1.00  0.00     0.023 C 
HETATM    3  C2  UNL     1      23.364   1.567  52.701  1.00  0.00     0.076 C 
HETATM    4  C3  UNL     1      22.670   0.668  53.383  1.00  0.00     0.142 C 
HETATM    5  N2  UNL     1      21.657   1.198  52.578  1.00  0.00    -0.247 NA
HETATM    6  C4  UNL     1      20.416   1.523  52.863  1.00  0.00     0.258 C 
HETATM    7  O1  UNL     1      19.754   2.071  51.627  1.00  0.00    -0.302 OA
HETATM    8  C5  UNL     1      20.829   2.622  50.869  1.00  0.00     0.100 C 
HETATM    9  C6  UNL     1      20.599   1.391  50.342  1.00  0.00     0.017 C 
HETATM   10  C7  UNL     1      21.901   0.980  49.915  1.00  0.00     0.071 C 
HETATM   11  C8  UNL     1      22.929   1.944  50.422  1.00  0.00    -0.024 C 
HETATM   12  C9  UNL     1      23.671   2.346  51.477  1.00  0.00     0.066 C 
HETATM   13  C16 UNL     1      22.637   2.942  49.294  1.00  0.00     0.042 C 
HETATM   14  C17 UNL     1      21.909   3.486  50.312  1.00  0.00     0.069 C 
ENDROOT
BRANCH  12  15
HETATM   15  N3  UNL     1      24.576   3.382  51.292  1.00  0.00    -0.324 N 
HETATM   16  H6  UNL     1      24.358   4.276  51.769  1.00  0.00     0.174 HD
BRANCH  15  17
HETATM   17  S1  UNL     1      25.946   3.033  50.280  1.00  0.00    -0.015 SA
BRANCH  17  18
HETATM   18  C10 UNL     1      26.332   4.568  49.400  1.00  0.00     0.021 A 
HETATM   19  C11 UNL     1      25.343   5.532  49.265  1.00  0.00     0.020 A 
HETATM   20  C12 UNL     1      25.678   6.707  48.587  1.00  0.00     0.001 A 
HETATM   21  C13 UNL     1      26.936   6.854  48.096  1.00  0.00     0.000 A 
HETATM   22  C14 UNL     1      27.953   5.920  48.208  1.00  0.00     0.001 A 
HETATM   23  C15 UNL     1      27.624   4.737  48.887  1.00  0.00     0.020 A 
ENDBRANCH  17  18
ENDBRANCH  15  17
ENDBRANCH  12  15
BRANCH  14  24
HETATM   24  N4  UNL     1      21.870   4.700  51.039  1.00  0.00    -0.324 N 
HETATM   25  C18 UNL     1      21.695   5.905  50.318  1.00  0.00     0.232 C 
HETATM   26  O2  UNL     1      21.547   6.188  49.077  1.00  0.00    -0.272 OA
HETATM   27  H13 UNL     1      21.943   4.968  52.037  1.00  0.00     0.169 HD
BRANCH  25  28
HETATM   28  C19 UNL     1      21.622   7.298  50.831  1.00  0.00     0.188 C 
HETATM   29 BR1  UNL     1      22.499   8.462  49.556  1.00  0.00    -0.087 Br
ENDBRANCH  25  28
ENDBRANCH  14  24
TORSDOF 5
ENDMDL
MODEL 3
REMARK VINA RESULT:      -7.5      2.594      6.222
REMARK  5 active torsions:
REMARK  status: ('A' for Active; 'I' for Inactive)
REMARK    1  A    between atoms: C9_12  and  N3_13 
REMARK    2  A    between atoms: N3_13  and  S1_14 
REMARK    3  A    between atoms: S1_14  and  C10_15 
REMARK    4  A    between atoms: C17_22  and  N4_23 
REMARK       I    between atoms: N4_23  and  C18_24 
REMARK    5  A    between atoms: C18_24  and  C19_26 
ROOT
HETATM    1  N1  UNL     1      19.964   3.595  52.310  1.00  0.00    -0.096 N 
HETATM    2  C1  UNL     1      20.937   4.134  51.859  1.00  0.00     0.023 C 
HETATM    3  C2  UNL     1      22.143   4.828  51.304  1.00  0.00     0.076 C 
HETATM    4  C3  UNL     1      21.806   6.107  51.253  1.00  0.00     0.142 C 
HETATM    5  N2  UNL     1      23.124   6.186  50.795  1.00  0.00    -0.247 NA
HETATM    6  C4  UNL     1      24.080   7.046  51.072  1.00  0.00     0.258 C 
HETATM    7  O1  UNL     1      25.323   6.659  50.318  1.00  0.00    -0.302 OA
HETATM    8  C5  UNL     1      25.207   5.248  50.148  1.00  0.00     0.100 C 
HETATM    9  C6  UNL     1      24.774   5.797  48.983  1.00  0.00     0.017 C 
HETATM   10  C7  UNL     1      23.774   4.870  48.549  1.00  0.00     0.071 C 
HETATM   11  C8  UNL     1      23.498   3.876  49.635  1.00  0.00    -0.024 C 
HETATM   12  C9  UNL     1      22.865   3.633  50.804  1.00  0.00     0.066 C 
HETATM   13  C16 UNL     1      24.735   3.044  49.270  1.00  0.00     0.042 C 
HETATM   14  C17 UNL     1      25.214   3.768  50.324  1.00  0.00     0.069 C 
ENDROOT
BRANCH  12  15
HETATM   15  N3  UNL     1      22.968   2.364  51.358  1.00  0.00    -0.324 N 
HETATM   16  H6  UNL     1      23.662   2.248  52.119  1.00  0.00     0.174 HD
BRANCH  15  17
HETATM   17  S1  UNL     1      21.917   1.148  50.694  1.00  0.00    -0.015 SA
BRANCH  17  18
HETATM   18  C10 UNL     1      21.401   0.108  52.083  1.00  0.00     0.021 A 
HETATM   19  C11 UNL     1      22.371  -0.546  52.830  1.00  0.00     0.020 A 
HETATM   20  C12 UNL     1      21.938  -1.334  53.899  1.00  0.00     0.001 A 
HETATM   21  C13 UNL     1      20.609  -1.426  54.158  1.00  0.00     0.000 A 
HETATM   22  C14 UNL     1      19.607  -0.792  53.441  1.00  0.00     0.001 A 
HETATM   23  C15 UNL     1      20.034   0.001  52.365  1.00  0.00     0.020 A 
ENDBRANCH  17  18
ENDBRANCH  15  17
ENDBRANCH  12  15
BRANCH  14  24
HETATM   24  N4  UNL     1      25.748   3.516  51.609  1.00  0.00    -0.324 N 
HETATM   25  C18 UNL     1      26.470   2.314  51.809  1.00  0.00     0.232 C 
HETATM   26  O2  UNL     1      26.785   1.328  51.055  1.00  0.00    -0.272 OA
HETATM   27  H13 UNL     1      25.755   4.011  52.520  1.00  0.00     0.169 HD
BRANCH  25  28
HETATM   28  C19 UNL     1      27.124   1.812  53.046  1.00  0.00     0.188 C 
HETATM   29 BR1  UNL     1      27.283  -0.112  52.911  1.00  0.00    -0.087 Br
ENDBRANCH  25  28
ENDBRANCH  14  24
TORSDOF 5
ENDMDL
MODEL 4
REMARK VINA RESULT:      -7.2      3.095      5.324
REMARK  5 active torsions:
REMARK  status: ('A' for Active; 'I' for Inactive)
REMARK    1  A    between atoms: C9_12  and  N3_13 
REMARK    2  A    between atoms: N3_13  and  S1_14 
REMARK    3  A    between atoms: S1_14  and  C10_15 
REMARK    4  A    between atoms: C17_22  and  N4_23 
REMARK       I    between atoms: N4_23  and  C18_24 
REMARK    5  A    between atoms: C18_24  and  C19_26 
ROOT
HETATM    1  N1  UNL     1      23.357  -0.613  54.076  1.00  0.00    -0.096 N 
HETATM    2  C1  UNL     1      22.708   0.158  53.425  1.00  0.00     0.023 C 
HETATM    3  C2  UNL     1      21.881   1.123  52.631  1.00  0.00     0.076 C 
HETATM    4  C3  UNL     1      20.685   1.092  53.198  1.00  0.00     0.142 C 
HETATM    5  N2  UNL     1      20.462   2.059  52.213  1.00  0.00    -0.247 NA
HETATM    6  C4  UNL     1      19.818   3.204  52.265  1.00  0.00     0.258 C 
HETATM    7  O1  UNL     1      19.895   3.873  50.919  1.00  0.00    -0.302 OA
HETATM    8  C5  UNL     1      21.108   3.383  50.352  1.00  0.00     0.100 C 
HETATM    9  C6  UNL     1      20.118   2.620  49.820  1.00  0.00     0.017 C 
HETATM   10  C7  UNL     1      20.757   1.352  49.642  1.00  0.00     0.071 C 
HETATM   11  C8  UNL     1      22.101   1.363  50.303  1.00  0.00    -0.024 C 
HETATM   12  C9  UNL     1      22.785   1.267  51.464  1.00  0.00     0.066 C 
HETATM   13  C16 UNL     1      22.743   2.097  49.118  1.00  0.00     0.042 C 
HETATM   14  C17 UNL     1      22.529   3.135  49.977  1.00  0.00     0.069 C 
ENDROOT
BRANCH  12  15
HETATM   15  N3  UNL     1      24.171   1.316  51.419  1.00  0.00    -0.324 N 
HETATM   16  H6  UNL     1      24.626   0.802  50.644  1.00  0.00     0.174 HD
BRANCH  15  17
HETATM   17  S1  UNL     1      24.949   2.232  52.677  1.00  0.00    -0.015 SA
BRANCH  17  18
HETATM   18  C10 UNL     1      26.533   1.414  52.996  1.00  0.00     0.021 A 
HETATM   19  C11 UNL     1      27.600   2.173  53.456  1.00  0.00     0.020 A 
HETATM   20  C12 UNL     1      28.805   1.508  53.699  1.00  0.00     0.001 A 
HETATM   21  C13 UNL     1      28.879   0.170  53.479  1.00  0.00     0.000 A 
HETATM   22  C14 UNL     1      27.841  -0.625  53.022  1.00  0.00     0.001 A 
HETATM   23  C15 UNL     1      26.628   0.035  52.775  1.00  0.00     0.020 A 
ENDBRANCH  17  18
ENDBRANCH  15  17
ENDBRANCH  12  15
BRANCH  14  24
HETATM   24  N4  UNL     1      23.302   4.106  50.658  1.00  0.00    -0.324 N 
HETATM   25  C18 UNL     1      24.080   5.002  49.886  1.00  0.00     0.232 C 
HETATM   26  O2  UNL     1      24.266   5.166  48.629  1.00  0.00    -0.272 OA
HETATM   27  H13 UNL     1      23.469   4.359  51.649  1.00  0.00     0.169 HD
BRANCH  25  28
HETATM   28  C19 UNL     1      24.971   6.100  50.345  1.00  0.00     0.188 C 
HETATM   29 BR1  UNL     1      26.341   6.371  49.006  1.00  0.00    -0.087 Br
ENDBRANCH  25  28
ENDBRANCH  14  24
TORSDOF 5
ENDMDL
MODEL 5
REMARK VINA RESULT:      -7.2      3.959      6.294
REMARK  5 active torsions:
REMARK  status: ('A' for Active; 'I' for Inactive)
REMARK    1  A    between atoms: C9_12  and  N3_13 
REMARK    2  A    between atoms: N3_13  and  S1_14 
REMARK    3  A    between atoms: S1_14  and  C10_15 
REMARK    4  A    between atoms: C17_22  and  N4_23 
REMARK       I    between atoms: N4_23  and  C18_24 
REMARK    5  A    between atoms: C18_24  and  C19_26 
ROOT
HETATM    1  N1  UNL     1      24.003   2.427  53.352  1.00  0.00    -0.096 N 
HETATM    2  C1  UNL     1      23.706   3.335  52.625  1.00  0.00     0.023 C 
HETATM    3  C2  UNL     1      23.317   4.474  51.733  1.00  0.00     0.076 C 
HETATM    4  C3  UNL     1      22.051   4.722  52.032  1.00  0.00     0.142 C 
HETATM    5  N2  UNL     1      22.276   5.723  51.082  1.00  0.00    -0.247 NA
HETATM    6  C4  UNL     1      21.917   6.987  51.065  1.00  0.00     0.258 C 
HETATM    7  O1  UNL     1      22.438   7.630  49.808  1.00  0.00    -0.302 OA
HETATM    8  C5  UNL     1      23.600   6.871  49.481  1.00  0.00     0.100 C 
HETATM    9  C6  UNL     1      22.603   6.368  48.708  1.00  0.00     0.017 C 
HETATM   10  C7  UNL     1      22.957   4.987  48.594  1.00  0.00     0.071 C 
HETATM   11  C8  UNL     1      24.090   4.674  49.522  1.00  0.00    -0.024 C 
HETATM   12  C9  UNL     1      24.462   4.410  50.794  1.00  0.00     0.066 C 
HETATM   13  C16 UNL     1      25.127   5.245  48.546  1.00  0.00     0.042 C 
HETATM   14  C17 UNL     1      24.974   6.297  49.401  1.00  0.00     0.069 C 
ENDROOT
BRANCH  12  15
HETATM   15  N3  UNL     1      25.799   4.130  51.045  1.00  0.00    -0.324 N 
HETATM   16  H6  UNL     1      26.318   4.826  51.610  1.00  0.00     0.174 HD
BRANCH  15  17
HETATM   17  S1  UNL     1      26.413   2.648  50.372  1.00  0.00    -0.015 SA
BRANCH  17  18
HETATM   18  C10 UNL     1      26.939   1.632  51.775  1.00  0.00     0.021 A 
HETATM   19  C11 UNL     1      27.730   2.205  52.761  1.00  0.00     0.020 A 
HETATM   20  C12 UNL     1      28.112   1.394  53.832  1.00  0.00     0.001 A 
HETATM   21  C13 UNL     1      27.700   0.101  53.864  1.00  0.00     0.000 A 
HETATM   22  C14 UNL     1      26.911  -0.512  52.904  1.00  0.00     0.001 A 
HETATM   23  C15 UNL     1      26.524   0.296  51.824  1.00  0.00     0.020 A 
ENDBRANCH  17  18
ENDBRANCH  15  17
ENDBRANCH  12  15
BRANCH  14  24
HETATM   24  N4  UNL     1      25.780   7.052  50.285  1.00  0.00    -0.324 N 
HETATM   25  C18 UNL     1      26.415   8.214  49.784  1.00  0.00     0.232 C 
HETATM   26  O2  UNL     1      26.438   8.795  48.643  1.00  0.00    -0.272 OA
HETATM   27  H13 UNL     1      26.056   6.979  51.282  1.00  0.00     0.169 HD
BRANCH  25  28
HETATM   28  C19 UNL     1      27.306   9.171  50.492  1.00  0.00     0.188 C 
HETATM   29 BR1  UNL     1      28.897   9.427  49.420  1.00  0.00    -0.087 Br
ENDBRANCH  25  28
ENDBRANCH  14  24
TORSDOF 5
ENDMDL
MODEL 6
REMARK VINA RESULT:      -7.1      7.121     10.329
REMARK  5 active torsions:
REMARK  status: ('A' for Active; 'I' for Inactive)
REMARK    1  A    between atoms: C9_12  and  N3_13 
REMARK    2  A    between atoms: N3_13  and  S1_14 
REMARK    3  A    between atoms: S1_14  and  C10_15 
REMARK    4  A    between atoms: C17_22  and  N4_23 
REMARK       I    between atoms: N4_23  and  C18_24 
REMARK    5  A    between atoms: C18_24  and  C19_26 
ROOT
HETATM    1  N1  UNL     1      32.531   7.094  44.928  1.00  0.00    -0.096 N 
HETATM    2  C1  UNL     1      31.844   7.943  45.424  1.00  0.00     0.023 C 
HETATM    3  C2  UNL     1      30.979   9.012  46.020  1.00  0.00     0.076 C 
HETATM    4  C3  UNL     1      30.760   9.863  45.030  1.00  0.00     0.142 C 
HETATM    5  N2  UNL     1      29.998  10.462  46.038  1.00  0.00    -0.247 NA
HETATM    6  C4  UNL     1      28.803  11.009  46.001  1.00  0.00     0.258 C 
HETATM    7  O1  UNL     1      28.439  11.490  47.380  1.00  0.00    -0.302 OA
HETATM    8  C5  UNL     1      29.167  10.631  48.255  1.00  0.00     0.100 C 
HETATM    9  C6  UNL     1      29.909  11.764  48.149  1.00  0.00     0.017 C 
HETATM   10  C7  UNL     1      31.249  11.276  48.267  1.00  0.00     0.071 C 
HETATM   11  C8  UNL     1      31.250   9.779  48.225  1.00  0.00    -0.024 C 
HETATM   12  C9  UNL     1      31.179   8.675  47.450  1.00  0.00     0.066 C 
HETATM   13  C16 UNL     1      30.853   9.678  49.704  1.00  0.00     0.042 C 
HETATM   14  C17 UNL     1      29.642   9.499  49.100  1.00  0.00     0.069 C 
ENDROOT
BRANCH  12  15
HETATM   15  N3  UNL     1      31.295   7.433  48.059  1.00  0.00    -0.324 N 
HETATM   16  H6  UNL     1      30.434   6.858  48.102  1.00  0.00     0.174 HD
BRANCH  15  17
HETATM   17  S1  UNL     1      32.871   7.019  48.667  1.00  0.00    -0.015 SA
BRANCH  17  18
HETATM   18  C10 UNL     1      33.216   5.339  48.084  1.00  0.00     0.021 A 
HETATM   19  C11 UNL     1      34.504   4.838  48.202  1.00  0.00     0.020 A 
HETATM   20  C12 UNL     1      34.733   3.537  47.750  1.00  0.00     0.001 A 
HETATM   21  C13 UNL     1      33.702   2.828  47.222  1.00  0.00     0.000 A 
HETATM   22  C14 UNL     1      32.402   3.287  47.085  1.00  0.00     0.001 A 
HETATM   23  C15 UNL     1      32.164   4.594  47.537  1.00  0.00     0.020 A 
ENDBRANCH  17  18
ENDBRANCH  15  17
ENDBRANCH  12  15
BRANCH  14  24
HETATM   24  N4  UNL     1      28.644   8.499  49.036  1.00  0.00    -0.324 N 
HETATM   25  C18 UNL     1      27.463   8.683  49.795  1.00  0.00     0.232 C 
HETATM   26  O2  UNL     1      27.043   9.603  50.581  1.00  0.00    -0.272 OA
HETATM   27  H13 UNL     1      28.533   7.592  48.545  1.00  0.00     0.169 HD
BRANCH  25  28
HETATM   28  C19 UNL     1      26.276   7.795  49.906  1.00  0.00     0.188 C 
HETATM   29 BR1  UNL     1      26.559   6.256  48.768  1.00  0.00    -0.087 Br
ENDBRANCH  25  28
ENDBRANCH  14  24
TORSDOF 5
ENDMDL
MODEL 7
REMARK VINA RESULT:      -7.0      3.697      7.212
REMARK  5 active torsions:
REMARK  status: ('A' for Active; 'I' for Inactive)
REMARK    1  A    between atoms: C9_12  and  N3_13 
REMARK    2  A    between atoms: N3_13  and  S1_14 
REMARK    3  A    between atoms: S1_14  and  C10_15 
REMARK    4  A    between atoms: C17_22  and  N4_23 
REMARK       I    between atoms: N4_23  and  C18_24 
REMARK    5  A    between atoms: C18_24  and  C19_26 
ROOT
HETATM    1  N1  UNL     1      21.862  -1.414  54.710  1.00  0.00    -0.096 N 
HETATM    2  C1  UNL     1      22.733  -0.820  54.136  1.00  0.00     0.023 C 
HETATM    3  C2  UNL     1      23.835  -0.098  53.422  1.00  0.00     0.076 C 
HETATM    4  C3  UNL     1      24.938  -0.750  53.755  1.00  0.00     0.142 C 
HETATM    5  N2  UNL     1      25.474   0.205  52.885  1.00  0.00    -0.247 NA
HETATM    6  C4  UNL     1      26.384   0.095  51.943  1.00  0.00     0.258 C 
HETATM    7  O1  UNL     1      26.579   1.435  51.287  1.00  0.00    -0.302 OA
HETATM    8  C5  UNL     1      25.325   2.093  51.454  1.00  0.00     0.100 C 
HETATM    9  C6  UNL     1      26.122   2.561  52.450  1.00  0.00     0.017 C 
HETATM   10  C7  UNL     1      25.194   2.799  53.512  1.00  0.00     0.071 C 
HETATM   11  C8  UNL     1      23.854   2.237  53.151  1.00  0.00    -0.024 C 
HETATM   12  C9  UNL     1      23.086   1.129  53.059  1.00  0.00     0.066 C 
HETATM   13  C16 UNL     1      23.509   3.456  52.286  1.00  0.00     0.042 C 
HETATM   14  C17 UNL     1      23.919   2.572  51.331  1.00  0.00     0.069 C 
ENDROOT
BRANCH  12  15
HETATM   15  N3  UNL     1      21.765   1.273  52.657  1.00  0.00    -0.324 N 
HETATM   16  H6  UNL     1      21.216   2.011  53.132  1.00  0.00     0.174 HD
BRANCH  15  17
HETATM   17  S1  UNL     1      21.219   0.189  51.411  1.00  0.00    -0.015 SA
BRANCH  17  18
HETATM   18  C10 UNL     1      19.450  -0.069  51.702  1.00  0.00     0.021 A 
HETATM   19  C11 UNL     1      19.047  -0.725  52.856  1.00  0.00     0.020 A 
HETATM   20  C12 UNL     1      17.675  -0.900  53.051  1.00  0.00     0.001 A 
HETATM   21  C13 UNL     1      16.808  -0.429  52.119  1.00  0.00     0.000 A 
HETATM   22  C14 UNL     1      17.165   0.231  50.954  1.00  0.00     0.001 A 
HETATM   23  C15 UNL     1      18.541   0.410  50.750  1.00  0.00     0.020 A 
ENDBRANCH  17  18
ENDBRANCH  15  17
ENDBRANCH  12  15
BRANCH  14  24
HETATM   24  N4  UNL     1      23.374   1.938  50.189  1.00  0.00    -0.324 N 
HETATM   25  C18 UNL     1      23.015   2.746  49.084  1.00  0.00     0.232 C 
HETATM   26  O2  UNL     1      23.071   4.003  48.843  1.00  0.00    -0.272 OA
HETATM   27  H13 UNL     1      23.145   0.963  49.921  1.00  0.00     0.169 HD
BRANCH  25  28
HETATM   28  C19 UNL     1      22.428   2.339  47.780  1.00  0.00     0.188 C 
HETATM   29 BR1  UNL     1      21.845   3.933  46.850  1.00  0.00    -0.087 Br
ENDBRANCH  25  28
ENDBRANCH  14  24
TORSDOF 5
ENDMDL
MODEL 8
REMARK VINA RESULT:      -7.0      3.474      7.277
REMARK  5 active torsions:
REMARK  status: ('A' for Active; 'I' for Inactive)
REMARK    1  A    between atoms: C9_12  and  N3_13 
REMARK    2  A    between atoms: N3_13  and  S1_14 
REMARK    3  A    between atoms: S1_14  and  C10_15 
REMARK    4  A    between atoms: C17_22  and  N4_23 
REMARK       I    between atoms: N4_23  and  C18_24 
REMARK    5  A    between atoms: C18_24  and  C19_26 
ROOT
HETATM    1  N1  UNL     1      25.586  -0.855  52.976  1.00  0.00    -0.096 N 
HETATM    2  C1  UNL     1      25.382   0.238  52.525  1.00  0.00     0.023 C 
HETATM    3  C2  UNL     1      25.151   1.605  51.956  1.00  0.00     0.076 C 
HETATM    4  C3  UNL     1      26.354   2.156  51.897  1.00  0.00     0.142 C 
HETATM    5  N2  UNL     1      25.588   3.184  51.337  1.00  0.00    -0.247 NA
HETATM    6  C4  UNL     1      25.818   3.958  50.300  1.00  0.00     0.258 C 
HETATM    7  O1  UNL     1      24.652   4.892  50.116  1.00  0.00    -0.302 OA
HETATM    8  C5  UNL     1      23.543   4.182  50.663  1.00  0.00     0.100 C 
HETATM    9  C6  UNL     1      23.957   5.029  51.641  1.00  0.00     0.017 C 
HETATM   10  C7  UNL     1      23.663   4.299  52.836  1.00  0.00     0.071 C 
HETATM   11  C8  UNL     1      23.262   2.898  52.490  1.00  0.00    -0.024 C 
HETATM   12  C9  UNL     1      23.680   1.664  52.133  1.00  0.00     0.066 C 
HETATM   13  C16 UNL     1      21.831   3.329  52.143  1.00  0.00     0.042 C 
HETATM   14  C17 UNL     1      22.389   3.268  50.899  1.00  0.00     0.069 C 
ENDROOT
BRANCH  12  15
HETATM   15  N3  UNL     1      22.730   0.663  51.984  1.00  0.00    -0.324 N 
HETATM   16  H6  UNL     1      22.633   0.256  51.037  1.00  0.00     0.174 HD
BRANCH  15  17
HETATM   17  S1  UNL     1      21.834   0.236  53.413  1.00  0.00    -0.015 SA
BRANCH  17  18
HETATM   18  C10 UNL     1      20.151  -0.147  52.862  1.00  0.00     0.021 A 
HETATM   19  C11 UNL     1      19.360  -0.976  53.645  1.00  0.00     0.020 A 
HETATM   20  C12 UNL     1      18.066  -1.244  53.193  1.00  0.00     0.001 A 
HETATM   21  C13 UNL     1      17.643  -0.691  52.027  1.00  0.00     0.000 A 
HETATM   22  C14 UNL     1      18.397   0.141  51.216  1.00  0.00     0.001 A 
HETATM   23  C15 UNL     1      19.699   0.414  51.662  1.00  0.00     0.020 A 
ENDBRANCH  17  18
ENDBRANCH  15  17
ENDBRANCH  12  15
BRANCH  14  24
HETATM   24  N4  UNL     1      22.185   2.554  49.694  1.00  0.00    -0.324 N 
HETATM   25  C18 UNL     1      21.250   3.068  48.764  1.00  0.00     0.232 C 
HETATM   26  O2  UNL     1      20.490   4.099  48.739  1.00  0.00    -0.272 OA
HETATM   27  H13 UNL     1      22.563   1.685  49.274  1.00  0.00     0.169 HD
BRANCH  25  28
HETATM   28  C19 UNL     1      20.851   2.519  47.441  1.00  0.00     0.188 C 
HETATM   29 BR1  UNL     1      19.219   3.398  46.885  1.00  0.00    -0.087 Br
ENDBRANCH  25  28
ENDBRANCH  14  24
TORSDOF 5
ENDMDL
MODEL 9
REMARK VINA RESULT:      -6.9      3.771      5.325
REMARK  5 active torsions:
REMARK  status: ('A' for Active; 'I' for Inactive)
REMARK    1  A    between atoms: C9_12  and  N3_13 
REMARK    2  A    between atoms: N3_13  and  S1_14 
REMARK    3  A    between atoms: S1_14  and  C10_15 
REMARK    4  A    between atoms: C17_22  and  N4_23 
REMARK       I    between atoms: N4_23  and  C18_24 
REMARK    5  A    between atoms: C18_24  and  C19_26 
ROOT
HETATM    1  N1  UNL     1      23.537   5.304  52.633  1.00  0.00    -0.096 N 
HETATM    2  C1  UNL     1      22.748   4.715  51.947  1.00  0.00     0.023 C 
HETATM    3  C2  UNL     1      21.746   3.985  51.106  1.00  0.00     0.076 C 
HETATM    4  C3  UNL     1      20.722   3.760  51.916  1.00  0.00     0.142 C 
HETATM    5  N2  UNL     1      20.219   3.212  50.732  1.00  0.00    -0.247 NA
HETATM    6  C4  UNL     1      19.025   3.293  50.188  1.00  0.00     0.258 C 
HETATM    7  O1  UNL     1      19.023   2.529  48.891  1.00  0.00    -0.302 OA
HETATM    8  C5  UNL     1      20.377   2.585  48.448  1.00  0.00     0.100 C 
HETATM    9  C6  UNL     1      20.239   1.380  49.058  1.00  0.00     0.017 C 
HETATM   10  C7  UNL     1      21.537   1.158  49.618  1.00  0.00     0.071 C 
HETATM   11  C8  UNL     1      22.365   2.399  49.485  1.00  0.00    -0.024 C 
HETATM   12  C9  UNL     1      22.636   3.629  49.974  1.00  0.00     0.066 C 
HETATM   13  C16 UNL     1      22.705   2.088  48.022  1.00  0.00     0.042 C 
HETATM   14  C17 UNL     1      21.689   2.985  47.864  1.00  0.00     0.069 C 
ENDROOT
BRANCH  12  15
HETATM   15  N3  UNL     1      23.656   4.364  49.386  1.00  0.00    -0.324 N 
HETATM   16  H6  UNL     1      23.367   5.173  48.808  1.00  0.00     0.174 HD
BRANCH  15  17
HETATM   17  S1  UNL     1      25.276   3.817  49.700  1.00  0.00    -0.015 SA
BRANCH  17  18
HETATM   18  C10 UNL     1      26.381   5.058  48.979  1.00  0.00     0.021 A 
HETATM   19  C11 UNL     1      25.875   6.316  48.681  1.00  0.00     0.020 A 
HETATM   20  C12 UNL     1      26.756   7.251  48.133  1.00  0.00     0.001 A 
HETATM   21  C13 UNL     1      28.049   6.896  47.918  1.00  0.00     0.000 A 
HETATM   22  C14 UNL     1      28.596   5.655  48.200  1.00  0.00     0.001 A 
HETATM   23  C15 UNL     1      27.717   4.710  48.751  1.00  0.00     0.020 A 
ENDBRANCH  17  18
ENDBRANCH  15  17
ENDBRANCH  12  15
BRANCH  14  24
HETATM   24  N4  UNL     1      21.499   4.258  47.275  1.00  0.00    -0.324 N 
HETATM   25  C18 UNL     1      21.701   4.385  45.879  1.00  0.00     0.232 C 
HETATM   26  O2  UNL     1      22.034   3.570  44.949  1.00  0.00    -0.272 OA
HETATM   27  H13 UNL     1      21.231   5.200  47.615  1.00  0.00     0.169 HD
BRANCH  25  28
HETATM   28  C19 UNL     1      21.572   5.593  45.023  1.00  0.00     0.188 C 
HETATM   29 BR1  UNL     1      20.658   5.089  43.393  1.00  0.00    -0.087 Br
ENDBRANCH  25  28
ENDBRANCH  14  24
TORSDOF 5
ENDMDL
