MODEL 1
REMARK VINA RESULT:      -7.2      0.000      0.000
REMARK  7 active torsions:
REMARK  status: ('A' for Active; 'I' for Inactive)
REMARK    1  A    between atoms: C2_2  and  N1_3 
REMARK       I    between atoms: N1_3  and  C3_4 
REMARK    2  A    between atoms: C3_4  and  C4_6 
REMARK    3  A    between atoms: C7_9  and  O2_10 
REMARK    4  A    between atoms: C9_12  and  C10_13 
REMARK    5  A    between atoms: C11_14  and  C12_15 
REMARK    6  A    between atoms: C12_15  and  C13_16 
REMARK    7  A    between atoms: C14_17  and  C15_18 
ROOT
HETATM    1  C4  UNL     1      25.178   0.290  53.461  1.00  0.00     0.033 A 
HETATM    2  C5  UNL     1      23.980  -0.350  53.681  1.00  0.00     0.020 A 
HETATM    3  C6  UNL     1      22.838  -0.005  52.993  1.00  0.00     0.038 A 
HETATM    4  C7  UNL     1      22.968   1.009  52.080  1.00  0.00     0.078 A 
HETATM    5  C9  UNL     1      24.115   1.711  51.784  1.00  0.00    -0.002 A 
HETATM    6  C16 UNL     1      25.190   1.285  52.528  1.00  0.00     0.031 A 
ENDROOT
BRANCH   5   7
HETATM    7  C10 UNL     1      24.277   2.789  50.826  1.00  0.00     0.010 C 
HETATM    8  C11 UNL     1      25.231   3.246  50.078  1.00  0.00    -0.022 C 
BRANCH   8   9
HETATM    9  C12 UNL     1      26.571   3.324  49.496  1.00  0.00     0.054 C 
BRANCH   9  10
HETATM   10  C13 UNL     1      26.915   4.704  48.999  1.00  0.00    -0.026 C 
HETATM   11  C14 UNL     1      28.079   5.120  48.508  1.00  0.00    -0.016 C 
BRANCH  11  12
HETATM   12  C15 UNL     1      28.662   6.388  47.966  1.00  0.00     0.141 C 
HETATM   13 CL1  UNL     1      27.394   7.538  47.476  1.00  0.00    -0.126 Cl
ENDBRANCH  11  12
ENDBRANCH   9  10
ENDBRANCH   8   9
ENDBRANCH   5   7
BRANCH   4  14
HETATM   14  O2  UNL     1      21.822   1.346  51.397  1.00  0.00    -0.355 OA
HETATM   15  C8  UNL     1      21.214   0.547  50.409  1.00  0.00     0.210 C 
ENDBRANCH   4  14
BRANCH   1  16
HETATM   16  C3  UNL     1      26.414  -0.035  54.161  1.00  0.00     0.255 C 
HETATM   17  N1  UNL     1      27.690   0.164  53.574  1.00  0.00    -0.334 N 
HETATM   18  H4  UNL     1      27.753   0.555  52.612  1.00  0.00     0.168 HD
HETATM   19  O1  UNL     1      26.405  -0.511  55.328  1.00  0.00    -0.267 OA
BRANCH  17  20
HETATM   20  C2  UNL     1      28.877  -0.164  54.287  1.00  0.00     0.081 C 
HETATM   21  C1  UNL     1      29.788  -0.913  53.703  1.00  0.00     0.030 C 
ENDBRANCH  17  20
ENDBRANCH   1  16
TORSDOF 7
ENDMDL
MODEL 2
REMARK VINA RESULT:      -7.0      3.122      4.022
REMARK  7 active torsions:
REMARK  status: ('A' for Active; 'I' for Inactive)
REMARK    1  A    between atoms: C2_2  and  N1_3 
REMARK       I    between atoms: N1_3  and  C3_4 
REMARK    2  A    between atoms: C3_4  and  C4_6 
REMARK    3  A    between atoms: C7_9  and  O2_10 
REMARK    4  A    between atoms: C9_12  and  C10_13 
REMARK    5  A    between atoms: C11_14  and  C12_15 
REMARK    6  A    between atoms: C12_15  and  C13_16 
REMARK    7  A    between atoms: C14_17  and  C15_18 
ROOT
HETATM    1  C4  UNL     1      23.254  -0.556  53.658  1.00  0.00     0.033 A 
HETATM    2  C5  UNL     1      22.482  -0.955  54.724  1.00  0.00     0.020 A 
HETATM    3  C6  UNL     1      21.107  -0.950  54.665  1.00  0.00     0.038 A 
HETATM    4  C7  UNL     1      20.557  -0.526  53.482  1.00  0.00     0.078 A 
HETATM    5  C9  UNL     1      21.235  -0.109  52.359  1.00  0.00    -0.002 A 
HETATM    6  C16 UNL     1      22.600  -0.154  52.531  1.00  0.00     0.031 A 
ENDROOT
BRANCH   5   7
HETATM    7  C10 UNL     1      20.677   0.346  51.100  1.00  0.00     0.010 C 
HETATM    8  C11 UNL     1      21.117   0.951  50.041  1.00  0.00    -0.022 C 
BRANCH   8   9
HETATM    9  C12 UNL     1      22.091   1.599  49.163  1.00  0.00     0.054 C 
BRANCH   9  10
HETATM   10  C13 UNL     1      22.877   2.682  49.857  1.00  0.00    -0.026 C 
HETATM   11  C14 UNL     1      23.860   2.528  50.740  1.00  0.00    -0.016 C 
BRANCH  11  12
HETATM   12  C15 UNL     1      24.769   3.401  51.547  1.00  0.00     0.141 C 
HETATM   13 CL1  UNL     1      24.458   3.241  53.293  1.00  0.00    -0.126 Cl
ENDBRANCH  11  12
ENDBRANCH   9  10
ENDBRANCH   8   9
ENDBRANCH   5   7
BRANCH   4  14
HETATM   14  O2  UNL     1      19.183  -0.526  53.432  1.00  0.00    -0.355 OA
HETATM   15  C8  UNL     1      18.378  -1.682  53.477  1.00  0.00     0.210 C 
ENDBRANCH   4  14
BRANCH   1  16
HETATM   16  C3  UNL     1      24.711  -0.541  53.669  1.00  0.00     0.255 C 
HETATM   17  N1  UNL     1      25.471  -0.025  52.587  1.00  0.00    -0.334 N 
HETATM   18  H4  UNL     1      24.977   0.357  51.755  1.00  0.00     0.168 HD
HETATM   19  O1  UNL     1      25.368  -0.989  54.647  1.00  0.00    -0.267 OA
BRANCH  17  20
HETATM   20  C2  UNL     1      26.893  -0.026  52.632  1.00  0.00     0.081 C 
HETATM   21  C1  UNL     1      27.530   1.118  52.753  1.00  0.00     0.030 C 
ENDBRANCH  17  20
ENDBRANCH   1  16
TORSDOF 7
ENDMDL
MODEL 3
REMARK VINA RESULT:      -6.9      3.660      6.828
REMARK  7 active torsions:
REMARK  status: ('A' for Active; 'I' for Inactive)
REMARK    1  A    between atoms: C2_2  and  N1_3 
REMARK       I    between atoms: N1_3  and  C3_4 
REMARK    2  A    between atoms: C3_4  and  C4_6 
REMARK    3  A    between atoms: C7_9  and  O2_10 
REMARK    4  A    between atoms: C9_12  and  C10_13 
REMARK    5  A    between atoms: C11_14  and  C12_15 
REMARK    6  A    between atoms: C12_15  and  C13_16 
REMARK    7  A    between atoms: C14_17  and  C15_18 
ROOT
HETATM    1  C4  UNL     1      24.800   1.827  52.094  1.00  0.00     0.033 A 
HETATM    2  C5  UNL     1      26.008   1.405  51.587  1.00  0.00     0.020 A 
HETATM    3  C6  UNL     1      26.614   0.249  52.027  1.00  0.00     0.038 A 
HETATM    4  C7  UNL     1      25.942  -0.452  52.994  1.00  0.00     0.078 A 
HETATM    5  C9  UNL     1      24.734  -0.121  53.566  1.00  0.00    -0.002 A 
HETATM    6  C16 UNL     1      24.222   1.049  53.054  1.00  0.00     0.031 A 
ENDROOT
BRANCH   5   7
HETATM    7  C10 UNL     1      24.006  -0.843  54.592  1.00  0.00     0.010 C 
HETATM    8  C11 UNL     1      22.773  -1.178  54.810  1.00  0.00    -0.022 C 
BRANCH   8   9
HETATM    9  C12 UNL     1      21.335  -1.273  54.560  1.00  0.00     0.054 C 
BRANCH   9  10
HETATM   10  C13 UNL     1      20.812  -0.147  53.706  1.00  0.00    -0.026 C 
HETATM   11  C14 UNL     1      20.971   0.016  52.396  1.00  0.00    -0.016 C 
BRANCH  11  12
HETATM   12  C15 UNL     1      20.570   1.006  51.347  1.00  0.00     0.141 C 
HETATM   13 CL1  UNL     1      21.662   0.955  49.941  1.00  0.00    -0.126 Cl
ENDBRANCH  11  12
ENDBRANCH   9  10
ENDBRANCH   8   9
ENDBRANCH   5   7
BRANCH   4  14
HETATM   14  O2  UNL     1      26.554  -1.606  53.426  1.00  0.00    -0.355 OA
HETATM   15  C8  UNL     1      27.403  -2.406  52.638  1.00  0.00     0.210 C 
ENDBRANCH   4  14
BRANCH   1  16
HETATM   16  C3  UNL     1      24.117   3.040  51.665  1.00  0.00     0.255 C 
HETATM   17  N1  UNL     1      23.052   3.612  52.407  1.00  0.00    -0.334 N 
HETATM   18  H4  UNL     1      22.742   3.153  53.288  1.00  0.00     0.168 HD
HETATM   19  O1  UNL     1      24.445   3.642  50.607  1.00  0.00    -0.267 OA
BRANCH  17  20
HETATM   20  C2  UNL     1      22.408   4.798  51.958  1.00  0.00     0.081 C 
HETATM   21  C1  UNL     1      21.199   4.715  51.444  1.00  0.00     0.030 C 
ENDBRANCH  17  20
ENDBRANCH   1  16
TORSDOF 7
ENDMDL
MODEL 4
REMARK VINA RESULT:      -6.9      1.640      2.290
REMARK  7 active torsions:
REMARK  status: ('A' for Active; 'I' for Inactive)
REMARK    1  A    between atoms: C2_2  and  N1_3 
REMARK       I    between atoms: N1_3  and  C3_4 
REMARK    2  A    between atoms: C3_4  and  C4_6 
REMARK    3  A    between atoms: C7_9  and  O2_10 
REMARK    4  A    between atoms: C9_12  and  C10_13 
REMARK    5  A    between atoms: C11_14  and  C12_15 
REMARK    6  A    between atoms: C12_15  and  C13_16 
REMARK    7  A    between atoms: C14_17  and  C15_18 
ROOT
HETATM    1  C4  UNL     1      25.172   0.176  53.915  1.00  0.00     0.033 A 
HETATM    2  C5  UNL     1      24.419  -0.709  54.651  1.00  0.00     0.020 A 
HETATM    3  C6  UNL     1      23.104  -0.976  54.339  1.00  0.00     0.038 A 
HETATM    4  C7  UNL     1      22.596  -0.309  53.254  1.00  0.00     0.078 A 
HETATM    5  C9  UNL     1      23.261   0.592  52.453  1.00  0.00    -0.002 A 
HETATM    6  C16 UNL     1      24.563   0.782  52.856  1.00  0.00     0.031 A 
ENDROOT
BRANCH   5   7
HETATM    7  C10 UNL     1      22.744   1.313  51.304  1.00  0.00     0.010 C 
HETATM    8  C11 UNL     1      22.746   2.540  50.887  1.00  0.00    -0.022 C 
BRANCH   8   9
HETATM    9  C12 UNL     1      23.039   3.973  50.906  1.00  0.00     0.054 C 
BRANCH   9  10
HETATM   10  C13 UNL     1      24.427   4.294  50.413  1.00  0.00    -0.026 C 
HETATM   11  C14 UNL     1      25.335   3.444  49.944  1.00  0.00    -0.016 C 
BRANCH  11  12
HETATM   12  C15 UNL     1      26.733   3.501  49.411  1.00  0.00     0.141 C 
HETATM   13 CL1  UNL     1      27.119   5.107  48.745  1.00  0.00    -0.126 Cl
ENDBRANCH  11  12
ENDBRANCH   9  10
ENDBRANCH   8   9
ENDBRANCH   5   7
BRANCH   4  14
HETATM   14  O2  UNL     1      21.283  -0.582  52.949  1.00  0.00    -0.355 OA
HETATM   15  C8  UNL     1      20.176   0.103  53.487  1.00  0.00     0.210 C 
ENDBRANCH   4  14
BRANCH   1  16
HETATM   16  C3  UNL     1      26.564   0.494  54.202  1.00  0.00     0.255 C 
HETATM   17  N1  UNL     1      27.576  -0.500  54.242  1.00  0.00    -0.334 N 
HETATM   18  H4  UNL     1      27.321  -1.493  54.061  1.00  0.00     0.168 HD
HETATM   19  O1  UNL     1      26.937   1.677  54.430  1.00  0.00    -0.267 OA
BRANCH  17  20
HETATM   20  C2  UNL     1      28.926  -0.153  54.526  1.00  0.00     0.081 C 
HETATM   21  C1  UNL     1      29.842  -0.335  53.599  1.00  0.00     0.030 C 
ENDBRANCH  17  20
ENDBRANCH   1  16
TORSDOF 7
ENDMDL
MODEL 5
REMARK VINA RESULT:      -6.8      3.911      5.712
REMARK  7 active torsions:
REMARK  status: ('A' for Active; 'I' for Inactive)
REMARK    1  A    between atoms: C2_2  and  N1_3 
REMARK       I    between atoms: N1_3  and  C3_4 
REMARK    2  A    between atoms: C3_4  and  C4_6 
REMARK    3  A    between atoms: C7_9  and  O2_10 
REMARK    4  A    between atoms: C9_12  and  C10_13 
REMARK    5  A    between atoms: C11_14  and  C12_15 
REMARK    6  A    between atoms: C12_15  and  C13_16 
REMARK    7  A    between atoms: C14_17  and  C15_18 
ROOT
HETATM    1  C4  UNL     1      25.512   1.023  53.163  1.00  0.00     0.033 A 
HETATM    2  C5  UNL     1      25.513   2.267  53.750  1.00  0.00     0.020 A 
HETATM    3  C6  UNL     1      24.586   3.227  53.414  1.00  0.00     0.038 A 
HETATM    4  C7  UNL     1      23.666   2.869  52.462  1.00  0.00     0.078 A 
HETATM    5  C9  UNL     1      23.577   1.657  51.815  1.00  0.00    -0.002 A 
HETATM    6  C16 UNL     1      24.550   0.776  52.228  1.00  0.00     0.031 A 
ENDROOT
BRANCH   5   7
HETATM    7  C10 UNL     1      22.617   1.256  50.803  1.00  0.00     0.010 C 
HETATM    8  C11 UNL     1      21.389   0.844  50.785  1.00  0.00    -0.022 C 
BRANCH   8   9
HETATM    9  C12 UNL     1      20.088   0.451  51.326  1.00  0.00     0.054 C 
BRANCH   9  10
HETATM   10  C13 UNL     1      20.161   0.005  52.764  1.00  0.00    -0.026 C 
HETATM   11  C14 UNL     1      20.987  -0.894  53.291  1.00  0.00    -0.016 C 
BRANCH  11  12
HETATM   12  C15 UNL     1      21.257  -1.496  54.634  1.00  0.00     0.141 C 
HETATM   13 CL1  UNL     1      22.910  -1.143  55.196  1.00  0.00    -0.126 Cl
ENDBRANCH  11  12
ENDBRANCH   9  10
ENDBRANCH   8   9
ENDBRANCH   5   7
BRANCH   4  14
HETATM   14  O2  UNL     1      22.744   3.835  52.133  1.00  0.00    -0.355 OA
HETATM   15  C8  UNL     1      23.036   5.013  51.419  1.00  0.00     0.210 C 
ENDBRANCH   4  14
BRANCH   1  16
HETATM   16  C3  UNL     1      26.470  -0.028  53.481  1.00  0.00     0.255 C 
HETATM   17  N1  UNL     1      27.775  -0.057  52.926  1.00  0.00    -0.334 N 
HETATM   18  H4  UNL     1      28.065   0.695  52.268  1.00  0.00     0.168 HD
HETATM   19  O1  UNL     1      26.180  -0.967  54.271  1.00  0.00    -0.267 OA
BRANCH  17  20
HETATM   20  C2  UNL     1      28.684  -1.099  53.260  1.00  0.00     0.081 C 
HETATM   21  C1  UNL     1      29.890  -0.785  53.684  1.00  0.00     0.030 C 
ENDBRANCH  17  20
ENDBRANCH   1  16
TORSDOF 7
ENDMDL
MODEL 6
REMARK VINA RESULT:      -6.7      4.070      6.555
REMARK  7 active torsions:
REMARK  status: ('A' for Active; 'I' for Inactive)
REMARK    1  A    between atoms: C2_2  and  N1_3 
REMARK       I    between atoms: N1_3  and  C3_4 
REMARK    2  A    between atoms: C3_4  and  C4_6 
REMARK    3  A    between atoms: C7_9  and  O2_10 
REMARK    4  A    between atoms: C9_12  and  C10_13 
REMARK    5  A    between atoms: C11_14  and  C12_15 
REMARK    6  A    between atoms: C12_15  and  C13_16 
REMARK    7  A    between atoms: C14_17  and  C15_18 
ROOT
HETATM    1  C4  UNL     1      26.210   0.972  52.484  1.00  0.00     0.033 A 
HETATM    2  C5  UNL     1      26.619   1.833  51.492  1.00  0.00     0.020 A 
HETATM    3  C6  UNL     1      25.720   2.589  50.773  1.00  0.00     0.038 A 
HETATM    4  C7  UNL     1      24.399   2.432  51.106  1.00  0.00     0.078 A 
HETATM    5  C9  UNL     1      23.886   1.603  52.077  1.00  0.00    -0.002 A 
HETATM    6  C16 UNL     1      24.871   0.897  52.730  1.00  0.00     0.031 A 
ENDROOT
BRANCH   5   7
HETATM    7  C10 UNL     1      22.495   1.416  52.445  1.00  0.00     0.010 C 
HETATM    8  C11 UNL     1      21.832   0.651  53.254  1.00  0.00    -0.022 C 
BRANCH   8   9
HETATM    9  C12 UNL     1      21.620  -0.390  54.260  1.00  0.00     0.054 C 
BRANCH   9  10
HETATM   10  C13 UNL     1      20.367  -1.191  54.020  1.00  0.00    -0.026 C 
HETATM   11  C14 UNL     1      19.257  -0.792  53.404  1.00  0.00    -0.016 C 
BRANCH  11  12
HETATM   12  C15 UNL     1      17.922  -1.368  53.047  1.00  0.00     0.141 C 
HETATM   13 CL1  UNL     1      17.689  -2.983  53.758  1.00  0.00    -0.126 Cl
ENDBRANCH  11  12
ENDBRANCH   9  10
ENDBRANCH   8   9
ENDBRANCH   5   7
BRANCH   4  14
HETATM   14  O2  UNL     1      23.509   3.192  50.384  1.00  0.00    -0.355 OA
HETATM   15  C8  UNL     1      23.271   4.564  50.594  1.00  0.00     0.210 C 
ENDBRANCH   4  14
BRANCH   1  16
HETATM   16  C3  UNL     1      27.118   0.150  53.273  1.00  0.00     0.255 C 
HETATM   17  N1  UNL     1      28.497   0.458  53.404  1.00  0.00    -0.334 N 
HETATM   18  H4  UNL     1      28.879   1.297  52.923  1.00  0.00     0.168 HD
HETATM   19  O1  UNL     1      26.717  -0.880  53.879  1.00  0.00    -0.267 OA
BRANCH  17  20
HETATM   20  C2  UNL     1      29.355  -0.368  54.183  1.00  0.00     0.081 C 
HETATM   21  C1  UNL     1      29.987  -1.364  53.599  1.00  0.00     0.030 C 
ENDBRANCH  17  20
ENDBRANCH   1  16
TORSDOF 7
ENDMDL
MODEL 7
REMARK VINA RESULT:      -6.7      3.619      7.136
REMARK  7 active torsions:
REMARK  status: ('A' for Active; 'I' for Inactive)
REMARK    1  A    between atoms: C2_2  and  N1_3 
REMARK       I    between atoms: N1_3  and  C3_4 
REMARK    2  A    between atoms: C3_4  and  C4_6 
REMARK    3  A    between atoms: C7_9  and  O2_10 
REMARK    4  A    between atoms: C9_12  and  C10_13 
REMARK    5  A    between atoms: C11_14  and  C12_15 
REMARK    6  A    between atoms: C12_15  and  C13_16 
REMARK    7  A    between atoms: C14_17  and  C15_18 
ROOT
HETATM    1  C4  UNL     1      24.847   1.435  51.876  1.00  0.00     0.033 A 
HETATM    2  C5  UNL     1      26.211   1.509  51.715  1.00  0.00     0.020 A 
HETATM    3  C6  UNL     1      27.077   0.862  52.567  1.00  0.00     0.038 A 
HETATM    4  C7  UNL     1      26.499   0.141  53.580  1.00  0.00     0.078 A 
HETATM    5  C9  UNL     1      25.152   0.002  53.829  1.00  0.00    -0.002 A 
HETATM    6  C16 UNL     1      24.383   0.689  52.919  1.00  0.00     0.031 A 
ENDROOT
BRANCH   5   7
HETATM    7  C10 UNL     1      24.517  -0.750  54.895  1.00  0.00     0.010 C 
HETATM    8  C11 UNL     1      23.344  -1.255  55.118  1.00  0.00    -0.022 C 
BRANCH   8   9
HETATM    9  C12 UNL     1      21.945  -1.589  54.854  1.00  0.00     0.054 C 
BRANCH   9  10
HETATM   10  C13 UNL     1      21.393  -0.886  53.640  1.00  0.00    -0.026 C 
HETATM   11  C14 UNL     1      20.613   0.190  53.615  1.00  0.00    -0.016 C 
BRANCH  11  12
HETATM   12  C15 UNL     1      19.952   1.053  52.586  1.00  0.00     0.141 C 
HETATM   13 CL1  UNL     1      20.465   2.753  52.723  1.00  0.00    -0.126 Cl
ENDBRANCH  11  12
ENDBRANCH   9  10
ENDBRANCH   8   9
ENDBRANCH   5   7
BRANCH   4  14
HETATM   14  O2  UNL     1      27.372  -0.503  54.425  1.00  0.00    -0.355 OA
HETATM   15  C8  UNL     1      28.699  -0.098  54.668  1.00  0.00     0.210 C 
ENDBRANCH   4  14
BRANCH   1  16
HETATM   16  C3  UNL     1      23.888   2.101  51.004  1.00  0.00     0.255 C 
HETATM   17  N1  UNL     1      22.808   1.409  50.398  1.00  0.00    -0.334 N 
HETATM   18  H4  UNL     1      22.692   0.390  50.577  1.00  0.00     0.168 HD
HETATM   19  O1  UNL     1      23.974   3.332  50.748  1.00  0.00    -0.267 OA
BRANCH  17  20
HETATM   20  C2  UNL     1      21.890   2.091  49.552  1.00  0.00     0.081 C 
HETATM   21  C1  UNL     1      21.820   1.756  48.282  1.00  0.00     0.030 C 
ENDBRANCH  17  20
ENDBRANCH   1  16
TORSDOF 7
ENDMDL
MODEL 8
REMARK VINA RESULT:      -6.6      3.411      5.666
REMARK  7 active torsions:
REMARK  status: ('A' for Active; 'I' for Inactive)
REMARK    1  A    between atoms: C2_2  and  N1_3 
REMARK       I    between atoms: N1_3  and  C3_4 
REMARK    2  A    between atoms: C3_4  and  C4_6 
REMARK    3  A    between atoms: C7_9  and  O2_10 
REMARK    4  A    between atoms: C9_12  and  C10_13 
REMARK    5  A    between atoms: C11_14  and  C12_15 
REMARK    6  A    between atoms: C12_15  and  C13_16 
REMARK    7  A    between atoms: C14_17  and  C15_18 
ROOT
HETATM    1  C4  UNL     1      26.141   2.080  52.346  1.00  0.00     0.033 A 
HETATM    2  C5  UNL     1      26.422   2.572  51.093  1.00  0.00     0.020 A 
HETATM    3  C6  UNL     1      25.429   3.026  50.254  1.00  0.00     0.038 A 
HETATM    4  C7  UNL     1      24.150   2.958  50.743  1.00  0.00     0.078 A 
HETATM    5  C9  UNL     1      23.762   2.486  51.976  1.00  0.00    -0.002 A 
HETATM    6  C16 UNL     1      24.832   2.060  52.729  1.00  0.00     0.031 A 
ENDROOT
BRANCH   5   7
HETATM    7  C10 UNL     1      22.416   2.401  52.514  1.00  0.00     0.010 C 
HETATM    8  C11 UNL     1      21.516   1.478  52.650  1.00  0.00    -0.022 C 
BRANCH   8   9
HETATM    9  C12 UNL     1      20.924   0.144  52.552  1.00  0.00     0.054 C 
BRANCH   9  10
HETATM   10  C13 UNL     1      21.594  -0.863  53.450  1.00  0.00    -0.026 C 
HETATM   11  C14 UNL     1      22.472  -0.623  54.420  1.00  0.00    -0.016 C 
BRANCH  11  12
HETATM   12  C15 UNL     1      23.258  -1.412  55.420  1.00  0.00     0.141 C 
HETATM   13 CL1  UNL     1      25.002  -1.071  55.307  1.00  0.00    -0.126 Cl
ENDBRANCH  11  12
ENDBRANCH   9  10
ENDBRANCH   8   9
ENDBRANCH   5   7
BRANCH   4  14
HETATM   14  O2  UNL     1      23.165   3.414  49.898  1.00  0.00    -0.355 OA
HETATM   15  C8  UNL     1      23.078   3.104  48.527  1.00  0.00     0.210 C 
ENDBRANCH   4  14
BRANCH   1  16
HETATM   16  C3  UNL     1      27.152   1.587  53.272  1.00  0.00     0.255 C 
HETATM   17  N1  UNL     1      27.661   0.265  53.203  1.00  0.00    -0.334 N 
HETATM   18  H4  UNL     1      27.305  -0.381  52.469  1.00  0.00     0.168 HD
HETATM   19  O1  UNL     1      27.624   2.319  54.184  1.00  0.00    -0.267 OA
BRANCH  17  20
HETATM   20  C2  UNL     1      28.649  -0.183  54.125  1.00  0.00     0.081 C 
HETATM   21  C1  UNL     1      29.816  -0.585  53.667  1.00  0.00     0.030 C 
ENDBRANCH  17  20
ENDBRANCH   1  16
TORSDOF 7
ENDMDL
MODEL 9
REMARK VINA RESULT:      -6.5      4.325      7.426
REMARK  7 active torsions:
REMARK  status: ('A' for Active; 'I' for Inactive)
REMARK    1  A    between atoms: C2_2  and  N1_3 
REMARK       I    between atoms: N1_3  and  C3_4 
REMARK    2  A    between atoms: C3_4  and  C4_6 
REMARK    3  A    between atoms: C7_9  and  O2_10 
REMARK    4  A    between atoms: C9_12  and  C10_13 
REMARK    5  A    between atoms: C11_14  and  C12_15 
REMARK    6  A    between atoms: C12_15  and  C13_16 
REMARK    7  A    between atoms: C14_17  and  C15_18 
ROOT
HETATM    1  C4  UNL     1      28.030   6.094  48.401  1.00  0.00     0.033 A 
HETATM    2  C5  UNL     1      26.967   6.948  48.226  1.00  0.00     0.020 A 
HETATM    3  C6  UNL     1      25.673   6.558  48.489  1.00  0.00     0.038 A 
HETATM    4  C7  UNL     1      25.512   5.272  48.935  1.00  0.00     0.078 A 
HETATM    5  C9  UNL     1      26.503   4.340  49.145  1.00  0.00    -0.002 A 
HETATM    6  C16 UNL     1      27.752   4.836  48.850  1.00  0.00     0.031 A 
ENDROOT
BRANCH   5   7
HETATM    7  C10 UNL     1      26.357   2.973  49.612  1.00  0.00     0.010 C 
HETATM    8  C11 UNL     1      26.330   2.371  50.758  1.00  0.00    -0.022 C 
BRANCH   8   9
HETATM    9  C12 UNL     1      26.373   2.235  52.215  1.00  0.00     0.054 C 
BRANCH   9  10
HETATM   10  C13 UNL     1      27.347   1.182  52.677  1.00  0.00    -0.026 C 
HETATM   11  C14 UNL     1      27.916   1.078  53.875  1.00  0.00    -0.016 C 
BRANCH  11  12
HETATM   12  C15 UNL     1      28.880   0.164  54.565  1.00  0.00     0.141 C 
HETATM   13 CL1  UNL     1      29.655  -0.962  53.424  1.00  0.00    -0.126 Cl
ENDBRANCH  11  12
ENDBRANCH   9  10
ENDBRANCH   8   9
ENDBRANCH   5   7
BRANCH   4  14
HETATM   14  O2  UNL     1      24.216   4.891  49.196  1.00  0.00    -0.355 OA
HETATM   15  C8  UNL     1      23.495   5.241  50.355  1.00  0.00     0.210 C 
ENDBRANCH   4  14
BRANCH   1  16
HETATM   16  C3  UNL     1      29.417   6.455  48.138  1.00  0.00     0.255 C 
HETATM   17  N1  UNL     1      30.427   6.356  49.129  1.00  0.00    -0.334 N 
HETATM   18  H4  UNL     1      30.176   6.014  50.079  1.00  0.00     0.168 HD
HETATM   19  O1  UNL     1      29.785   6.876  47.008  1.00  0.00    -0.267 OA
BRANCH  17  20
HETATM   20  C2  UNL     1      31.771   6.718  48.836  1.00  0.00     0.081 C 
HETATM   21  C1  UNL     1      32.670   5.769  48.682  1.00  0.00     0.030 C 
ENDBRANCH  17  20
ENDBRANCH   1  16
TORSDOF 7
ENDMDL
