MODEL 1
REMARK VINA RESULT:      -8.0      0.000      0.000
REMARK  6 active torsions:
REMARK  status: ('A' for Active; 'I' for Inactive)
REMARK    1  A    between atoms: C7_8  and  C8_9 
REMARK    2  A    between atoms: C10_13  and  C11_14 
REMARK    3  A    between atoms: N3_20  and  C16_21 
REMARK    4  A    between atoms: C16_21  and  C17_22 
REMARK    5  A    between atoms: C17_22  and  C18_23 
REMARK    6  A    between atoms: C18_23  and  N4_24 
ROOT
HETATM    1  C8  UNL     1      25.595   0.912  51.902  1.00  0.00     0.243 C 
HETATM    2  N1  UNL     1      25.497   2.102  51.012  1.00  0.00    -0.252 NA
HETATM    3  C9  UNL     1      24.313   2.589  50.779  1.00  0.00     0.229 C 
HETATM    4  N2  UNL     1      23.596   3.607  50.095  1.00  0.00    -0.247 NA
HETATM    5  C10 UNL     1      23.223   4.589  50.905  1.00  0.00     0.040 C 
HETATM    6  C13 UNL     1      23.414   4.845  52.361  1.00  0.00     0.087 C 
HETATM    7  C14 UNL     1      23.898   3.668  53.097  1.00  0.00    -0.004 C 
HETATM    8  C15 UNL     1      24.304   2.455  53.471  1.00  0.00     0.084 C 
HETATM    9  N3  UNL     1      24.487   1.163  52.848  1.00  0.00    -0.364 N 
ENDROOT
BRANCH   1  10
HETATM   10  C7  UNL     1      26.894   1.020  52.564  1.00  0.00    -0.007 A 
HETATM   11  C2  UNL     1      27.567  -0.147  52.858  1.00  0.00    -0.030 A 
HETATM   12  C1  UNL     1      27.102  -1.521  52.561  1.00  0.00     0.050 C 
HETATM   13  C3  UNL     1      28.795  -0.031  53.492  1.00  0.00     0.040 A 
HETATM   14 CL1  UNL     1      29.723  -1.484  53.905  1.00  0.00    -0.084 Cl
HETATM   15  C4  UNL     1      29.393   1.178  53.852  1.00  0.00     0.024 A 
HETATM   16  C5  UNL     1      28.680   2.324  53.536  1.00  0.00     0.002 A 
HETATM   17  C6  UNL     1      27.438   2.236  52.895  1.00  0.00     0.012 A 
ENDBRANCH   1  10
BRANCH   9  18
HETATM   18  C16 UNL     1      23.572   0.051  53.100  1.00  0.00     0.126 C 
BRANCH  18  19
HETATM   19  C17 UNL     1      22.151   0.544  53.267  1.00  0.00     0.050 C 
BRANCH  19  20
HETATM   20  C18 UNL     1      21.484   0.432  51.909  1.00  0.00     0.277 C 
BRANCH  20  21
HETATM   21  N4  UNL     1      20.231   1.209  51.861  1.00  0.00     0.113 N 
HETATM   22  C19 UNL     1      20.074   1.809  50.561  1.00  0.00     0.301 C 
HETATM   23  C20 UNL     1      19.771   3.246  50.859  1.00  0.00     0.200 C 
HETATM   24  O1  UNL     1      19.557   3.305  52.250  1.00  0.00    -0.361 OA
HETATM   25  C21 UNL     1      20.397   2.323  52.756  1.00  0.00     0.440 C 
ENDBRANCH  20  21
ENDBRANCH  19  20
ENDBRANCH  18  19
ENDBRANCH   9  18
BRANCH   5  26
HETATM   26  C11 UNL     1      22.510   5.564  50.103  1.00  0.00     0.039 C 
HETATM   27  C12 UNL     1      22.853   6.854  50.123  1.00  0.00     0.086 C 
HETATM   28 CL2  UNL     1      23.945   8.040  50.794  1.00  0.00    -0.097 Cl
ENDBRANCH   5  26
TORSDOF 6
ENDMDL
MODEL 2
REMARK VINA RESULT:      -7.9      3.367      6.331
REMARK  6 active torsions:
REMARK  status: ('A' for Active; 'I' for Inactive)
REMARK    1  A    between atoms: C7_8  and  C8_9 
REMARK    2  A    between atoms: C10_13  and  C11_14 
REMARK    3  A    between atoms: N3_20  and  C16_21 
REMARK    4  A    between atoms: C16_21  and  C17_22 
REMARK    5  A    between atoms: C17_22  and  C18_23 
REMARK    6  A    between atoms: C18_23  and  N4_24 
ROOT
HETATM    1  C8  UNL     1      23.830   2.551  50.549  1.00  0.00     0.243 C 
HETATM    2  N1  UNL     1      22.604   1.987  49.919  1.00  0.00    -0.252 NA
HETATM    3  C9  UNL     1      21.802   1.290  50.671  1.00  0.00     0.229 C 
HETATM    4  N2  UNL     1      20.588   0.553  50.693  1.00  0.00    -0.247 NA
HETATM    5  C10 UNL     1      19.594   1.239  51.242  1.00  0.00     0.040 C 
HETATM    6  C13 UNL     1      19.491   2.610  51.818  1.00  0.00     0.087 C 
HETATM    7  C14 UNL     1      20.800   3.242  52.045  1.00  0.00    -0.004 C 
HETATM    8  C15 UNL     1      22.098   3.523  52.151  1.00  0.00     0.084 C 
HETATM    9  N3  UNL     1      23.349   2.837  51.917  1.00  0.00    -0.364 N 
ENDROOT
BRANCH   1  10
HETATM   10  C7  UNL     1      24.118   3.783  49.818  1.00  0.00    -0.007 A 
HETATM   11  C2  UNL     1      25.441   4.132  49.637  1.00  0.00    -0.030 A 
HETATM   12  C1  UNL     1      26.617   3.368  50.112  1.00  0.00     0.050 C 
HETATM   13  C3  UNL     1      25.700   5.307  48.949  1.00  0.00     0.040 A 
HETATM   14 CL1  UNL     1      27.373   5.825  48.674  1.00  0.00    -0.084 Cl
HETATM   15  C4  UNL     1      24.722   6.157  48.429  1.00  0.00     0.024 A 
HETATM   16  C5  UNL     1      23.408   5.765  48.635  1.00  0.00     0.002 A 
HETATM   17  C6  UNL     1      23.117   4.583  49.326  1.00  0.00     0.012 A 
ENDBRANCH   1  10
BRANCH   9  18
HETATM   18  C16 UNL     1      24.186   2.369  53.021  1.00  0.00     0.126 C 
BRANCH  18  19
HETATM   19  C17 UNL     1      25.004   1.165  52.609  1.00  0.00     0.050 C 
BRANCH  19  20
HETATM   20  C18 UNL     1      24.541   0.003  53.466  1.00  0.00     0.277 C 
BRANCH  20  21
HETATM   21  N4  UNL     1      25.684  -0.708  54.070  1.00  0.00     0.113 N 
HETATM   22  C19 UNL     1      26.441   0.195  54.899  1.00  0.00     0.301 C 
HETATM   23  C20 UNL     1      27.857   0.001  54.447  1.00  0.00     0.200 C 
HETATM   24  O1  UNL     1      27.829  -1.118  53.592  1.00  0.00    -0.361 OA
HETATM   25  C21 UNL     1      26.578  -1.048  52.996  1.00  0.00     0.440 C 
ENDBRANCH  20  21
ENDBRANCH  19  20
ENDBRANCH  18  19
ENDBRANCH   9  18
BRANCH   5  26
HETATM   26  C11 UNL     1      18.414   0.397  51.206  1.00  0.00     0.039 C 
HETATM   27  C12 UNL     1      18.229  -0.565  52.113  1.00  0.00     0.086 C 
HETATM   28 CL2  UNL     1      18.887  -1.358  53.521  1.00  0.00    -0.097 Cl
ENDBRANCH   5  26
TORSDOF 6
ENDMDL
MODEL 3
REMARK VINA RESULT:      -7.9      3.771      6.587
REMARK  6 active torsions:
REMARK  status: ('A' for Active; 'I' for Inactive)
REMARK    1  A    between atoms: C7_8  and  C8_9 
REMARK    2  A    between atoms: C10_13  and  C11_14 
REMARK    3  A    between atoms: N3_20  and  C16_21 
REMARK    4  A    between atoms: C16_21  and  C17_22 
REMARK    5  A    between atoms: C17_22  and  C18_23 
REMARK    6  A    between atoms: C18_23  and  N4_24 
ROOT
HETATM    1  C8  UNL     1      23.317   3.704  51.228  1.00  0.00     0.243 C 
HETATM    2  N1  UNL     1      23.694   4.714  50.200  1.00  0.00    -0.252 NA
HETATM    3  C9  UNL     1      24.830   5.333  50.346  1.00  0.00     0.229 C 
HETATM    4  N2  UNL     1      25.696   6.306  49.781  1.00  0.00    -0.247 NA
HETATM    5  C10 UNL     1      26.722   5.757  49.145  1.00  0.00     0.040 C 
HETATM    6  C13 UNL     1      27.136   4.347  48.895  1.00  0.00     0.087 C 
HETATM    7  C14 UNL     1      26.400   3.373  49.715  1.00  0.00    -0.004 C 
HETATM    8  C15 UNL     1      25.601   2.762  50.589  1.00  0.00     0.084 C 
HETATM    9  N3  UNL     1      24.640   3.155  51.595  1.00  0.00    -0.364 N 
ENDROOT
BRANCH   1  10
HETATM   10  C7  UNL     1      22.505   2.711  50.527  1.00  0.00    -0.007 A 
HETATM   11  C2  UNL     1      21.596   1.983  51.266  1.00  0.00    -0.030 A 
HETATM   12  C1  UNL     1      21.353   2.112  52.721  1.00  0.00     0.050 C 
HETATM   13  C3  UNL     1      20.837   1.040  50.590  1.00  0.00     0.040 A 
HETATM   14 CL1  UNL     1      19.647   0.063  51.468  1.00  0.00    -0.084 Cl
HETATM   15  C4  UNL     1      20.929   0.777  49.222  1.00  0.00     0.024 A 
HETATM   16  C5  UNL     1      21.855   1.534  48.521  1.00  0.00     0.002 A 
HETATM   17  C6  UNL     1      22.635   2.494  49.178  1.00  0.00     0.012 A 
ENDBRANCH   1  10
BRANCH   9  18
HETATM   18  C16 UNL     1      24.937   3.054  53.023  1.00  0.00     0.126 C 
BRANCH  18  19
HETATM   19  C17 UNL     1      25.317   1.639  53.400  1.00  0.00     0.050 C 
BRANCH  19  20
HETATM   20  C18 UNL     1      26.772   1.672  53.828  1.00  0.00     0.277 C 
BRANCH  20  21
HETATM   21  N4  UNL     1      27.235   0.339  54.258  1.00  0.00     0.113 N 
HETATM   22  C19 UNL     1      28.593   0.421  54.732  1.00  0.00     0.301 C 
HETATM   23  C20 UNL     1      29.298  -0.682  54.003  1.00  0.00     0.200 C 
HETATM   24  O1  UNL     1      28.282  -1.425  53.370  1.00  0.00    -0.361 OA
HETATM   25  C21 UNL     1      27.314  -0.477  53.076  1.00  0.00     0.440 C 
ENDBRANCH  20  21
ENDBRANCH  19  20
ENDBRANCH  18  19
ENDBRANCH   9  18
BRANCH   5  26
HETATM   26  C11 UNL     1      27.529   6.836  48.610  1.00  0.00     0.039 C 
HETATM   27  C12 UNL     1      28.772   6.615  48.176  1.00  0.00     0.086 C 
HETATM   28 CL2  UNL     1      30.020   5.418  47.942  1.00  0.00    -0.097 Cl
ENDBRANCH   5  26
TORSDOF 6
ENDMDL
MODEL 4
REMARK VINA RESULT:      -7.8      3.473      6.620
REMARK  6 active torsions:
REMARK  status: ('A' for Active; 'I' for Inactive)
REMARK    1  A    between atoms: C7_8  and  C8_9 
REMARK    2  A    between atoms: C10_13  and  C11_14 
REMARK    3  A    between atoms: N3_20  and  C16_21 
REMARK    4  A    between atoms: C16_21  and  C17_22 
REMARK    5  A    between atoms: C17_22  and  C18_23 
REMARK    6  A    between atoms: C18_23  and  N4_24 
ROOT
HETATM    1  C8  UNL     1      22.148   2.270  52.802  1.00  0.00     0.243 C 
HETATM    2  N1  UNL     1      22.146   3.623  52.178  1.00  0.00    -0.252 NA
HETATM    3  C9  UNL     1      23.294   4.208  51.997  1.00  0.00     0.229 C 
HETATM    4  N2  UNL     1      23.930   5.378  51.504  1.00  0.00    -0.247 NA
HETATM    5  C10 UNL     1      24.476   5.188  50.310  1.00  0.00     0.040 C 
HETATM    6  C13 UNL     1      24.544   4.017  49.390  1.00  0.00     0.087 C 
HETATM    7  C14 UNL     1      24.140   2.755  50.027  1.00  0.00    -0.004 C 
HETATM    8  C15 UNL     1      23.751   1.802  50.872  1.00  0.00     0.084 C 
HETATM    9  N3  UNL     1      23.409   1.708  52.274  1.00  0.00    -0.364 N 
ENDROOT
BRANCH   1  10
HETATM   10  C7  UNL     1      20.984   1.579  52.248  1.00  0.00    -0.007 A 
HETATM   11  C2  UNL     1      20.408   0.580  53.004  1.00  0.00    -0.030 A 
HETATM   12  C1  UNL     1      20.851   0.133  54.343  1.00  0.00     0.050 C 
HETATM   13  C3  UNL     1      19.310  -0.073  52.463  1.00  0.00     0.040 A 
HETATM   14 CL1  UNL     1      18.511  -1.368  53.372  1.00  0.00    -0.084 Cl
HETATM   15  C4  UNL     1      18.751   0.210  51.215  1.00  0.00     0.024 A 
HETATM   16  C5  UNL     1      19.365   1.221  50.492  1.00  0.00     0.002 A 
HETATM   17  C6  UNL     1      20.475   1.898  51.014  1.00  0.00     0.012 A 
ENDBRANCH   1  10
BRANCH   9  18
HETATM   18  C16 UNL     1      24.305   1.077  53.243  1.00  0.00     0.126 C 
BRANCH  18  19
HETATM   19  C17 UNL     1      25.558   0.562  52.569  1.00  0.00     0.050 C 
BRANCH  19  20
HETATM   20  C18 UNL     1      26.730   1.002  53.426  1.00  0.00     0.277 C 
BRANCH  20  21
HETATM   21  N4  UNL     1      27.414  -0.154  54.034  1.00  0.00     0.113 N 
HETATM   22  C19 UNL     1      28.776   0.190  54.350  1.00  0.00     0.301 C 
HETATM   23  C20 UNL     1      29.580  -0.927  53.758  1.00  0.00     0.200 C 
HETATM   24  O1  UNL     1      28.640  -1.902  53.369  1.00  0.00    -0.361 OA
HETATM   25  C21 UNL     1      27.524  -1.160  53.011  1.00  0.00     0.440 C 
ENDBRANCH  20  21
ENDBRANCH  19  20
ENDBRANCH  18  19
ENDBRANCH   9  18
BRANCH   5  26
HETATM   26  C11 UNL     1      25.085   6.440  49.908  1.00  0.00     0.039 C 
HETATM   27  C12 UNL     1      26.238   6.459  49.233  1.00  0.00     0.086 C 
HETATM   28 CL2  UNL     1      27.505   5.487  48.528  1.00  0.00    -0.097 Cl
ENDBRANCH   5  26
TORSDOF 6
ENDMDL
MODEL 5
REMARK VINA RESULT:      -7.7      2.925      6.011
REMARK  6 active torsions:
REMARK  status: ('A' for Active; 'I' for Inactive)
REMARK    1  A    between atoms: C7_8  and  C8_9 
REMARK    2  A    between atoms: C10_13  and  C11_14 
REMARK    3  A    between atoms: N3_20  and  C16_21 
REMARK    4  A    between atoms: C16_21  and  C17_22 
REMARK    5  A    between atoms: C17_22  and  C18_23 
REMARK    6  A    between atoms: C18_23  and  N4_24 
ROOT
HETATM    1  C8  UNL     1      23.528   2.501  52.657  1.00  0.00     0.243 C 
HETATM    2  N1  UNL     1      22.996   3.880  52.476  1.00  0.00    -0.252 NA
HETATM    3  C9  UNL     1      23.715   4.722  51.792  1.00  0.00     0.229 C 
HETATM    4  N2  UNL     1      23.779   6.052  51.297  1.00  0.00    -0.247 NA
HETATM    5  C10 UNL     1      23.486   6.122  50.006  1.00  0.00     0.040 C 
HETATM    6  C13 UNL     1      23.096   5.106  48.987  1.00  0.00     0.087 C 
HETATM    7  C14 UNL     1      23.311   3.722  49.438  1.00  0.00    -0.004 C 
HETATM    8  C15 UNL     1      23.633   2.618  50.110  1.00  0.00     0.084 C 
HETATM    9  N3  UNL     1      24.244   2.295  51.380  1.00  0.00    -0.364 N 
ENDROOT
BRANCH   1  10
HETATM   10  C7  UNL     1      22.354   1.635  52.754  1.00  0.00    -0.007 A 
HETATM   11  C2  UNL     1      22.518   0.388  53.320  1.00  0.00    -0.030 A 
HETATM   12  C1  UNL     1      23.782  -0.169  53.853  1.00  0.00     0.050 C 
HETATM   13  C3  UNL     1      21.399  -0.427  53.399  1.00  0.00     0.040 A 
HETATM   14 CL1  UNL     1      21.525  -2.044  54.113  1.00  0.00    -0.084 Cl
HETATM   15  C4  UNL     1      20.125  -0.074  52.949  1.00  0.00     0.024 A 
HETATM   16  C5  UNL     1      20.009   1.188  52.388  1.00  0.00     0.002 A 
HETATM   17  C6  UNL     1      21.123   2.032  52.296  1.00  0.00     0.012 A 
ENDBRANCH   1  10
BRANCH   9  18
HETATM   18  C16 UNL     1      25.608   1.775  51.467  1.00  0.00     0.126 C 
BRANCH  18  19
HETATM   19  C17 UNL     1      26.225   2.091  52.811  1.00  0.00     0.050 C 
BRANCH  19  20
HETATM   20  C18 UNL     1      27.685   1.686  52.732  1.00  0.00     0.277 C 
BRANCH  20  21
HETATM   21  N4  UNL     1      27.995   0.608  53.689  1.00  0.00     0.113 N 
HETATM   22  C19 UNL     1      29.415   0.552  53.923  1.00  0.00     0.301 C 
HETATM   23  C20 UNL     1      29.757  -0.895  53.732  1.00  0.00     0.200 C 
HETATM   24  O1  UNL     1      28.522  -1.564  53.636  1.00  0.00    -0.361 OA
HETATM   25  C21 UNL     1      27.688  -0.635  53.032  1.00  0.00     0.440 C 
ENDBRANCH  20  21
ENDBRANCH  19  20
ENDBRANCH  18  19
ENDBRANCH   9  18
BRANCH   5  26
HETATM   26  C11 UNL     1      23.577   7.515  49.616  1.00  0.00     0.039 C 
HETATM   27  C12 UNL     1      22.502   8.307  49.636  1.00  0.00     0.086 C 
HETATM   28 CL2  UNL     1      20.792   8.399  49.977  1.00  0.00    -0.097 Cl
ENDBRANCH   5  26
TORSDOF 6
ENDMDL
MODEL 6
REMARK VINA RESULT:      -7.6      3.575      6.264
REMARK  6 active torsions:
REMARK  status: ('A' for Active; 'I' for Inactive)
REMARK    1  A    between atoms: C7_8  and  C8_9 
REMARK    2  A    between atoms: C10_13  and  C11_14 
REMARK    3  A    between atoms: N3_20  and  C16_21 
REMARK    4  A    between atoms: C16_21  and  C17_22 
REMARK    5  A    between atoms: C17_22  and  C18_23 
REMARK    6  A    between atoms: C18_23  and  N4_24 
ROOT
HETATM    1  C8  UNL     1      21.646   2.171  52.328  1.00  0.00     0.243 C 
HETATM    2  N1  UNL     1      20.309   2.609  52.817  1.00  0.00    -0.252 NA
HETATM    3  C9  UNL     1      19.498   3.155  51.958  1.00  0.00     0.229 C 
HETATM    4  N2  UNL     1      18.210   3.728  51.789  1.00  0.00    -0.247 NA
HETATM    5  C10 UNL     1      17.360   2.892  51.208  1.00  0.00     0.040 C 
HETATM    6  C13 UNL     1      17.477   1.489  50.718  1.00  0.00     0.087 C 
HETATM    7  C14 UNL     1      18.867   1.017  50.640  1.00  0.00    -0.004 C 
HETATM    8  C15 UNL     1      20.194   0.898  50.659  1.00  0.00     0.084 C 
HETATM    9  N3  UNL     1      21.327   1.750  50.947  1.00  0.00    -0.364 N 
ENDROOT
BRANCH   1  10
HETATM   10  C7  UNL     1      22.017   1.028  53.160  1.00  0.00    -0.007 A 
HETATM   11  C2  UNL     1      23.346   0.663  53.200  1.00  0.00    -0.030 A 
HETATM   12  C1  UNL     1      24.454   1.327  52.477  1.00  0.00     0.050 C 
HETATM   13  C3  UNL     1      23.683  -0.427  53.987  1.00  0.00     0.040 A 
HETATM   14 CL1  UNL     1      25.371  -0.960  54.092  1.00  0.00    -0.084 Cl
HETATM   15  C4  UNL     1      22.775  -1.177  54.739  1.00  0.00     0.024 A 
HETATM   16  C5  UNL     1      21.452  -0.772  54.668  1.00  0.00     0.002 A 
HETATM   17  C6  UNL     1      21.083   0.326  53.881  1.00  0.00     0.012 A 
ENDBRANCH   1  10
BRANCH   9  18
HETATM   18  C16 UNL     1      22.195   2.258  49.886  1.00  0.00     0.126 C 
BRANCH  18  19
HETATM   19  C17 UNL     1      22.712   3.639  50.223  1.00  0.00     0.050 C 
BRANCH  19  20
HETATM   20  C18 UNL     1      23.753   3.988  49.175  1.00  0.00     0.277 C 
BRANCH  20  21
HETATM   21  N4  UNL     1      25.025   4.398  49.799  1.00  0.00     0.113 N 
HETATM   22  C19 UNL     1      25.651   5.425  49.007  1.00  0.00     0.301 C 
HETATM   23  C20 UNL     1      27.059   4.941  48.833  1.00  0.00     0.200 C 
HETATM   24  O1  UNL     1      27.186   3.836  49.697  1.00  0.00    -0.361 OA
HETATM   25  C21 UNL     1      25.918   3.275  49.705  1.00  0.00     0.440 C 
ENDBRANCH  20  21
ENDBRANCH  19  20
ENDBRANCH  18  19
ENDBRANCH   9  18
BRANCH   5  26
HETATM   26  C11 UNL     1      16.088   3.577  51.092  1.00  0.00     0.039 C 
HETATM   27  C12 UNL     1      15.030   3.190  51.809  1.00  0.00     0.086 C 
HETATM   28 CL2  UNL     1      14.435   2.053  52.992  1.00  0.00    -0.097 Cl
ENDBRANCH   5  26
TORSDOF 6
ENDMDL
MODEL 7
REMARK VINA RESULT:      -7.2      3.732      6.665
REMARK  6 active torsions:
REMARK  status: ('A' for Active; 'I' for Inactive)
REMARK    1  A    between atoms: C7_8  and  C8_9 
REMARK    2  A    between atoms: C10_13  and  C11_14 
REMARK    3  A    between atoms: N3_20  and  C16_21 
REMARK    4  A    between atoms: C16_21  and  C17_22 
REMARK    5  A    between atoms: C17_22  and  C18_23 
REMARK    6  A    between atoms: C18_23  and  N4_24 
ROOT
HETATM    1  C8  UNL     1      23.124   4.604  50.461  1.00  0.00     0.243 C 
HETATM    2  N1  UNL     1      22.983   3.600  51.551  1.00  0.00    -0.252 NA
HETATM    3  C9  UNL     1      21.809   3.070  51.738  1.00  0.00     0.229 C 
HETATM    4  N2  UNL     1      21.071   2.145  52.523  1.00  0.00    -0.247 NA
HETATM    5  C10 UNL     1      20.862   1.000  51.887  1.00  0.00     0.040 C 
HETATM    6  C13 UNL     1      21.252   0.490  50.541  1.00  0.00     0.087 C 
HETATM    7  C14 UNL     1      21.757   1.543  49.648  1.00  0.00    -0.004 C 
HETATM    8  C15 UNL     1      22.136   2.692  49.090  1.00  0.00     0.084 C 
HETATM    9  N3  UNL     1      22.162   4.089  49.463  1.00  0.00    -0.364 N 
ENDROOT
BRANCH   1  10
HETATM   10  C7  UNL     1      24.501   4.480  49.985  1.00  0.00    -0.007 A 
HETATM   11  C2  UNL     1      25.073   5.574  49.371  1.00  0.00    -0.030 A 
HETATM   12  C1  UNL     1      24.424   6.886  49.146  1.00  0.00     0.050 C 
HETATM   13  C3  UNL     1      26.377   5.441  48.918  1.00  0.00     0.040 A 
HETATM   14 CL1  UNL     1      27.184   6.801  48.119  1.00  0.00    -0.084 Cl
HETATM   15  C4  UNL     1      27.147   4.281  49.040  1.00  0.00     0.024 A 
HETATM   16  C5  UNL     1      26.530   3.208  49.664  1.00  0.00     0.002 A 
HETATM   17  C6  UNL     1      25.214   3.316  50.132  1.00  0.00     0.012 A 
ENDBRANCH   1  10
BRANCH   9  18
HETATM   18  C16 UNL     1      21.224   5.055  48.894  1.00  0.00     0.126 C 
BRANCH  18  19
HETATM   19  C17 UNL     1      20.989   4.783  47.424  1.00  0.00     0.050 C 
BRANCH  19  20
HETATM   20  C18 UNL     1      22.044   5.560  46.659  1.00  0.00     0.277 C 
BRANCH  20  21
HETATM   21  N4  UNL     1      22.138   5.102  45.260  1.00  0.00     0.113 N 
HETATM   22  C19 UNL     1      21.232   5.858  44.434  1.00  0.00     0.301 C 
HETATM   23  C20 UNL     1      20.482   4.812  43.666  1.00  0.00     0.200 C 
HETATM   24  O1  UNL     1      21.150   3.600  43.931  1.00  0.00    -0.361 OA
HETATM   25  C21 UNL     1      21.624   3.759  45.225  1.00  0.00     0.440 C 
ENDBRANCH  20  21
ENDBRANCH  19  20
ENDBRANCH  18  19
ENDBRANCH   9  18
BRANCH   5  26
HETATM   26  C11 UNL     1      20.110   0.139  52.779  1.00  0.00     0.039 C 
HETATM   27  C12 UNL     1      20.724  -0.566  53.733  1.00  0.00     0.086 C 
HETATM   28 CL2  UNL     1      22.257  -0.952  54.473  1.00  0.00    -0.097 Cl
ENDBRANCH   5  26
TORSDOF 6
ENDMDL
MODEL 8
REMARK VINA RESULT:      -7.1      3.306      6.463
REMARK  6 active torsions:
REMARK  status: ('A' for Active; 'I' for Inactive)
REMARK    1  A    between atoms: C7_8  and  C8_9 
REMARK    2  A    between atoms: C10_13  and  C11_14 
REMARK    3  A    between atoms: N3_20  and  C16_21 
REMARK    4  A    between atoms: C16_21  and  C17_22 
REMARK    5  A    between atoms: C17_22  and  C18_23 
REMARK    6  A    between atoms: C18_23  and  N4_24 
ROOT
HETATM    1  C8  UNL     1      21.200   1.811  52.576  1.00  0.00     0.243 C 
HETATM    2  N1  UNL     1      20.820   3.251  52.554  1.00  0.00    -0.252 NA
HETATM    3  C9  UNL     1      21.707   4.105  52.133  1.00  0.00     0.229 C 
HETATM    4  N2  UNL     1      21.959   5.481  51.883  1.00  0.00    -0.247 NA
HETATM    5  C10 UNL     1      21.886   5.778  50.593  1.00  0.00     0.040 C 
HETATM    6  C13 UNL     1      21.583   4.977  49.372  1.00  0.00     0.087 C 
HETATM    7  C14 UNL     1      21.607   3.527  49.611  1.00  0.00    -0.004 C 
HETATM    8  C15 UNL     1      21.724   2.304  50.128  1.00  0.00     0.084 C 
HETATM    9  N3  UNL     1      22.093   1.727  51.401  1.00  0.00    -0.364 N 
ENDROOT
BRANCH   1  10
HETATM   10  C7  UNL     1      19.958   1.072  52.354  1.00  0.00    -0.007 A 
HETATM   11  C2  UNL     1      19.778  -0.108  53.045  1.00  0.00    -0.030 A 
HETATM   12  C1  UNL     1      20.728  -0.708  54.009  1.00  0.00     0.050 C 
HETATM   13  C3  UNL     1      18.599  -0.803  52.820  1.00  0.00     0.040 A 
HETATM   14 CL1  UNL     1      18.291  -2.329  53.669  1.00  0.00    -0.084 Cl
HETATM   15  C4  UNL     1      17.589  -0.394  51.947  1.00  0.00     0.024 A 
HETATM   16  C5  UNL     1      17.815   0.797  51.276  1.00  0.00     0.002 A 
HETATM   17  C6  UNL     1      18.996   1.520  51.485  1.00  0.00     0.012 A 
ENDBRANCH   1  10
BRANCH   9  18
HETATM   18  C16 UNL     1      23.378   1.056  51.598  1.00  0.00     0.126 C 
BRANCH  18  19
HETATM   19  C17 UNL     1      23.866   1.224  53.020  1.00  0.00     0.050 C 
BRANCH  19  20
HETATM   20  C18 UNL     1      24.672  -0.015  53.358  1.00  0.00     0.277 C 
BRANCH  20  21
HETATM   21  N4  UNL     1      25.998   0.339  53.898  1.00  0.00     0.113 N 
HETATM   22  C19 UNL     1      26.214   1.758  53.780  1.00  0.00     0.301 C 
HETATM   23  C20 UNL     1      27.565   1.868  53.140  1.00  0.00     0.200 C 
HETATM   24  O1  UNL     1      28.094   0.562  53.153  1.00  0.00    -0.361 OA
HETATM   25  C21 UNL     1      26.977  -0.250  53.023  1.00  0.00     0.440 C 
ENDBRANCH  20  21
ENDBRANCH  19  20
ENDBRANCH  18  19
ENDBRANCH   9  18
BRANCH   5  26
HETATM   26  C11 UNL     1      22.154   7.197  50.459  1.00  0.00     0.039 C 
HETATM   27  C12 UNL     1      23.403   7.667  50.493  1.00  0.00     0.086 C 
HETATM   28 CL2  UNL     1      25.091   7.250  50.651  1.00  0.00    -0.097 Cl
ENDBRANCH   5  26
TORSDOF 6
ENDMDL
MODEL 9
REMARK VINA RESULT:      -6.9      2.954      4.323
REMARK  6 active torsions:
REMARK  status: ('A' for Active; 'I' for Inactive)
REMARK    1  A    between atoms: C7_8  and  C8_9 
REMARK    2  A    between atoms: C10_13  and  C11_14 
REMARK    3  A    between atoms: N3_20  and  C16_21 
REMARK    4  A    between atoms: C16_21  and  C17_22 
REMARK    5  A    between atoms: C17_22  and  C18_23 
REMARK    6  A    between atoms: C18_23  and  N4_24 
ROOT
HETATM    1  C8  UNL     1      22.091   2.157  51.121  1.00  0.00     0.243 C 
HETATM    2  N1  UNL     1      23.127   2.661  50.177  1.00  0.00    -0.252 NA
HETATM    3  C9  UNL     1      22.969   3.857  49.686  1.00  0.00     0.229 C 
HETATM    4  N2  UNL     1      23.533   4.836  48.825  1.00  0.00    -0.247 NA
HETATM    5  C10 UNL     1      24.142   5.804  49.497  1.00  0.00     0.040 C 
HETATM    6  C13 UNL     1      24.365   6.061  50.948  1.00  0.00     0.087 C 
HETATM    7  C14 UNL     1      23.544   5.207  51.819  1.00  0.00    -0.004 C 
HETATM    8  C15 UNL     1      22.676   4.331  52.323  1.00  0.00     0.084 C 
HETATM    9  N3  UNL     1      21.693   3.404  51.809  1.00  0.00    -0.364 N 
ENDROOT
BRANCH   1  10
HETATM   10  C7  UNL     1      22.792   1.250  52.028  1.00  0.00    -0.007 A 
HETATM   11  C2  UNL     1      22.045   0.306  52.700  1.00  0.00    -0.030 A 
HETATM   12  C1  UNL     1      20.581   0.112  52.591  1.00  0.00     0.050 C 
HETATM   13  C3  UNL     1      22.721  -0.544  53.563  1.00  0.00     0.040 A 
HETATM   14 CL1  UNL     1      21.833  -1.785  54.465  1.00  0.00    -0.084 Cl
HETATM   15  C4  UNL     1      24.097  -0.510  53.797  1.00  0.00     0.024 A 
HETATM   16  C5  UNL     1      24.806   0.455  53.098  1.00  0.00     0.002 A 
HETATM   17  C6  UNL     1      24.149   1.326  52.220  1.00  0.00     0.012 A 
ENDBRANCH   1  10
BRANCH   9  18
HETATM   18  C16 UNL     1      20.258   3.665  51.919  1.00  0.00     0.126 C 
BRANCH  18  19
HETATM   19  C17 UNL     1      19.528   3.220  50.672  1.00  0.00     0.050 C 
BRANCH  19  20
HETATM   20  C18 UNL     1      18.658   4.382  50.232  1.00  0.00     0.277 C 
BRANCH  20  21
HETATM   21  N4  UNL     1      17.232   4.006  50.210  1.00  0.00     0.113 N 
HETATM   22  C19 UNL     1      16.640   4.248  51.501  1.00  0.00     0.301 C 
HETATM   23  C20 UNL     1      15.933   2.966  51.821  1.00  0.00     0.200 C 
HETATM   24  O1  UNL     1      15.978   2.205  50.637  1.00  0.00    -0.361 OA
HETATM   25  C21 UNL     1      17.179   2.578  50.050  1.00  0.00     0.440 C 
ENDBRANCH  20  21
ENDBRANCH  19  20
ENDBRANCH  18  19
ENDBRANCH   9  18
BRANCH   5  26
HETATM   26  C11 UNL     1      24.679   6.735  48.523  1.00  0.00     0.039 C 
HETATM   27  C12 UNL     1      25.971   6.711  48.188  1.00  0.00     0.086 C 
HETATM   28 CL2  UNL     1      27.510   5.931  48.455  1.00  0.00    -0.097 Cl
ENDBRANCH   5  26
TORSDOF 6
ENDMDL
