MODEL 1
REMARK VINA RESULT:      -7.6      0.000      0.000
REMARK  4 active torsions:
REMARK  status: ('A' for Active; 'I' for Inactive)
REMARK    1  A    between atoms: O1_1  and  C1_2 
REMARK    2  A    between atoms: C1_2  and  C2_3 
REMARK    3  A    between atoms: C6_9  and  C7_10 
REMARK    4  A    between atoms: C15_20  and  O2_21 
ROOT
HETATM    1  C2  UNL     1      27.909   0.929  53.903  1.00  0.00     0.001 A 
HETATM    2  C3  UNL     1      26.864   0.079  54.197  1.00  0.00     0.044 A 
HETATM    3  C4  UNL     1      25.622   0.410  53.704  1.00  0.00     0.071 A 
HETATM    4  N1  UNL     1      24.628  -0.451  53.991  1.00  0.00    -0.241 NA
HETATM    5  C5  UNL     1      23.397  -0.181  53.515  1.00  0.00     0.234 A 
HETATM    6  N2  UNL     1      23.154   0.915  52.774  1.00  0.00    -0.241 NA
HETATM    7  C6  UNL     1      24.116   1.822  52.454  1.00  0.00     0.080 A 
HETATM    8  C13 UNL     1      25.369   1.529  52.946  1.00  0.00     0.025 A 
HETATM    9  C14 UNL     1      26.424   2.361  52.664  1.00  0.00     0.053 A 
HETATM   10  C15 UNL     1      27.679   2.050  53.147  1.00  0.00     0.075 A 
ENDROOT
BRANCH   7  11
HETATM   11  C7  UNL     1      23.827   3.020  51.629  1.00  0.00     0.011 A 
HETATM   12  C8  UNL     1      23.712   4.190  52.236  1.00  0.00     0.126 A 
HETATM   13  F1  UNL     1      23.803   4.555  53.534  1.00  0.00    -0.205 F 
HETATM   14  C9  UNL     1      23.441   5.289  51.319  1.00  0.00     0.057 A 
HETATM   15  C10 UNL     1      23.364   4.905  50.055  1.00  0.00    -0.008 A 
HETATM   16 BR1  UNL     1      23.008   6.268  48.739  1.00  0.00    -0.056 Br
HETATM   17  C11 UNL     1      23.482   3.638  49.304  1.00  0.00     0.051 A 
HETATM   18  C12 UNL     1      23.747   2.500  50.252  1.00  0.00     0.049 A 
ENDBRANCH   7  11
BRANCH  10  19
HETATM   19  O2  UNL     1      28.764   2.853  52.891  1.00  0.00    -0.360 OA
HETATM   20  H12 UNL     1      29.691   2.443  52.778  1.00  0.00     0.217 HD
ENDBRANCH  10  19
BRANCH   1  21
HETATM   21  C1  UNL     1      29.274   0.584  54.433  1.00  0.00     0.205 C 
BRANCH  21  22
HETATM   22  O1  UNL     1      30.195   0.471  53.411  1.00  0.00    -0.396 OA
HETATM   23  H1  UNL     1      29.704   0.622  52.548  1.00  0.00     0.209 HD
ENDBRANCH  21  22
ENDBRANCH   1  21
TORSDOF 4
ENDMDL
MODEL 2
REMARK VINA RESULT:      -7.6      4.400      6.372
REMARK  4 active torsions:
REMARK  status: ('A' for Active; 'I' for Inactive)
REMARK    1  A    between atoms: O1_1  and  C1_2 
REMARK    2  A    between atoms: C1_2  and  C2_3 
REMARK    3  A    between atoms: C6_9  and  C7_10 
REMARK    4  A    between atoms: C15_20  and  O2_21 
ROOT
HETATM    1  C2  UNL     1      19.998  -0.331  53.078  1.00  0.00     0.001 A 
HETATM    2  C3  UNL     1      20.046   0.333  51.871  1.00  0.00     0.044 A 
HETATM    3  C4  UNL     1      21.259   0.860  51.487  1.00  0.00     0.071 A 
HETATM    4  N1  UNL     1      21.277   1.484  50.294  1.00  0.00    -0.241 NA
HETATM    5  C5  UNL     1      22.445   1.999  49.865  1.00  0.00     0.234 A 
HETATM    6  N2  UNL     1      23.568   1.903  50.598  1.00  0.00    -0.241 NA
HETATM    7  C6  UNL     1      23.612   1.288  51.811  1.00  0.00     0.080 A 
HETATM    8  C13 UNL     1      22.409   0.763  52.232  1.00  0.00     0.025 A 
HETATM    9  C14 UNL     1      22.340   0.096  53.431  1.00  0.00     0.053 A 
HETATM   10  C15 UNL     1      21.135  -0.441  53.837  1.00  0.00     0.075 A 
ENDROOT
BRANCH   7  11
HETATM   11  C7  UNL     1      24.864   1.185  52.599  1.00  0.00     0.011 A 
HETATM   12  C8  UNL     1      25.171   2.173  53.423  1.00  0.00     0.126 A 
HETATM   13  F1  UNL     1      24.551   3.337  53.722  1.00  0.00    -0.205 F 
HETATM   14  C9  UNL     1      26.415   1.950  54.149  1.00  0.00     0.057 A 
HETATM   15  C10 UNL     1      26.997   0.802  53.842  1.00  0.00    -0.008 A 
HETATM   16 BR1  UNL     1      28.655   0.388  54.735  1.00  0.00    -0.056 Br
HETATM   17  C11 UNL     1      26.722  -0.342  52.949  1.00  0.00     0.051 A 
HETATM   18  C12 UNL     1      25.445  -0.106  52.188  1.00  0.00     0.049 A 
ENDBRANCH   7  11
BRANCH  10  19
HETATM   19  O2  UNL     1      21.017  -1.116  55.028  1.00  0.00    -0.360 OA
HETATM   20  H12 UNL     1      20.460  -1.968  55.082  1.00  0.00     0.217 HD
ENDBRANCH  10  19
BRANCH   1  21
HETATM   21  C1  UNL     1      18.681  -0.913  53.515  1.00  0.00     0.205 C 
BRANCH  21  22
HETATM   22  O1  UNL     1      18.822  -2.225  53.918  1.00  0.00    -0.396 OA
HETATM   23  H1  UNL     1      18.573  -2.806  53.138  1.00  0.00     0.209 HD
ENDBRANCH  21  22
ENDBRANCH   1  21
TORSDOF 4
ENDMDL
MODEL 3
REMARK VINA RESULT:      -7.6      3.072      3.819
REMARK  4 active torsions:
REMARK  status: ('A' for Active; 'I' for Inactive)
REMARK    1  A    between atoms: O1_1  and  C1_2 
REMARK    2  A    between atoms: C1_2  and  C2_3 
REMARK    3  A    between atoms: C6_9  and  C7_10 
REMARK    4  A    between atoms: C15_20  and  O2_21 
ROOT
HETATM    1  C2  UNL     1      28.067  -1.364  53.041  1.00  0.00     0.001 A 
HETATM    2  C3  UNL     1      28.265  -0.107  53.573  1.00  0.00     0.044 A 
HETATM    3  C4  UNL     1      27.203   0.769  53.536  1.00  0.00     0.071 A 
HETATM    4  N1  UNL     1      27.422   1.979  54.082  1.00  0.00    -0.241 NA
HETATM    5  C5  UNL     1      26.408   2.866  54.088  1.00  0.00     0.234 A 
HETATM    6  N2  UNL     1      25.207   2.564  53.565  1.00  0.00    -0.241 NA
HETATM    7  C6  UNL     1      24.927   1.360  52.997  1.00  0.00     0.080 A 
HETATM    8  C13 UNL     1      25.974   0.464  53.003  1.00  0.00     0.025 A 
HETATM    9  C14 UNL     1      25.798  -0.793  52.480  1.00  0.00     0.053 A 
HETATM   10  C15 UNL     1      26.848  -1.689  52.505  1.00  0.00     0.075 A 
ENDROOT
BRANCH   7  11
HETATM   11  C7  UNL     1      23.591   1.045  52.434  1.00  0.00     0.011 A 
HETATM   12  C8  UNL     1      22.790   0.248  53.122  1.00  0.00     0.126 A 
HETATM   13  F1  UNL     1      22.935  -0.388  54.305  1.00  0.00    -0.205 F 
HETATM   14  C9  UNL     1      21.505   0.025  52.471  1.00  0.00     0.057 A 
HETATM   15  C10 UNL     1      21.388   0.664  51.319  1.00  0.00    -0.008 A 
HETATM   16 BR1  UNL     1      19.731   0.450  50.356  1.00  0.00    -0.056 Br
HETATM   17  C11 UNL     1      22.222   1.564  50.494  1.00  0.00     0.051 A 
HETATM   18  C12 UNL     1      23.554   1.783  51.157  1.00  0.00     0.049 A 
ENDBRANCH   7  11
BRANCH  10  19
HETATM   19  O2  UNL     1      26.719  -2.958  51.993  1.00  0.00    -0.360 OA
HETATM   20  H12 UNL     1      27.542  -3.470  51.678  1.00  0.00     0.217 HD
ENDBRANCH  10  19
BRANCH   1  21
HETATM   21  C1  UNL     1      29.216  -2.335  53.071  1.00  0.00     0.205 C 
BRANCH  21  22
HETATM   22  O1  UNL     1      28.817  -3.568  53.546  1.00  0.00    -0.396 OA
HETATM   23  H1  UNL     1      29.085  -4.253  52.862  1.00  0.00     0.209 HD
ENDBRANCH  21  22
ENDBRANCH   1  21
TORSDOF 4
ENDMDL
MODEL 4
REMARK VINA RESULT:      -7.2      3.415      5.785
REMARK  4 active torsions:
REMARK  status: ('A' for Active; 'I' for Inactive)
REMARK    1  A    between atoms: O1_1  and  C1_2 
REMARK    2  A    between atoms: C1_2  and  C2_3 
REMARK    3  A    between atoms: C6_9  and  C7_10 
REMARK    4  A    between atoms: C15_20  and  O2_21 
ROOT
HETATM    1  C2  UNL     1      22.841   3.830  51.461  1.00  0.00     0.001 A 
HETATM    2  C3  UNL     1      21.943   2.907  51.954  1.00  0.00     0.044 A 
HETATM    3  C4  UNL     1      22.460   1.779  52.551  1.00  0.00     0.071 A 
HETATM    4  N1  UNL     1      21.557   0.909  53.041  1.00  0.00    -0.241 NA
HETATM    5  C5  UNL     1      22.013  -0.201  53.652  1.00  0.00     0.234 A 
HETATM    6  N2  UNL     1      23.330  -0.446  53.775  1.00  0.00    -0.241 NA
HETATM    7  C6  UNL     1      24.288   0.393  53.299  1.00  0.00     0.080 A 
HETATM    8  C13 UNL     1      23.804   1.526  52.680  1.00  0.00     0.025 A 
HETATM    9  C14 UNL     1      24.681   2.458  52.183  1.00  0.00     0.053 A 
HETATM   10  C15 UNL     1      24.187   3.598  51.580  1.00  0.00     0.075 A 
ENDROOT
BRANCH   7  11
HETATM   11  C7  UNL     1      25.735   0.107  53.453  1.00  0.00     0.011 A 
HETATM   12  C8  UNL     1      26.444   0.872  54.268  1.00  0.00     0.126 A 
HETATM   13  F1  UNL     1      26.115   1.931  55.040  1.00  0.00    -0.205 F 
HETATM   14  C9  UNL     1      27.847   0.484  54.344  1.00  0.00     0.057 A 
HETATM   15  C10 UNL     1      28.140  -0.558  53.584  1.00  0.00    -0.008 A 
HETATM   16 BR1  UNL     1      29.968  -1.172  53.594  1.00  0.00    -0.056 Br
HETATM   17  C11 UNL     1      27.417  -1.458  52.660  1.00  0.00     0.051 A 
HETATM   18  C12 UNL     1      25.972  -1.049  52.570  1.00  0.00     0.049 A 
ENDBRANCH   7  11
BRANCH  10  19
HETATM   19  O2  UNL     1      25.026   4.558  51.068  1.00  0.00    -0.360 OA
HETATM   20  H12 UNL     1      25.007   4.779  50.073  1.00  0.00     0.217 HD
ENDBRANCH  10  19
BRANCH   1  21
HETATM   21  C1  UNL     1      22.295   5.069  50.804  1.00  0.00     0.205 C 
BRANCH  21  22
HETATM   22  O1  UNL     1      22.497   6.185  51.591  1.00  0.00    -0.396 OA
HETATM   23  H1  UNL     1      21.853   6.127  52.360  1.00  0.00     0.209 HD
ENDBRANCH  21  22
ENDBRANCH   1  21
TORSDOF 4
ENDMDL
MODEL 5
REMARK VINA RESULT:      -7.2      4.152      6.273
REMARK  4 active torsions:
REMARK  status: ('A' for Active; 'I' for Inactive)
REMARK    1  A    between atoms: O1_1  and  C1_2 
REMARK    2  A    between atoms: C1_2  and  C2_3 
REMARK    3  A    between atoms: C6_9  and  C7_10 
REMARK    4  A    between atoms: C15_20  and  O2_21 
ROOT
HETATM    1  C2  UNL     1      21.888   0.489  53.262  1.00  0.00     0.001 A 
HETATM    2  C3  UNL     1      22.082   1.475  52.318  1.00  0.00     0.044 A 
HETATM    3  C4  UNL     1      23.379   1.746  51.943  1.00  0.00     0.071 A 
HETATM    4  N1  UNL     1      23.532   2.699  51.005  1.00  0.00    -0.241 NA
HETATM    5  C5  UNL     1      24.780   2.987  50.591  1.00  0.00     0.234 A 
HETATM    6  N2  UNL     1      25.853   2.351  51.094  1.00  0.00    -0.241 NA
HETATM    7  C6  UNL     1      25.762   1.383  52.045  1.00  0.00     0.080 A 
HETATM    8  C13 UNL     1      24.477   1.098  52.454  1.00  0.00     0.025 A 
HETATM    9  C14 UNL     1      24.262   0.118  53.392  1.00  0.00     0.053 A 
HETATM   10  C15 UNL     1      22.970  -0.172  53.784  1.00  0.00     0.075 A 
ENDROOT
BRANCH   7  11
HETATM   11  C7  UNL     1      26.958   0.687  52.580  1.00  0.00     0.011 A 
HETATM   12  C8  UNL     1      27.868   1.403  53.219  1.00  0.00     0.126 A 
HETATM   13  F1  UNL     1      27.954   2.720  53.508  1.00  0.00    -0.205 F 
HETATM   14  C9  UNL     1      28.986   0.606  53.707  1.00  0.00     0.057 A 
HETATM   15  C10 UNL     1      28.874  -0.680  53.417  1.00  0.00    -0.008 A 
HETATM   16 BR1  UNL     1      30.294  -1.845  54.007  1.00  0.00    -0.056 Br
HETATM   17  C11 UNL     1      27.902  -1.548  52.720  1.00  0.00     0.051 A 
HETATM   18  C12 UNL     1      26.755  -0.724  52.203  1.00  0.00     0.049 A 
ENDBRANCH   7  11
BRANCH  10  19
HETATM   19  O2  UNL     1      22.707  -1.143  54.719  1.00  0.00    -0.360 OA
HETATM   20  H12 UNL     1      23.364  -1.908  54.864  1.00  0.00     0.217 HD
ENDBRANCH  10  19
BRANCH   1  21
HETATM   21  C1  UNL     1      20.478   0.180  53.684  1.00  0.00     0.205 C 
BRANCH  21  22
HETATM   22  O1  UNL     1      20.315   0.342  55.046  1.00  0.00    -0.396 OA
HETATM   23  H1  UNL     1      19.339   0.510  55.212  1.00  0.00     0.209 HD
ENDBRANCH  21  22
ENDBRANCH   1  21
TORSDOF 4
ENDMDL
MODEL 6
REMARK VINA RESULT:      -7.2      3.510      5.787
REMARK  4 active torsions:
REMARK  status: ('A' for Active; 'I' for Inactive)
REMARK    1  A    between atoms: O1_1  and  C1_2 
REMARK    2  A    between atoms: C1_2  and  C2_3 
REMARK    3  A    between atoms: C6_9  and  C7_10 
REMARK    4  A    between atoms: C15_20  and  O2_21 
ROOT
HETATM    1  C2  UNL     1      25.254   4.677  49.625  1.00  0.00     0.001 A 
HETATM    2  C3  UNL     1      24.076   4.322  50.246  1.00  0.00     0.044 A 
HETATM    3  C4  UNL     1      24.131   3.299  51.166  1.00  0.00     0.071 A 
HETATM    4  N1  UNL     1      22.968   2.990  51.771  1.00  0.00    -0.241 NA
HETATM    5  C5  UNL     1      22.974   2.009  52.693  1.00  0.00     0.234 A 
HETATM    6  N2  UNL     1      24.100   1.346  53.009  1.00  0.00    -0.241 NA
HETATM    7  C6  UNL     1      25.303   1.611  52.432  1.00  0.00     0.080 A 
HETATM    8  C13 UNL     1      25.280   2.620  51.493  1.00  0.00     0.025 A 
HETATM    9  C14 UNL     1      26.443   2.991  50.864  1.00  0.00     0.053 A 
HETATM   10  C15 UNL     1      26.414   4.014  49.937  1.00  0.00     0.075 A 
ENDROOT
BRANCH   7  11
HETATM   11  C7  UNL     1      26.535   0.874  52.802  1.00  0.00     0.011 A 
HETATM   12  C8  UNL     1      27.484   1.523  53.457  1.00  0.00     0.126 A 
HETATM   13  F1  UNL     1      27.582   2.800  53.889  1.00  0.00    -0.205 F 
HETATM   14  C9  UNL     1      28.636   0.689  53.775  1.00  0.00     0.057 A 
HETATM   15  C10 UNL     1      28.510  -0.556  53.347  1.00  0.00    -0.008 A 
HETATM   16 BR1  UNL     1      29.972  -1.763  53.704  1.00  0.00    -0.056 Br
HETATM   17  C11 UNL     1      27.498  -1.351  52.622  1.00  0.00     0.051 A 
HETATM   18  C12 UNL     1      26.314  -0.487  52.280  1.00  0.00     0.049 A 
ENDBRANCH   7  11
BRANCH  10  19
HETATM   19  O2  UNL     1      27.551   4.419  49.282  1.00  0.00    -0.360 OA
HETATM   20  H12 UNL     1      28.210   5.048  49.739  1.00  0.00     0.217 HD
ENDBRANCH  10  19
BRANCH   1  21
HETATM   21  C1  UNL     1      25.215   5.792  48.616  1.00  0.00     0.205 C 
BRANCH  21  22
HETATM   22  O1  UNL     1      26.144   6.770  48.912  1.00  0.00    -0.396 OA
HETATM   23  H1  UNL     1      26.370   6.682  49.886  1.00  0.00     0.209 HD
ENDBRANCH  21  22
ENDBRANCH   1  21
TORSDOF 4
ENDMDL
MODEL 7
REMARK VINA RESULT:      -7.1      2.946      3.877
REMARK  4 active torsions:
REMARK  status: ('A' for Active; 'I' for Inactive)
REMARK    1  A    between atoms: O1_1  and  C1_2 
REMARK    2  A    between atoms: C1_2  and  C2_3 
REMARK    3  A    between atoms: C6_9  and  C7_10 
REMARK    4  A    between atoms: C15_20  and  O2_21 
ROOT
HETATM    1  C2  UNL     1      22.759  -0.425  53.937  1.00  0.00     0.001 A 
HETATM    2  C3  UNL     1      24.108  -0.574  53.692  1.00  0.00     0.044 A 
HETATM    3  C4  UNL     1      24.713   0.366  52.890  1.00  0.00     0.071 A 
HETATM    4  N1  UNL     1      26.034   0.204  52.688  1.00  0.00    -0.241 NA
HETATM    5  C5  UNL     1      26.675   1.109  51.925  1.00  0.00     0.234 A 
HETATM    6  N2  UNL     1      26.028   2.150  51.373  1.00  0.00    -0.241 NA
HETATM    7  C6  UNL     1      24.695   2.365  51.538  1.00  0.00     0.080 A 
HETATM    8  C13 UNL     1      24.055   1.431  52.324  1.00  0.00     0.025 A 
HETATM    9  C14 UNL     1      22.712   1.563  52.581  1.00  0.00     0.053 A 
HETATM   10  C15 UNL     1      22.082   0.632  53.383  1.00  0.00     0.075 A 
ENDROOT
BRANCH   7  11
HETATM   11  C7  UNL     1      24.001   3.525  50.926  1.00  0.00     0.011 A 
HETATM   12  C8  UNL     1      23.667   4.540  51.705  1.00  0.00     0.126 A 
HETATM   13  F1  UNL     1      23.828   4.765  53.028  1.00  0.00    -0.205 F 
HETATM   14  C9  UNL     1      23.005   5.621  50.986  1.00  0.00     0.057 A 
HETATM   15  C10 UNL     1      22.866   5.378  49.694  1.00  0.00    -0.008 A 
HETATM   16 BR1  UNL     1      22.001   6.733  48.629  1.00  0.00    -0.056 Br
HETATM   17  C11 UNL     1      23.209   4.287  48.758  1.00  0.00     0.051 A 
HETATM   18  C12 UNL     1      23.880   3.163  49.502  1.00  0.00     0.049 A 
ENDBRANCH   7  11
BRANCH  10  19
HETATM   19  O2  UNL     1      20.741   0.722  53.667  1.00  0.00    -0.360 OA
HETATM   20  H12 UNL     1      20.399   0.504  54.603  1.00  0.00     0.217 HD
ENDBRANCH  10  19
BRANCH   1  21
HETATM   21  C1  UNL     1      22.080  -1.443  54.811  1.00  0.00     0.205 C 
BRANCH  21  22
HETATM   22  O1  UNL     1      22.913  -1.868  55.826  1.00  0.00    -0.396 OA
HETATM   23  H1  UNL     1      22.330  -2.217  56.565  1.00  0.00     0.209 HD
ENDBRANCH  21  22
ENDBRANCH   1  21
TORSDOF 4
ENDMDL
MODEL 8
REMARK VINA RESULT:      -7.1      3.324      4.186
REMARK  4 active torsions:
REMARK  status: ('A' for Active; 'I' for Inactive)
REMARK    1  A    between atoms: O1_1  and  C1_2 
REMARK    2  A    between atoms: C1_2  and  C2_3 
REMARK    3  A    between atoms: C6_9  and  C7_10 
REMARK    4  A    between atoms: C15_20  and  O2_21 
ROOT
HETATM    1  C2  UNL     1      27.220   0.414  53.040  1.00  0.00     0.001 A 
HETATM    2  C3  UNL     1      27.354   1.550  52.270  1.00  0.00     0.044 A 
HETATM    3  C4  UNL     1      26.214   2.056  51.687  1.00  0.00     0.071 A 
HETATM    4  N1  UNL     1      26.375   3.177  50.960  1.00  0.00    -0.241 NA
HETATM    5  C5  UNL     1      25.287   3.722  50.384  1.00  0.00     0.234 A 
HETATM    6  N2  UNL     1      24.068   3.172  50.521  1.00  0.00    -0.241 NA
HETATM    7  C6  UNL     1      23.843   2.039  51.240  1.00  0.00     0.080 A 
HETATM    8  C13 UNL     1      24.966   1.497  51.825  1.00  0.00     0.025 A 
HETATM    9  C14 UNL     1      24.855   0.367  52.597  1.00  0.00     0.053 A 
HETATM   10  C15 UNL     1      25.984  -0.160  53.193  1.00  0.00     0.075 A 
ENDROOT
BRANCH   7  11
HETATM   11  C7  UNL     1      22.488   1.453  51.386  1.00  0.00     0.011 A 
HETATM   12  C8  UNL     1      21.857   1.048  50.296  1.00  0.00     0.126 A 
HETATM   13  F1  UNL     1      22.200   1.055  48.989  1.00  0.00    -0.205 F 
HETATM   14  C9  UNL     1      20.543   0.481  50.571  1.00  0.00     0.057 A 
HETATM   15  C10 UNL     1      20.236   0.480  51.857  1.00  0.00    -0.008 A 
HETATM   16 BR1  UNL     1      18.519  -0.245  52.354  1.00  0.00    -0.056 Br
HETATM   17  C11 UNL     1      20.875   0.904  53.120  1.00  0.00     0.051 A 
HETATM   18  C12 UNL     1      22.226   1.504  52.836  1.00  0.00     0.049 A 
ENDBRANCH   7  11
BRANCH  10  19
HETATM   19  O2  UNL     1      25.921  -1.289  53.973  1.00  0.00    -0.360 OA
HETATM   20  H12 UNL     1      26.490  -1.363  54.816  1.00  0.00     0.217 HD
ENDBRANCH  10  19
BRANCH   1  21
HETATM   21  C1  UNL     1      28.454  -0.155  53.685  1.00  0.00     0.205 C 
BRANCH  21  22
HETATM   22  O1  UNL     1      28.304  -0.254  55.054  1.00  0.00    -0.396 OA
HETATM   23  H1  UNL     1      29.224  -0.254  55.456  1.00  0.00     0.209 HD
ENDBRANCH  21  22
ENDBRANCH   1  21
TORSDOF 4
ENDMDL
MODEL 9
REMARK VINA RESULT:      -7.0      1.844      2.385
REMARK  4 active torsions:
REMARK  status: ('A' for Active; 'I' for Inactive)
REMARK    1  A    between atoms: O1_1  and  C1_2 
REMARK    2  A    between atoms: C1_2  and  C2_3 
REMARK    3  A    between atoms: C6_9  and  C7_10 
REMARK    4  A    between atoms: C15_20  and  O2_21 
ROOT
HETATM    1  C2  UNL     1      25.697   0.600  54.130  1.00  0.00     0.001 A 
HETATM    2  C3  UNL     1      24.594  -0.169  53.826  1.00  0.00     0.044 A 
HETATM    3  C4  UNL     1      23.637   0.394  53.011  1.00  0.00     0.071 A 
HETATM    4  N1  UNL     1      22.583  -0.389  52.715  1.00  0.00    -0.241 NA
HETATM    5  C5  UNL     1      21.629   0.110  51.906  1.00  0.00     0.234 A 
HETATM    6  N2  UNL     1      21.714   1.353  51.401  1.00  0.00    -0.241 NA
HETATM    7  C6  UNL     1      22.752   2.191  51.666  1.00  0.00     0.080 A 
HETATM    8  C13 UNL     1      23.720   1.664  52.493  1.00  0.00     0.025 A 
HETATM    9  C14 UNL     1      24.828   2.412  52.807  1.00  0.00     0.053 A 
HETATM   10  C15 UNL     1      25.801   1.869  53.623  1.00  0.00     0.075 A 
ENDROOT
BRANCH   7  11
HETATM   11  C7  UNL     1      22.829   3.557  51.092  1.00  0.00     0.011 A 
HETATM   12  C8  UNL     1      23.518   3.732  49.976  1.00  0.00     0.126 A 
HETATM   13  F1  UNL     1      24.217   2.880  49.193  1.00  0.00    -0.205 F 
HETATM   14  C9  UNL     1      23.509   5.111  49.506  1.00  0.00     0.057 A 
HETATM   15  C10 UNL     1      22.813   5.922  50.286  1.00  0.00    -0.008 A 
HETATM   16 BR1  UNL     1      22.724   7.779  49.773  1.00  0.00    -0.056 Br
HETATM   17  C11 UNL     1      22.023   5.808  51.529  1.00  0.00     0.051 A 
HETATM   18  C12 UNL     1      22.044   4.387  52.024  1.00  0.00     0.049 A 
ENDBRANCH   7  11
BRANCH  10  19
HETATM   19  O2  UNL     1      26.927   2.579  53.965  1.00  0.00    -0.360 OA
HETATM   20  H12 UNL     1      26.861   3.366  54.610  1.00  0.00     0.217 HD
ENDBRANCH  10  19
BRANCH   1  21
HETATM   21  C1  UNL     1      26.753   0.002  55.020  1.00  0.00     0.205 C 
BRANCH  21  22
HETATM   22  O1  UNL     1      27.857  -0.394  54.292  1.00  0.00    -0.396 OA
HETATM   23  H1  UNL     1      28.592   0.263  54.483  1.00  0.00     0.209 HD
ENDBRANCH  21  22
ENDBRANCH   1  21
TORSDOF 4
ENDMDL
