MODEL 1
REMARK VINA RESULT:      -7.6      0.000      0.000
REMARK  4 active torsions:
REMARK  status: ('A' for Active; 'I' for Inactive)
REMARK    1  A    between atoms: C1_2  and  N1_3 
REMARK    2  A    between atoms: N1_3  and  C2_4 
REMARK    3  A    between atoms: C7_11  and  N4_12 
REMARK    4  A    between atoms: N4_12  and  C8_13 
ROOT
HETATM    1  C2  UNL     1      24.357  -0.432  53.566  1.00  0.00     0.029 A 
HETATM    2  C3  UNL     1      24.932  -0.622  54.821  1.00  0.00     0.031 A 
HETATM    3  C4  UNL     1      26.116  -0.005  55.096  1.00  0.00     0.035 A 
HETATM    4  C5  UNL     1      26.807   0.805  54.224  1.00  0.00     0.072 A 
HETATM    5  N2  UNL     1      27.980   1.404  54.514  1.00  0.00    -0.241 NA
HETATM    6  C6  UNL     1      28.616   2.189  53.613  1.00  0.00     0.236 A 
HETATM    7  N3  UNL     1      28.063   2.375  52.399  1.00  0.00    -0.224 NA
HETATM    8  C7  UNL     1      26.882   1.785  52.074  1.00  0.00     0.142 A 
HETATM    9  C14 UNL     1      26.210   0.975  52.982  1.00  0.00     0.041 A 
HETATM   10  C15 UNL     1      24.998   0.367  52.647  1.00  0.00     0.046 A 
ENDROOT
BRANCH   8  11
HETATM   11  N4  UNL     1      26.332   2.020  50.762  1.00  0.00    -0.340 N 
HETATM   12  H7  UNL     1      26.218   1.363  49.965  1.00  0.00     0.167 HD
BRANCH  11  13
HETATM   13  C8  UNL     1      25.872   3.353  50.516  1.00  0.00     0.035 A 
HETATM   14  C9  UNL     1      24.713   3.880  51.043  1.00  0.00     0.029 A 
HETATM   15  C10 UNL     1      24.309   5.169  50.769  1.00  0.00     0.004 A 
HETATM   16  C11 UNL     1      25.056   5.996  49.948  1.00  0.00     0.019 A 
HETATM   17  C12 UNL     1      26.228   5.531  49.389  1.00  0.00     0.013 A 
HETATM   18 BR1  UNL     1      27.342   6.573  48.241  1.00  0.00    -0.051 Br
HETATM   19  C13 UNL     1      26.578   4.241  49.696  1.00  0.00     0.048 A 
ENDBRANCH  11  13
ENDBRANCH   8  11
BRANCH   1  20
HETATM   20  N1  UNL     1      23.123  -1.071  53.265  1.00  0.00    -0.377 N 
HETATM   21  H3  UNL     1      22.902  -1.322  52.278  1.00  0.00     0.160 HD
BRANCH  20  22
HETATM   22  C1  UNL     1      22.186  -1.368  54.327  1.00  0.00     0.235 C 
HETATM   23 CL1  UNL     1      21.216   0.051  54.771  1.00  0.00    -0.109 Cl
ENDBRANCH  20  22
ENDBRANCH   1  20
TORSDOF 4
ENDMDL
MODEL 2
REMARK VINA RESULT:      -7.3      3.020      5.040
REMARK  4 active torsions:
REMARK  status: ('A' for Active; 'I' for Inactive)
REMARK    1  A    between atoms: C1_2  and  N1_3 
REMARK    2  A    between atoms: N1_3  and  C2_4 
REMARK    3  A    between atoms: C7_11  and  N4_12 
REMARK    4  A    between atoms: N4_12  and  C8_13 
ROOT
HETATM    1  C2  UNL     1      21.938   0.503  53.081  1.00  0.00     0.029 A 
HETATM    2  C3  UNL     1      21.236   0.439  51.880  1.00  0.00     0.031 A 
HETATM    3  C4  UNL     1      21.744   1.083  50.792  1.00  0.00     0.035 A 
HETATM    4  C5  UNL     1      22.915   1.806  50.776  1.00  0.00     0.072 A 
HETATM    5  N2  UNL     1      23.400   2.439  49.689  1.00  0.00    -0.241 NA
HETATM    6  C6  UNL     1      24.558   3.140  49.735  1.00  0.00     0.236 A 
HETATM    7  N3  UNL     1      25.240   3.204  50.895  1.00  0.00    -0.224 NA
HETATM    8  C7  UNL     1      24.778   2.578  52.009  1.00  0.00     0.142 A 
HETATM    9  C14 UNL     1      23.592   1.853  51.988  1.00  0.00     0.041 A 
HETATM   10  C15 UNL     1      23.118   1.211  53.134  1.00  0.00     0.046 A 
ENDROOT
BRANCH   8  11
HETATM   11  N4  UNL     1      25.548   2.675  53.224  1.00  0.00    -0.340 N 
HETATM   12  H7  UNL     1      25.386   3.262  54.066  1.00  0.00     0.167 HD
BRANCH  11  13
HETATM   13  C8  UNL     1      26.711   1.843  53.285  1.00  0.00     0.035 A 
HETATM   14  C9  UNL     1      27.973   2.300  53.600  1.00  0.00     0.029 A 
HETATM   15  C10 UNL     1      29.064   1.458  53.639  1.00  0.00     0.004 A 
HETATM   16  C11 UNL     1      28.938   0.107  53.363  1.00  0.00     0.019 A 
HETATM   17  C12 UNL     1      27.703  -0.416  53.041  1.00  0.00     0.013 A 
HETATM   18 BR1  UNL     1      27.402  -2.258  52.639  1.00  0.00    -0.051 Br
HETATM   19  C13 UNL     1      26.655   0.470  53.018  1.00  0.00     0.048 A 
ENDBRANCH  11  13
ENDBRANCH   8  11
BRANCH   1  20
HETATM   20  N1  UNL     1      21.418  -0.163  54.225  1.00  0.00    -0.377 N 
HETATM   21  H3  UNL     1      20.711   0.317  54.821  1.00  0.00     0.160 HD
BRANCH  20  22
HETATM   22  C1  UNL     1      21.873  -1.497  54.553  1.00  0.00     0.235 C 
HETATM   23 CL1  UNL     1      23.380  -1.472  55.489  1.00  0.00    -0.109 Cl
ENDBRANCH  20  22
ENDBRANCH   1  20
TORSDOF 4
ENDMDL
MODEL 3
REMARK VINA RESULT:      -7.3      1.809      2.372
REMARK  4 active torsions:
REMARK  status: ('A' for Active; 'I' for Inactive)
REMARK    1  A    between atoms: C1_2  and  N1_3 
REMARK    2  A    between atoms: N1_3  and  C2_4 
REMARK    3  A    between atoms: C7_11  and  N4_12 
REMARK    4  A    between atoms: N4_12  and  C8_13 
ROOT
HETATM    1  C2  UNL     1      22.165  -0.805  54.531  1.00  0.00     0.029 A 
HETATM    2  C3  UNL     1      22.963  -1.414  55.497  1.00  0.00     0.031 A 
HETATM    3  C4  UNL     1      24.317  -1.291  55.397  1.00  0.00     0.035 A 
HETATM    4  C5  UNL     1      24.977  -0.603  54.405  1.00  0.00     0.072 A 
HETATM    5  N2  UNL     1      26.319  -0.494  54.323  1.00  0.00    -0.241 NA
HETATM    6  C6  UNL     1      26.913   0.195  53.320  1.00  0.00     0.236 A 
HETATM    7  N3  UNL     1      26.145   0.785  52.384  1.00  0.00    -0.224 NA
HETATM    8  C7  UNL     1      24.790   0.695  52.438  1.00  0.00     0.142 A 
HETATM    9  C14 UNL     1      24.156  -0.007  53.457  1.00  0.00     0.041 A 
HETATM   10  C15 UNL     1      22.763  -0.101  53.510  1.00  0.00     0.046 A 
ENDROOT
BRANCH   8  11
HETATM   11  N4  UNL     1      24.014   1.348  51.413  1.00  0.00    -0.340 N 
HETATM   12  H7  UNL     1      23.456   0.934  50.640  1.00  0.00     0.167 HD
BRANCH  11  13
HETATM   13  C8  UNL     1      24.008   2.779  51.462  1.00  0.00     0.035 A 
HETATM   14  C9  UNL     1      23.355   3.516  52.427  1.00  0.00     0.029 A 
HETATM   15  C10 UNL     1      23.373   4.893  52.427  1.00  0.00     0.004 A 
HETATM   16  C11 UNL     1      24.053   5.602  51.451  1.00  0.00     0.019 A 
HETATM   17  C12 UNL     1      24.728   4.926  50.456  1.00  0.00     0.013 A 
HETATM   18 BR1  UNL     1      25.699   5.789  49.057  1.00  0.00    -0.051 Br
HETATM   19  C13 UNL     1      24.674   3.556  50.508  1.00  0.00     0.048 A 
ENDBRANCH  11  13
ENDBRANCH   8  11
BRANCH   1  20
HETATM   20  N1  UNL     1      20.752  -0.928  54.621  1.00  0.00    -0.377 N 
HETATM   21  H3  UNL     1      20.324  -1.307  55.493  1.00  0.00     0.160 HD
BRANCH  20  22
HETATM   22  C1  UNL     1      19.919  -0.528  53.507  1.00  0.00     0.235 C 
HETATM   23 CL1  UNL     1      18.416  -1.469  53.432  1.00  0.00    -0.109 Cl
ENDBRANCH  20  22
ENDBRANCH   1  20
TORSDOF 4
ENDMDL
MODEL 4
REMARK VINA RESULT:      -7.2      2.625      4.454
REMARK  4 active torsions:
REMARK  status: ('A' for Active; 'I' for Inactive)
REMARK    1  A    between atoms: C1_2  and  N1_3 
REMARK    2  A    between atoms: N1_3  and  C2_4 
REMARK    3  A    between atoms: C7_11  and  N4_12 
REMARK    4  A    between atoms: N4_12  and  C8_13 
ROOT
HETATM    1  C2  UNL     1      25.090  -0.641  54.316  1.00  0.00     0.029 A 
HETATM    2  C3  UNL     1      24.473  -1.237  55.413  1.00  0.00     0.031 A 
HETATM    3  C4  UNL     1      23.112  -1.297  55.443  1.00  0.00     0.035 A 
HETATM    4  C5  UNL     1      22.277  -0.810  54.463  1.00  0.00     0.072 A 
HETATM    5  N2  UNL     1      20.931  -0.877  54.512  1.00  0.00    -0.241 NA
HETATM    6  C6  UNL     1      20.161  -0.377  53.517  1.00  0.00     0.236 A 
HETATM    7  N3  UNL     1      20.754   0.200  52.454  1.00  0.00    -0.224 NA
HETATM    8  C7  UNL     1      22.108   0.284  52.374  1.00  0.00     0.142 A 
HETATM    9  C14 UNL     1      22.921  -0.222  53.382  1.00  0.00     0.041 A 
HETATM   10  C15 UNL     1      24.312  -0.133  53.300  1.00  0.00     0.046 A 
ENDROOT
BRANCH   8  11
HETATM   11  N4  UNL     1      22.693   0.907  51.213  1.00  0.00    -0.340 N 
HETATM   12  H7  UNL     1      22.916   0.500  50.283  1.00  0.00     0.167 HD
BRANCH  11  13
HETATM   13  C8  UNL     1      23.016   2.295  51.356  1.00  0.00     0.035 A 
HETATM   14  C9  UNL     1      22.361   3.157  52.210  1.00  0.00     0.029 A 
HETATM   15  C10 UNL     1      22.706   4.487  52.305  1.00  0.00     0.004 A 
HETATM   16  C11 UNL     1      23.732   5.020  51.544  1.00  0.00     0.019 A 
HETATM   17  C12 UNL     1      24.429   4.212  50.669  1.00  0.00     0.013 A 
HETATM   18 BR1  UNL     1      25.860   4.828  49.566  1.00  0.00    -0.051 Br
HETATM   19  C13 UNL     1      24.041   2.897  50.617  1.00  0.00     0.048 A 
ENDBRANCH  11  13
ENDBRANCH   8  11
BRANCH   1  20
HETATM   20  N1  UNL     1      26.510  -0.570  54.273  1.00  0.00    -0.377 N 
HETATM   21  H3  UNL     1      27.042  -0.392  55.151  1.00  0.00     0.160 HD
BRANCH  20  22
HETATM   22  C1  UNL     1      27.204  -0.744  53.015  1.00  0.00     0.235 C 
HETATM   23 CL1  UNL     1      27.002  -2.384  52.368  1.00  0.00    -0.109 Cl
ENDBRANCH  20  22
ENDBRANCH   1  20
TORSDOF 4
ENDMDL
MODEL 5
REMARK VINA RESULT:      -7.2      2.822      4.245
REMARK  4 active torsions:
REMARK  status: ('A' for Active; 'I' for Inactive)
REMARK    1  A    between atoms: C1_2  and  N1_3 
REMARK    2  A    between atoms: N1_3  and  C2_4 
REMARK    3  A    between atoms: C7_11  and  N4_12 
REMARK    4  A    between atoms: N4_12  and  C8_13 
ROOT
HETATM    1  C2  UNL     1      26.525   1.075  53.898  1.00  0.00     0.029 A 
HETATM    2  C3  UNL     1      26.013  -0.220  53.866  1.00  0.00     0.031 A 
HETATM    3  C4  UNL     1      24.741  -0.408  53.416  1.00  0.00     0.035 A 
HETATM    4  C5  UNL     1      23.900   0.591  52.982  1.00  0.00     0.072 A 
HETATM    5  N2  UNL     1      22.642   0.385  52.543  1.00  0.00    -0.241 NA
HETATM    6  C6  UNL     1      21.858   1.409  52.131  1.00  0.00     0.236 A 
HETATM    7  N3  UNL     1      22.350   2.663  52.160  1.00  0.00    -0.224 NA
HETATM    8  C7  UNL     1      23.613   2.906  52.597  1.00  0.00     0.142 A 
HETATM    9  C14 UNL     1      24.437   1.871  53.026  1.00  0.00     0.041 A 
HETATM   10  C15 UNL     1      25.735   2.121  53.477  1.00  0.00     0.046 A 
ENDROOT
BRANCH   8  11
HETATM   11  N4  UNL     1      24.091   4.266  52.605  1.00  0.00    -0.340 N 
HETATM   12  H7  UNL     1      24.314   4.885  53.409  1.00  0.00     0.167 HD
BRANCH  11  13
HETATM   13  C8  UNL     1      24.291   4.857  51.316  1.00  0.00     0.035 A 
HETATM   14  C9  UNL     1      25.117   4.332  50.345  1.00  0.00     0.029 A 
HETATM   15  C10 UNL     1      25.281   4.944  49.121  1.00  0.00     0.004 A 
HETATM   16  C11 UNL     1      24.617   6.119  48.811  1.00  0.00     0.019 A 
HETATM   17  C12 UNL     1      23.774   6.696  49.737  1.00  0.00     0.013 A 
HETATM   18 BR1  UNL     1      22.807   8.313  49.429  1.00  0.00    -0.051 Br
HETATM   19  C13 UNL     1      23.652   6.043  50.937  1.00  0.00     0.048 A 
ENDBRANCH  11  13
ENDBRANCH   8  11
BRANCH   1  20
HETATM   20  N1  UNL     1      27.850   1.286  54.366  1.00  0.00    -0.377 N 
HETATM   21  H3  UNL     1      28.243   2.251  54.381  1.00  0.00     0.160 HD
BRANCH  20  22
HETATM   22  C1  UNL     1      28.644   0.163  54.819  1.00  0.00     0.235 C 
HETATM   23 CL1  UNL     1      29.769  -0.401  53.567  1.00  0.00    -0.109 Cl
ENDBRANCH  20  22
ENDBRANCH   1  20
TORSDOF 4
ENDMDL
MODEL 6
REMARK VINA RESULT:      -7.1      3.613      6.661
REMARK  4 active torsions:
REMARK  status: ('A' for Active; 'I' for Inactive)
REMARK    1  A    between atoms: C1_2  and  N1_3 
REMARK    2  A    between atoms: N1_3  and  C2_4 
REMARK    3  A    between atoms: C7_11  and  N4_12 
REMARK    4  A    between atoms: N4_12  and  C8_13 
ROOT
HETATM    1  C2  UNL     1      24.953   3.804  50.166  1.00  0.00     0.029 A 
HETATM    2  C3  UNL     1      24.126   3.760  49.046  1.00  0.00     0.031 A 
HETATM    3  C4  UNL     1      23.075   2.893  49.045  1.00  0.00     0.035 A 
HETATM    4  C5  UNL     1      22.752   2.040  50.076  1.00  0.00     0.072 A 
HETATM    5  N2  UNL     1      21.709   1.187  50.056  1.00  0.00    -0.241 NA
HETATM    6  C6  UNL     1      21.443   0.367  51.100  1.00  0.00     0.236 A 
HETATM    7  N3  UNL     1      22.241   0.407  52.185  1.00  0.00    -0.224 NA
HETATM    8  C7  UNL     1      23.301   1.255  52.238  1.00  0.00     0.142 A 
HETATM    9  C14 UNL     1      23.595   2.106  51.178  1.00  0.00     0.041 A 
HETATM   10  C15 UNL     1      24.687   2.976  51.232  1.00  0.00     0.046 A 
ENDROOT
BRANCH   8  11
HETATM   11  N4  UNL     1      24.121   1.261  53.423  1.00  0.00    -0.340 N 
HETATM   12  H7  UNL     1      23.953   1.714  54.343  1.00  0.00     0.167 HD
BRANCH  11  13
HETATM   13  C8  UNL     1      25.352   0.536  53.325  1.00  0.00     0.035 A 
HETATM   14  C9  UNL     1      25.458  -0.744  52.824  1.00  0.00     0.029 A 
HETATM   15  C10 UNL     1      26.666  -1.402  52.757  1.00  0.00     0.004 A 
HETATM   16  C11 UNL     1      27.835  -0.802  53.192  1.00  0.00     0.019 A 
HETATM   17  C12 UNL     1      27.801   0.478  53.704  1.00  0.00     0.013 A 
HETATM   18 BR1  UNL     1      29.343   1.410  54.336  1.00  0.00    -0.051 Br
HETATM   19  C13 UNL     1      26.570   1.083  53.746  1.00  0.00     0.048 A 
ENDBRANCH  11  13
ENDBRANCH   8  11
BRANCH   1  20
HETATM   20  N1  UNL     1      26.055   4.703  50.178  1.00  0.00    -0.377 N 
HETATM   21  H3  UNL     1      26.581   4.859  51.065  1.00  0.00     0.160 HD
BRANCH  20  22
HETATM   22  C1  UNL     1      26.438   5.393  48.966  1.00  0.00     0.235 C 
HETATM   23 CL1  UNL     1      28.125   5.067  48.522  1.00  0.00    -0.109 Cl
ENDBRANCH  20  22
ENDBRANCH   1  20
TORSDOF 4
ENDMDL
MODEL 7
REMARK VINA RESULT:      -6.9      3.827      5.925
REMARK  4 active torsions:
REMARK  status: ('A' for Active; 'I' for Inactive)
REMARK    1  A    between atoms: C1_2  and  N1_3 
REMARK    2  A    between atoms: N1_3  and  C2_4 
REMARK    3  A    between atoms: C7_11  and  N4_12 
REMARK    4  A    between atoms: N4_12  and  C8_13 
ROOT
HETATM    1  C2  UNL     1      26.048   2.072  53.278  1.00  0.00     0.029 A 
HETATM    2  C3  UNL     1      26.999   2.082  52.259  1.00  0.00     0.031 A 
HETATM    3  C4  UNL     1      26.621   2.498  51.018  1.00  0.00     0.035 A 
HETATM    4  C5  UNL     1      25.356   2.918  50.676  1.00  0.00     0.072 A 
HETATM    5  N2  UNL     1      25.000   3.325  49.440  1.00  0.00    -0.241 NA
HETATM    6  C6  UNL     1      23.737   3.725  49.162  1.00  0.00     0.236 A 
HETATM    7  N3  UNL     1      22.815   3.717  50.145  1.00  0.00    -0.224 NA
HETATM    8  C7  UNL     1      23.140   3.314  51.401  1.00  0.00     0.142 A 
HETATM    9  C14 UNL     1      24.430   2.898  51.711  1.00  0.00     0.041 A 
HETATM   10  C15 UNL     1      24.763   2.481  53.002  1.00  0.00     0.046 A 
ENDROOT
BRANCH   8  11
HETATM   11  N4  UNL     1      22.117   3.328  52.416  1.00  0.00    -0.340 N 
HETATM   12  H7  UNL     1      21.923   4.037  53.151  1.00  0.00     0.167 HD
BRANCH  11  13
HETATM   13  C8  UNL     1      21.234   2.201  52.418  1.00  0.00     0.035 A 
HETATM   14  C9  UNL     1      20.047   2.149  51.719  1.00  0.00     0.029 A 
HETATM   15  C10 UNL     1      19.227   1.042  51.759  1.00  0.00     0.004 A 
HETATM   16  C11 UNL     1      19.564  -0.074  52.506  1.00  0.00     0.019 A 
HETATM   17  C12 UNL     1      20.739  -0.088  53.228  1.00  0.00     0.013 A 
HETATM   18 BR1  UNL     1      21.311  -1.564  54.296  1.00  0.00    -0.051 Br
HETATM   19  C13 UNL     1      21.513   1.042  53.151  1.00  0.00     0.048 A 
ENDBRANCH  11  13
ENDBRANCH   8  11
BRANCH   1  20
HETATM   20  N1  UNL     1      26.429   1.638  54.577  1.00  0.00    -0.377 N 
HETATM   21  H3  UNL     1      26.476   2.329  55.356  1.00  0.00     0.160 HD
BRANCH  20  22
HETATM   22  C1  UNL     1      26.748   0.246  54.809  1.00  0.00     0.235 C 
HETATM   23 CL1  UNL     1      25.585  -0.841  54.023  1.00  0.00    -0.109 Cl
ENDBRANCH  20  22
ENDBRANCH   1  20
TORSDOF 4
ENDMDL
MODEL 8
REMARK VINA RESULT:      -6.7      3.130      3.963
REMARK  4 active torsions:
REMARK  status: ('A' for Active; 'I' for Inactive)
REMARK    1  A    between atoms: C1_2  and  N1_3 
REMARK    2  A    between atoms: N1_3  and  C2_4 
REMARK    3  A    between atoms: C7_11  and  N4_12 
REMARK    4  A    between atoms: N4_12  and  C8_13 
ROOT
HETATM    1  C2  UNL     1      20.806  -0.361  53.919  1.00  0.00     0.029 A 
HETATM    2  C3  UNL     1      21.681  -1.287  54.481  1.00  0.00     0.031 A 
HETATM    3  C4  UNL     1      23.019  -1.132  54.270  1.00  0.00     0.035 A 
HETATM    4  C5  UNL     1      23.592  -0.118  53.537  1.00  0.00     0.072 A 
HETATM    5  N2  UNL     1      24.918   0.017  53.338  1.00  0.00    -0.241 NA
HETATM    6  C6  UNL     1      25.424   1.035  52.603  1.00  0.00     0.236 A 
HETATM    7  N3  UNL     1      24.581   1.933  52.059  1.00  0.00    -0.224 NA
HETATM    8  C7  UNL     1      23.238   1.826  52.239  1.00  0.00     0.142 A 
HETATM    9  C14 UNL     1      22.694   0.790  52.989  1.00  0.00     0.041 A 
HETATM   10  C15 UNL     1      21.314   0.679  53.173  1.00  0.00     0.046 A 
ENDROOT
BRANCH   8  11
HETATM   11  N4  UNL     1      22.380   2.816  51.638  1.00  0.00    -0.340 N 
HETATM   12  H7  UNL     1      21.813   3.562  52.087  1.00  0.00     0.167 HD
BRANCH  11  13
HETATM   13  C8  UNL     1      22.292   2.769  50.210  1.00  0.00     0.035 A 
HETATM   14  C9  UNL     1      22.089   1.614  49.485  1.00  0.00     0.029 A 
HETATM   15  C10 UNL     1      22.019   1.621  48.109  1.00  0.00     0.004 A 
HETATM   16  C11 UNL     1      22.148   2.797  47.390  1.00  0.00     0.019 A 
HETATM   17  C12 UNL     1      22.351   3.989  48.052  1.00  0.00     0.013 A 
HETATM   18 BR1  UNL     1      22.546   5.672  47.173  1.00  0.00    -0.051 Br
HETATM   19  C13 UNL     1      22.414   3.920  49.421  1.00  0.00     0.048 A 
ENDBRANCH  11  13
ENDBRANCH   8  11
BRANCH   1  20
HETATM   20  N1  UNL     1      19.408  -0.512  54.128  1.00  0.00    -0.377 N 
HETATM   21  H3  UNL     1      18.980  -0.166  55.013  1.00  0.00     0.160 HD
BRANCH  20  22
HETATM   22  C1  UNL     1      18.590  -1.144  53.115  1.00  0.00     0.235 C 
HETATM   23 CL1  UNL     1      17.890  -2.672  53.687  1.00  0.00    -0.109 Cl
ENDBRANCH  20  22
ENDBRANCH   1  20
TORSDOF 4
ENDMDL
MODEL 9
REMARK VINA RESULT:      -6.6      4.129      7.631
REMARK  4 active torsions:
REMARK  status: ('A' for Active; 'I' for Inactive)
REMARK    1  A    between atoms: C1_2  and  N1_3 
REMARK    2  A    between atoms: N1_3  and  C2_4 
REMARK    3  A    between atoms: C7_11  and  N4_12 
REMARK    4  A    between atoms: N4_12  and  C8_13 
ROOT
HETATM    1  C2  UNL     1      25.814   6.661  49.216  1.00  0.00     0.029 A 
HETATM    2  C3  UNL     1      25.027   6.906  48.092  1.00  0.00     0.031 A 
HETATM    3  C4  UNL     1      23.833   6.259  47.978  1.00  0.00     0.035 A 
HETATM    4  C5  UNL     1      23.326   5.368  48.894  1.00  0.00     0.072 A 
HETATM    5  N2  UNL     1      22.142   4.736  48.762  1.00  0.00    -0.241 NA
HETATM    6  C6  UNL     1      21.696   3.864  49.697  1.00  0.00     0.236 A 
HETATM    7  N3  UNL     1      22.453   3.625  50.785  1.00  0.00    -0.224 NA
HETATM    8  C7  UNL     1      23.651   4.245  50.950  1.00  0.00     0.142 A 
HETATM    9  C14 UNL     1      24.131   5.143  50.004  1.00  0.00     0.041 A 
HETATM   10  C15 UNL     1      25.364   5.778  50.172  1.00  0.00     0.046 A 
ENDROOT
BRANCH   8  11
HETATM   11  N4  UNL     1      24.421   3.956  52.134  1.00  0.00    -0.340 N 
HETATM   12  H7  UNL     1      24.736   4.594  52.891  1.00  0.00     0.167 HD
BRANCH  11  13
HETATM   13  C8  UNL     1      24.811   2.588  52.297  1.00  0.00     0.035 A 
HETATM   14  C9  UNL     1      25.991   2.059  51.817  1.00  0.00     0.029 A 
HETATM   15  C10 UNL     1      26.318   0.733  51.994  1.00  0.00     0.004 A 
HETATM   16  C11 UNL     1      25.471  -0.132  52.666  1.00  0.00     0.019 A 
HETATM   17  C12 UNL     1      24.276   0.332  53.172  1.00  0.00     0.013 A 
HETATM   18 BR1  UNL     1      23.025  -0.761  54.114  1.00  0.00    -0.051 Br
HETATM   19  C13 UNL     1      24.004   1.661  52.965  1.00  0.00     0.048 A 
ENDBRANCH  11  13
ENDBRANCH   8  11
BRANCH   1  20
HETATM   20  N1  UNL     1      27.063   7.327  49.347  1.00  0.00    -0.377 N 
HETATM   21  H3  UNL     1      27.192   8.034  50.102  1.00  0.00     0.160 HD
BRANCH  20  22
HETATM   22  C1  UNL     1      28.144   7.021  48.434  1.00  0.00     0.235 C 
HETATM   23 CL1  UNL     1      28.448   5.275  48.329  1.00  0.00    -0.109 Cl
ENDBRANCH  20  22
ENDBRANCH   1  20
TORSDOF 4
ENDMDL
