MODEL 1
REMARK VINA RESULT:      -9.3      0.000      0.000
REMARK  7 active torsions:
REMARK  status: ('A' for Active; 'I' for Inactive)
REMARK    1  A    between atoms: C4_6  and  N3_7 
REMARK    2  A    between atoms: N3_7  and  C5_8 
REMARK    3  A    between atoms: C8_11  and  C9_12 
REMARK    4  A    between atoms: C14_18  and  O1_19 
REMARK    5  A    between atoms: C17_23  and  C18_24 
REMARK    6  A    between atoms: C19_25  and  C20_26 
REMARK    7  A    between atoms: C20_26  and  N4_27 
ROOT
HETATM    1  N3  UNL     1      22.801   5.360  52.298  1.00  0.00    -0.340 N 
HETATM    2  H5  UNL     1      22.788   5.766  53.264  1.00  0.00     0.167 HD
ENDROOT
BRANCH   1   3
HETATM    3  C4  UNL     1      21.881   5.833  51.325  1.00  0.00     0.150 A 
HETATM    4  N2  UNL     1      22.049   7.013  50.721  1.00  0.00    -0.223 NA
HETATM    5  C3  UNL     1      21.172   7.442  49.810  1.00  0.00     0.235 A 
HETATM    6  N1  UNL     1      20.110   6.681  49.499  1.00  0.00    -0.245 NA
HETATM    7  C2  UNL     1      19.895   5.494  50.073  1.00  0.00     0.054 A 
HETATM    8  C1  UNL     1      18.702   4.720  49.668  1.00  0.00     0.072 C 
HETATM    9  C17 UNL     1      20.793   5.052  51.005  1.00  0.00     0.088 A 
BRANCH   9  10
HETATM   10  C18 UNL     1      20.519   3.770  51.608  1.00  0.00    -0.059 C 
HETATM   11  C19 UNL     1      20.286   2.699  52.108  1.00  0.00    -0.071 C 
BRANCH  11  12
HETATM   12  C20 UNL     1      20.015   1.380  52.709  1.00  0.00     0.366 C 
BRANCH  12  13
HETATM   13  N4  UNL     1      21.188   0.785  53.305  1.00  0.00     0.103 N 
HETATM   14  C21 UNL     1      20.794   0.184  54.564  1.00  0.00     0.299 C 
HETATM   15  C22 UNL     1      21.721  -0.955  54.957  1.00  0.00     0.198 C 
HETATM   16  O2  UNL     1      23.001  -0.754  54.455  1.00  0.00    -0.388 OA
HETATM   17  C23 UNL     1      22.979  -0.826  53.084  1.00  0.00     0.198 C 
HETATM   18  C24 UNL     1      21.692  -0.316  52.485  1.00  0.00     0.299 C 
ENDBRANCH  12  13
ENDBRANCH  11  12
ENDBRANCH   9  10
ENDBRANCH   1   3
BRANCH   1  19
HETATM   19  C5  UNL     1      23.790   4.355  52.151  1.00  0.00     0.035 A 
HETATM   20  C6  UNL     1      24.064   3.391  53.106  1.00  0.00     0.030 A 
HETATM   21  C7  UNL     1      25.030   2.436  52.955  1.00  0.00     0.012 A 
HETATM   22  C8  UNL     1      25.806   2.378  51.816  1.00  0.00    -0.022 A 
HETATM   23  C15 UNL     1      25.582   3.313  50.826  1.00  0.00     0.043 A 
HETATM   24 CL1  UNL     1      26.554   3.258  49.371  1.00  0.00    -0.084 Cl
HETATM   25  C16 UNL     1      24.591   4.252  51.036  1.00  0.00     0.054 A 
BRANCH  22  26
HETATM   26  C9  UNL     1      26.855   1.331  51.688  1.00  0.00     0.102 C 
HETATM   27  C10 UNL     1      26.171   0.013  51.958  1.00  0.00    -0.014 C 
HETATM   28  C11 UNL     1      26.726  -0.875  52.768  1.00  0.00    -0.023 C 
HETATM   29  C12 UNL     1      28.010  -0.747  53.497  1.00  0.00     0.099 C 
HETATM   30  C13 UNL     1      28.443   0.650  53.516  1.00  0.00     0.127 C 
HETATM   31  F1  UNL     1      29.407   0.954  54.409  1.00  0.00    -0.208 F 
HETATM   32  C14 UNL     1      27.918   1.549  52.708  1.00  0.00     0.090 C 
BRANCH  32  33
HETATM   33  O1  UNL     1      28.380   2.858  52.782  1.00  0.00    -0.361 OA
HETATM   34  H13 UNL     1      29.229   3.077  53.320  1.00  0.00     0.217 HD
ENDBRANCH  32  33
ENDBRANCH  22  26
ENDBRANCH   1  19
TORSDOF 7
ENDMDL
MODEL 2
REMARK VINA RESULT:      -8.8      2.102      4.970
REMARK  7 active torsions:
REMARK  status: ('A' for Active; 'I' for Inactive)
REMARK    1  A    between atoms: C4_6  and  N3_7 
REMARK    2  A    between atoms: N3_7  and  C5_8 
REMARK    3  A    between atoms: C8_11  and  C9_12 
REMARK    4  A    between atoms: C14_18  and  O1_19 
REMARK    5  A    between atoms: C17_23  and  C18_24 
REMARK    6  A    between atoms: C19_25  and  C20_26 
REMARK    7  A    between atoms: C20_26  and  N4_27 
ROOT
HETATM    1  N3  UNL     1      21.016   0.838  53.743  1.00  0.00    -0.340 N 
HETATM    2  H5  UNL     1      20.847   1.589  54.454  1.00  0.00     0.167 HD
ENDROOT
BRANCH   1   3
HETATM    3  C4  UNL     1      19.921   0.084  53.244  1.00  0.00     0.150 A 
HETATM    4  N2  UNL     1      19.484  -1.012  53.871  1.00  0.00    -0.223 NA
HETATM    5  C3  UNL     1      18.454  -1.709  53.385  1.00  0.00     0.235 A 
HETATM    6  N1  UNL     1      17.852  -1.306  52.254  1.00  0.00    -0.245 NA
HETATM    7  C2  UNL     1      18.250  -0.218  51.588  1.00  0.00     0.054 A 
HETATM    8  C1  UNL     1      17.528   0.156  50.353  1.00  0.00     0.072 C 
HETATM    9  C17 UNL     1      19.304   0.498  52.085  1.00  0.00     0.088 A 
BRANCH   9  10
HETATM   10  C18 UNL     1      19.707   1.660  51.331  1.00  0.00    -0.059 C 
HETATM   11  C19 UNL     1      20.047   2.628  50.698  1.00  0.00    -0.071 C 
BRANCH  11  12
HETATM   12  C20 UNL     1      20.444   3.813  49.915  1.00  0.00     0.366 C 
BRANCH  12  13
HETATM   13  N4  UNL     1      21.734   4.333  50.304  1.00  0.00     0.103 N 
HETATM   14  C21 UNL     1      22.028   5.476  49.462  1.00  0.00     0.299 C 
HETATM   15  C22 UNL     1      22.982   6.443  50.141  1.00  0.00     0.198 C 
HETATM   16  O2  UNL     1      23.824   5.778  51.025  1.00  0.00    -0.388 OA
HETATM   17  C23 UNL     1      23.093   5.272  52.071  1.00  0.00     0.198 C 
HETATM   18  C24 UNL     1      21.700   4.851  51.671  1.00  0.00     0.299 C 
ENDBRANCH  12  13
ENDBRANCH  11  12
ENDBRANCH   9  10
ENDBRANCH   1   3
BRANCH   1  19
HETATM   19  C5  UNL     1      22.388   0.715  53.407  1.00  0.00     0.035 A 
HETATM   20  C6  UNL     1      23.252  -0.194  53.994  1.00  0.00     0.030 A 
HETATM   21  C7  UNL     1      24.576  -0.292  53.669  1.00  0.00     0.012 A 
HETATM   22  C8  UNL     1      25.140   0.529  52.714  1.00  0.00    -0.022 A 
HETATM   23  C15 UNL     1      24.330   1.457  52.092  1.00  0.00     0.043 A 
HETATM   24 CL1  UNL     1      25.024   2.509  50.876  1.00  0.00    -0.084 Cl
HETATM   25  C16 UNL     1      23.001   1.508  52.463  1.00  0.00     0.054 A 
BRANCH  22  26
HETATM   26  C9  UNL     1      26.586   0.402  52.390  1.00  0.00     0.102 C 
HETATM   27  C10 UNL     1      26.875  -1.078  52.322  1.00  0.00    -0.014 C 
HETATM   28  C11 UNL     1      27.939  -1.581  52.927  1.00  0.00    -0.023 C 
HETATM   29  C12 UNL     1      28.955  -0.845  53.716  1.00  0.00     0.099 C 
HETATM   30  C13 UNL     1      28.453   0.482  54.073  1.00  0.00     0.127 C 
HETATM   31  F1  UNL     1      29.128   1.122  55.049  1.00  0.00    -0.208 F 
HETATM   32  C14 UNL     1      27.405   1.011  53.474  1.00  0.00     0.090 C 
BRANCH  32  33
HETATM   33  O1  UNL     1      26.985   2.276  53.866  1.00  0.00    -0.361 OA
HETATM   34  H13 UNL     1      27.433   2.746  54.665  1.00  0.00     0.217 HD
ENDBRANCH  32  33
ENDBRANCH  22  26
ENDBRANCH   1  19
TORSDOF 7
ENDMDL
MODEL 3
REMARK VINA RESULT:      -8.7      4.533      6.456
REMARK  7 active torsions:
REMARK  status: ('A' for Active; 'I' for Inactive)
REMARK    1  A    between atoms: C4_6  and  N3_7 
REMARK    2  A    between atoms: N3_7  and  C5_8 
REMARK    3  A    between atoms: C8_11  and  C9_12 
REMARK    4  A    between atoms: C14_18  and  O1_19 
REMARK    5  A    between atoms: C17_23  and  C18_24 
REMARK    6  A    between atoms: C19_25  and  C20_26 
REMARK    7  A    between atoms: C20_26  and  N4_27 
ROOT
HETATM    1  N3  UNL     1      25.237   3.296  49.997  1.00  0.00    -0.340 N 
HETATM    2  H5  UNL     1      25.862   2.742  50.629  1.00  0.00     0.167 HD
ENDROOT
BRANCH   1   3
HETATM    3  C4  UNL     1      23.909   2.854  49.759  1.00  0.00     0.150 A 
HETATM    4  N2  UNL     1      23.189   3.322  48.735  1.00  0.00    -0.223 NA
HETATM    5  C3  UNL     1      21.941   2.896  48.529  1.00  0.00     0.235 A 
HETATM    6  N1  UNL     1      21.402   1.988  49.359  1.00  0.00    -0.245 NA
HETATM    7  C2  UNL     1      22.077   1.488  50.397  1.00  0.00     0.054 A 
HETATM    8  C1  UNL     1      21.408   0.489  51.259  1.00  0.00     0.072 C 
HETATM    9  C17 UNL     1      23.356   1.922  50.610  1.00  0.00     0.088 A 
BRANCH   9  10
HETATM   10  C18 UNL     1      24.047   1.364  51.747  1.00  0.00    -0.059 C 
HETATM   11  C19 UNL     1      24.620   0.895  52.698  1.00  0.00    -0.071 C 
BRANCH  11  12
HETATM   12  C20 UNL     1      25.332   0.309  53.849  1.00  0.00     0.366 C 
BRANCH  12  13
HETATM   13  N4  UNL     1      26.527   1.041  54.199  1.00  0.00     0.103 N 
HETATM   14  C21 UNL     1      27.425   0.130  54.881  1.00  0.00     0.299 C 
HETATM   15  C22 UNL     1      28.876   0.561  54.739  1.00  0.00     0.198 C 
HETATM   16  O2  UNL     1      28.977   1.940  54.604  1.00  0.00    -0.388 OA
HETATM   17  C23 UNL     1      28.415   2.333  53.415  1.00  0.00     0.198 C 
HETATM   18  C24 UNL     1      27.244   1.476  53.001  1.00  0.00     0.299 C 
ENDBRANCH  12  13
ENDBRANCH  11  12
ENDBRANCH   9  10
ENDBRANCH   1   3
BRANCH   1  19
HETATM   19  C5  UNL     1      25.884   4.443  49.471  1.00  0.00     0.035 A 
HETATM   20  C6  UNL     1      27.173   4.442  48.966  1.00  0.00     0.030 A 
HETATM   21  C7  UNL     1      27.789   5.559  48.474  1.00  0.00     0.012 A 
HETATM   22  C8  UNL     1      27.146   6.779  48.453  1.00  0.00    -0.022 A 
HETATM   23  C15 UNL     1      25.857   6.845  48.944  1.00  0.00     0.043 A 
HETATM   24 CL1  UNL     1      25.021   8.383  48.925  1.00  0.00    -0.084 Cl
HETATM   25  C16 UNL     1      25.288   5.683  49.426  1.00  0.00     0.054 A 
BRANCH  22  26
HETATM   26  C9  UNL     1      27.848   7.977  47.918  1.00  0.00     0.102 C 
HETATM   27  C10 UNL     1      28.658   7.499  46.739  1.00  0.00    -0.014 C 
HETATM   28  C11 UNL     1      29.921   7.871  46.599  1.00  0.00    -0.023 C 
HETATM   29  C12 UNL     1      30.703   8.750  47.501  1.00  0.00     0.099 C 
HETATM   30  C13 UNL     1      30.028   8.878  48.792  1.00  0.00     0.127 C 
HETATM   31  F1  UNL     1      30.775   9.372  49.799  1.00  0.00    -0.208 F 
HETATM   32  C14 UNL     1      28.766   8.530  48.951  1.00  0.00     0.090 C 
BRANCH  32  33
HETATM   33  O1  UNL     1      28.191   8.680  50.207  1.00  0.00    -0.361 OA
HETATM   34  H13 UNL     1      28.675   9.220  50.938  1.00  0.00     0.217 HD
ENDBRANCH  32  33
ENDBRANCH  22  26
ENDBRANCH   1  19
TORSDOF 7
ENDMDL
MODEL 4
REMARK VINA RESULT:      -8.6      4.215      6.945
REMARK  7 active torsions:
REMARK  status: ('A' for Active; 'I' for Inactive)
REMARK    1  A    between atoms: C4_6  and  N3_7 
REMARK    2  A    between atoms: N3_7  and  C5_8 
REMARK    3  A    between atoms: C8_11  and  C9_12 
REMARK    4  A    between atoms: C14_18  and  O1_19 
REMARK    5  A    between atoms: C17_23  and  C18_24 
REMARK    6  A    between atoms: C19_25  and  C20_26 
REMARK    7  A    between atoms: C20_26  and  N4_27 
ROOT
HETATM    1  N3  UNL     1      26.057   2.435  50.906  1.00  0.00    -0.340 N 
HETATM    2  H5  UNL     1      25.559   1.729  50.314  1.00  0.00     0.167 HD
ENDROOT
BRANCH   1   3
HETATM    3  C4  UNL     1      26.710   2.017  52.096  1.00  0.00     0.150 A 
HETATM    4  N2  UNL     1      27.977   2.355  52.353  1.00  0.00    -0.223 NA
HETATM    5  C3  UNL     1      28.575   1.951  53.477  1.00  0.00     0.235 A 
HETATM    6  N1  UNL     1      27.896   1.197  54.357  1.00  0.00    -0.245 NA
HETATM    7  C2  UNL     1      26.628   0.832  54.149  1.00  0.00     0.054 A 
HETATM    8  C1  UNL     1      25.955   0.003  55.173  1.00  0.00     0.072 C 
HETATM    9  C17 UNL     1      26.014   1.245  52.999  1.00  0.00     0.088 A 
BRANCH   9  10
HETATM   10  C18 UNL     1      24.648   0.821  52.809  1.00  0.00    -0.059 C 
HETATM   11  C19 UNL     1      23.508   0.462  52.652  1.00  0.00    -0.071 C 
BRANCH  11  12
HETATM   12  C20 UNL     1      22.108   0.033  52.476  1.00  0.00     0.366 C 
BRANCH  12  13
HETATM   13  N4  UNL     1      21.167   1.118  52.625  1.00  0.00     0.103 N 
HETATM   14  C21 UNL     1      21.865   2.357  52.343  1.00  0.00     0.299 C 
HETATM   15  C22 UNL     1      20.914   3.440  51.862  1.00  0.00     0.198 C 
HETATM   16  O2  UNL     1      19.643   3.262  52.395  1.00  0.00    -0.388 OA
HETATM   17  C23 UNL     1      19.086   2.111  51.895  1.00  0.00     0.198 C 
HETATM   18  C24 UNL     1      20.104   1.030  51.625  1.00  0.00     0.299 C 
ENDBRANCH  12  13
ENDBRANCH  11  12
ENDBRANCH   9  10
ENDBRANCH   1   3
BRANCH   1  19
HETATM   19  C5  UNL     1      25.970   3.744  50.369  1.00  0.00     0.035 A 
HETATM   20  C6  UNL     1      26.815   4.238  49.391  1.00  0.00     0.030 A 
HETATM   21  C7  UNL     1      26.727   5.508  48.892  1.00  0.00     0.012 A 
HETATM   22  C8  UNL     1      25.769   6.390  49.346  1.00  0.00    -0.022 A 
HETATM   23  C15 UNL     1      24.896   5.956  50.323  1.00  0.00     0.043 A 
HETATM   24 CL1  UNL     1      23.670   7.057  50.914  1.00  0.00    -0.084 Cl
HETATM   25  C16 UNL     1      25.034   4.663  50.787  1.00  0.00     0.054 A 
BRANCH  22  26
HETATM   26  C9  UNL     1      25.706   7.767  48.788  1.00  0.00     0.102 C 
HETATM   27  C10 UNL     1      25.860   7.624  47.293  1.00  0.00    -0.014 C 
HETATM   28  C11 UNL     1      26.688   8.413  46.628  1.00  0.00    -0.023 C 
HETATM   29  C12 UNL     1      27.544   9.490  47.181  1.00  0.00     0.099 C 
HETATM   30  C13 UNL     1      27.656   9.349  48.633  1.00  0.00     0.127 C 
HETATM   31  F1  UNL     1      28.649  10.051  49.216  1.00  0.00    -0.208 F 
HETATM   32  C14 UNL     1      26.832   8.582  49.320  1.00  0.00     0.090 C 
BRANCH  32  33
HETATM   33  O1  UNL     1      26.999   8.498  50.697  1.00  0.00    -0.361 OA
HETATM   34  H13 UNL     1      26.178   8.492  51.319  1.00  0.00     0.217 HD
ENDBRANCH  32  33
ENDBRANCH  22  26
ENDBRANCH   1  19
TORSDOF 7
ENDMDL
MODEL 5
REMARK VINA RESULT:      -8.4      3.800      6.660
REMARK  7 active torsions:
REMARK  status: ('A' for Active; 'I' for Inactive)
REMARK    1  A    between atoms: C4_6  and  N3_7 
REMARK    2  A    between atoms: N3_7  and  C5_8 
REMARK    3  A    between atoms: C8_11  and  C9_12 
REMARK    4  A    between atoms: C14_18  and  O1_19 
REMARK    5  A    between atoms: C17_23  and  C18_24 
REMARK    6  A    between atoms: C19_25  and  C20_26 
REMARK    7  A    between atoms: C20_26  and  N4_27 
ROOT
HETATM    1  N3  UNL     1      23.980   3.181  50.063  1.00  0.00    -0.340 N 
HETATM    2  H5  UNL     1      23.921   2.728  49.120  1.00  0.00     0.167 HD
ENDROOT
BRANCH   1   3
HETATM    3  C4  UNL     1      23.362   4.442  50.277  1.00  0.00     0.150 A 
HETATM    4  N2  UNL     1      22.122   4.538  50.768  1.00  0.00    -0.223 NA
HETATM    5  C3  UNL     1      21.557   5.732  50.959  1.00  0.00     0.235 A 
HETATM    6  N1  UNL     1      22.240   6.848  50.655  1.00  0.00    -0.245 NA
HETATM    7  C2  UNL     1      23.481   6.808  50.162  1.00  0.00     0.054 A 
HETATM    8  C1  UNL     1      24.161   8.086  49.857  1.00  0.00     0.072 C 
HETATM    9  C17 UNL     1      24.062   5.586  49.966  1.00  0.00     0.088 A 
BRANCH   9  10
HETATM   10  C18 UNL     1      25.399   5.586  49.423  1.00  0.00    -0.059 C 
HETATM   11  C19 UNL     1      26.513   5.589  48.965  1.00  0.00    -0.071 C 
BRANCH  11  12
HETATM   12  C20 UNL     1      27.881   5.608  48.414  1.00  0.00     0.366 C 
BRANCH  12  13
HETATM   13  N4  UNL     1      28.210   6.863  47.779  1.00  0.00     0.103 N 
HETATM   14  C21 UNL     1      28.042   7.918  48.758  1.00  0.00     0.299 C 
HETATM   15  C22 UNL     1      28.913   9.122  48.442  1.00  0.00     0.198 C 
HETATM   16  O2  UNL     1      29.131   9.236  47.074  1.00  0.00    -0.388 OA
HETATM   17  C23 UNL     1      29.888   8.178  46.635  1.00  0.00     0.198 C 
HETATM   18  C24 UNL     1      29.621   6.903  47.397  1.00  0.00     0.299 C 
ENDBRANCH  12  13
ENDBRANCH  11  12
ENDBRANCH   9  10
ENDBRANCH   1   3
BRANCH   1  19
HETATM   19  C5  UNL     1      24.713   2.398  50.990  1.00  0.00     0.035 A 
HETATM   20  C6  UNL     1      26.093   2.414  51.098  1.00  0.00     0.030 A 
HETATM   21  C7  UNL     1      26.787   1.643  51.988  1.00  0.00     0.012 A 
HETATM   22  C8  UNL     1      26.137   0.786  52.851  1.00  0.00    -0.022 A 
HETATM   23  C15 UNL     1      24.759   0.725  52.792  1.00  0.00     0.043 A 
HETATM   24 CL1  UNL     1      23.911  -0.355  53.879  1.00  0.00    -0.084 Cl
HETATM   25  C16 UNL     1      24.114   1.527  51.873  1.00  0.00     0.054 A 
BRANCH  22  26
HETATM   26  C9  UNL     1      26.923  -0.044  53.802  1.00  0.00     0.102 C 
HETATM   27  C10 UNL     1      28.033   0.839  54.315  1.00  0.00    -0.014 C 
HETATM   28  C11 UNL     1      29.276   0.387  54.372  1.00  0.00    -0.023 C 
HETATM   29  C12 UNL     1      29.763  -0.956  53.975  1.00  0.00     0.099 C 
HETATM   30  C13 UNL     1      28.762  -1.631  53.149  1.00  0.00     0.127 C 
HETATM   31  F1  UNL     1      29.198  -2.705  52.459  1.00  0.00    -0.208 F 
HETATM   32  C14 UNL     1      27.514  -1.210  53.089  1.00  0.00     0.090 C 
BRANCH  32  33
HETATM   33  O1  UNL     1      26.619  -1.903  52.283  1.00  0.00    -0.361 OA
HETATM   34  H13 UNL     1      25.627  -1.631  52.259  1.00  0.00     0.217 HD
ENDBRANCH  32  33
ENDBRANCH  22  26
ENDBRANCH   1  19
TORSDOF 7
ENDMDL
MODEL 6
REMARK VINA RESULT:      -8.3      2.254      4.924
REMARK  7 active torsions:
REMARK  status: ('A' for Active; 'I' for Inactive)
REMARK    1  A    between atoms: C4_6  and  N3_7 
REMARK    2  A    between atoms: N3_7  and  C5_8 
REMARK    3  A    between atoms: C8_11  and  C9_12 
REMARK    4  A    between atoms: C14_18  and  O1_19 
REMARK    5  A    between atoms: C17_23  and  C18_24 
REMARK    6  A    between atoms: C19_25  and  C20_26 
REMARK    7  A    between atoms: C20_26  and  N4_27 
ROOT
HETATM    1  N3  UNL     1      22.059   3.867  52.236  1.00  0.00    -0.340 N 
HETATM    2  H5  UNL     1      21.965   4.347  53.162  1.00  0.00     0.167 HD
ENDROOT
BRANCH   1   3
HETATM    3  C4  UNL     1      21.030   4.002  51.267  1.00  0.00     0.150 A 
HETATM    4  N2  UNL     1      20.082   3.071  51.120  1.00  0.00    -0.223 NA
HETATM    5  C3  UNL     1      19.124   3.214  50.202  1.00  0.00     0.235 A 
HETATM    6  N1  UNL     1      19.112   4.304  49.417  1.00  0.00    -0.245 NA
HETATM    7  C2  UNL     1      20.035   5.264  49.522  1.00  0.00     0.054 A 
HETATM    8  C1  UNL     1      19.945   6.433  48.620  1.00  0.00     0.072 C 
HETATM    9  C17 UNL     1      21.017   5.120  50.463  1.00  0.00     0.088 A 
BRANCH   9  10
HETATM   10  C18 UNL     1      22.000   6.173  50.538  1.00  0.00    -0.059 C 
HETATM   11  C19 UNL     1      22.817   7.057  50.604  1.00  0.00    -0.071 C 
BRANCH  11  12
HETATM   12  C20 UNL     1      23.828   8.127  50.697  1.00  0.00     0.366 C 
BRANCH  12  13
HETATM   13  N4  UNL     1      24.858   8.012  49.692  1.00  0.00     0.103 N 
HETATM   14  C21 UNL     1      25.590   6.785  49.940  1.00  0.00     0.299 C 
HETATM   15  C22 UNL     1      26.233   6.249  48.672  1.00  0.00     0.198 C 
HETATM   16  O2  UNL     1      26.542   7.280  47.793  1.00  0.00    -0.388 OA
HETATM   17  C23 UNL     1      25.386   7.863  47.336  1.00  0.00     0.198 C 
HETATM   18  C24 UNL     1      24.277   7.859  48.360  1.00  0.00     0.299 C 
ENDBRANCH  12  13
ENDBRANCH  11  12
ENDBRANCH   9  10
ENDBRANCH   1   3
BRANCH   1  19
HETATM   19  C5  UNL     1      23.266   3.131  52.132  1.00  0.00     0.035 A 
HETATM   20  C6  UNL     1      23.666   2.165  53.041  1.00  0.00     0.030 A 
HETATM   21  C7  UNL     1      24.839   1.472  52.935  1.00  0.00     0.012 A 
HETATM   22  C8  UNL     1      25.713   1.701  51.892  1.00  0.00    -0.022 A 
HETATM   23  C15 UNL     1      25.371   2.653  50.953  1.00  0.00     0.043 A 
HETATM   24 CL1  UNL     1      26.464   2.960  49.620  1.00  0.00    -0.084 Cl
HETATM   25  C16 UNL     1      24.173   3.319  51.113  1.00  0.00     0.054 A 
BRANCH  22  26
HETATM   26  C9  UNL     1      26.986   0.936  51.811  1.00  0.00     0.102 C 
HETATM   27  C10 UNL     1      26.640  -0.494  52.145  1.00  0.00    -0.014 C 
HETATM   28  C11 UNL     1      27.386  -1.182  52.996  1.00  0.00    -0.023 C 
HETATM   29  C12 UNL     1      28.594  -0.712  53.715  1.00  0.00     0.099 C 
HETATM   30  C13 UNL     1      28.674   0.747  53.666  1.00  0.00     0.127 C 
HETATM   31  F1  UNL     1      29.528   1.318  54.540  1.00  0.00    -0.208 F 
HETATM   32  C14 UNL     1      27.954   1.453  52.816  1.00  0.00     0.090 C 
BRANCH  32  33
HETATM   33  O1  UNL     1      28.084   2.837  52.827  1.00  0.00    -0.361 OA
HETATM   34  H13 UNL     1      28.019   3.356  53.713  1.00  0.00     0.217 HD
ENDBRANCH  32  33
ENDBRANCH  22  26
ENDBRANCH   1  19
TORSDOF 7
ENDMDL
MODEL 7
REMARK VINA RESULT:      -8.2      3.426      6.288
REMARK  7 active torsions:
REMARK  status: ('A' for Active; 'I' for Inactive)
REMARK    1  A    between atoms: C4_6  and  N3_7 
REMARK    2  A    between atoms: N3_7  and  C5_8 
REMARK    3  A    between atoms: C8_11  and  C9_12 
REMARK    4  A    between atoms: C14_18  and  O1_19 
REMARK    5  A    between atoms: C17_23  and  C18_24 
REMARK    6  A    between atoms: C19_25  and  C20_26 
REMARK    7  A    between atoms: C20_26  and  N4_27 
ROOT
HETATM    1  N3  UNL     1      23.134   6.702  51.659  1.00  0.00    -0.340 N 
HETATM    2  H5  UNL     1      23.239   7.219  52.564  1.00  0.00     0.167 HD
ENDROOT
BRANCH   1   3
HETATM    3  C4  UNL     1      22.423   7.301  50.586  1.00  0.00     0.150 A 
HETATM    4  N2  UNL     1      21.134   7.031  50.364  1.00  0.00    -0.223 NA
HETATM    5  C3  UNL     1      20.483   7.602  49.348  1.00  0.00     0.235 A 
HETATM    6  N1  UNL     1      21.132   8.457  48.540  1.00  0.00    -0.245 NA
HETATM    7  C2  UNL     1      22.420   8.762  48.717  1.00  0.00     0.054 A 
HETATM    8  C1  UNL     1      23.055   9.717  47.782  1.00  0.00     0.072 C 
HETATM    9  C17 UNL     1      23.088   8.178  49.758  1.00  0.00     0.088 A 
BRANCH   9  10
HETATM   10  C18 UNL     1      24.480   8.527  49.909  1.00  0.00    -0.059 C 
HETATM   11  C19 UNL     1      25.642   8.821  50.030  1.00  0.00    -0.071 C 
BRANCH  11  12
HETATM   12  C20 UNL     1      27.060   9.196  50.186  1.00  0.00     0.366 C 
BRANCH  12  13
HETATM   13  N4  UNL     1      27.852   8.890  49.018  1.00  0.00     0.103 N 
HETATM   14  C21 UNL     1      29.239   9.170  49.332  1.00  0.00     0.299 C 
HETATM   15  C22 UNL     1      30.186   8.342  48.480  1.00  0.00     0.198 C 
HETATM   16  O2  UNL     1      29.619   8.045  47.246  1.00  0.00    -0.388 OA
HETATM   17  C23 UNL     1      28.541   7.212  47.418  1.00  0.00     0.198 C 
HETATM   18  C24 UNL     1      27.800   7.462  48.708  1.00  0.00     0.299 C 
ENDBRANCH  12  13
ENDBRANCH  11  12
ENDBRANCH   9  10
ENDBRANCH   1   3
BRANCH   1  19
HETATM   19  C5  UNL     1      23.756   5.428  51.693  1.00  0.00     0.035 A 
HETATM   20  C6  UNL     1      23.598   4.516  52.722  1.00  0.00     0.030 A 
HETATM   21  C7  UNL     1      24.214   3.296  52.747  1.00  0.00     0.012 A 
HETATM   22  C8  UNL     1      25.050   2.896  51.725  1.00  0.00    -0.022 A 
HETATM   23  C15 UNL     1      25.249   3.763  50.669  1.00  0.00     0.043 A 
HETATM   24 CL1  UNL     1      26.304   3.277  49.360  1.00  0.00    -0.084 Cl
HETATM   25  C16 UNL     1      24.598   4.980  50.700  1.00  0.00     0.054 A 
BRANCH  22  26
HETATM   26  C9  UNL     1      25.712   1.566  51.787  1.00  0.00     0.102 C 
HETATM   27  C10 UNL     1      24.719   0.630  52.431  1.00  0.00    -0.014 C 
HETATM   28  C11 UNL     1      25.101  -0.192  53.396  1.00  0.00    -0.023 C 
HETATM   29  C12 UNL     1      26.460  -0.330  53.972  1.00  0.00     0.099 C 
HETATM   30  C13 UNL     1      27.283   0.822  53.606  1.00  0.00     0.127 C 
HETATM   31  F1  UNL     1      28.415   0.985  54.319  1.00  0.00    -0.208 F 
HETATM   32  C14 UNL     1      26.932   1.645  52.638  1.00  0.00     0.090 C 
BRANCH  32  33
HETATM   33  O1  UNL     1      27.764   2.719  52.345  1.00  0.00    -0.361 OA
HETATM   34  H13 UNL     1      28.505   2.994  53.005  1.00  0.00     0.217 HD
ENDBRANCH  32  33
ENDBRANCH  22  26
ENDBRANCH   1  19
TORSDOF 7
ENDMDL
MODEL 8
REMARK VINA RESULT:      -8.1      6.128      7.223
REMARK  7 active torsions:
REMARK  status: ('A' for Active; 'I' for Inactive)
REMARK    1  A    between atoms: C4_6  and  N3_7 
REMARK    2  A    between atoms: N3_7  and  C5_8 
REMARK    3  A    between atoms: C8_11  and  C9_12 
REMARK    4  A    between atoms: C14_18  and  O1_19 
REMARK    5  A    between atoms: C17_23  and  C18_24 
REMARK    6  A    between atoms: C19_25  and  C20_26 
REMARK    7  A    between atoms: C20_26  and  N4_27 
ROOT
HETATM    1  N3  UNL     1      28.132   7.456  49.225  1.00  0.00    -0.340 N 
HETATM    2  H5  UNL     1      28.185   7.513  50.270  1.00  0.00     0.167 HD
ENDROOT
BRANCH   1   3
HETATM    3  C4  UNL     1      26.904   7.734  48.568  1.00  0.00     0.150 A 
HETATM    4  N2  UNL     1      26.674   8.915  47.987  1.00  0.00    -0.223 NA
HETATM    5  C3  UNL     1      25.513   9.159  47.376  1.00  0.00     0.235 A 
HETATM    6  N1  UNL     1      24.564   8.208  47.347  1.00  0.00    -0.245 NA
HETATM    7  C2  UNL     1      24.742   7.011  47.912  1.00  0.00     0.054 A 
HETATM    8  C1  UNL     1      23.646   6.021  47.829  1.00  0.00     0.072 C 
HETATM    9  C17 UNL     1      25.932   6.759  48.537  1.00  0.00     0.088 A 
BRANCH   9  10
HETATM   10  C18 UNL     1      26.080   5.458  49.143  1.00  0.00    -0.059 C 
HETATM   11  C19 UNL     1      26.199   4.372  49.652  1.00  0.00    -0.071 C 
BRANCH  11  12
HETATM   12  C20 UNL     1      26.337   3.035  50.260  1.00  0.00     0.366 C 
BRANCH  12  13
HETATM   13  N4  UNL     1      25.340   2.775  51.271  1.00  0.00     0.103 N 
HETATM   14  C21 UNL     1      24.053   2.665  50.612  1.00  0.00     0.299 C 
HETATM   15  C22 UNL     1      23.083   1.811  51.412  1.00  0.00     0.198 C 
HETATM   16  O2  UNL     1      23.357   1.884  52.772  1.00  0.00    -0.388 OA
HETATM   17  C23 UNL     1      24.574   1.305  53.033  1.00  0.00     0.198 C 
HETATM   18  C24 UNL     1      25.565   1.478  51.908  1.00  0.00     0.299 C 
ENDBRANCH  12  13
ENDBRANCH  11  12
ENDBRANCH   9  10
ENDBRANCH   1   3
BRANCH   1  19
HETATM   19  C5  UNL     1      29.371   7.086  48.644  1.00  0.00     0.035 A 
HETATM   20  C6  UNL     1      29.663   5.812  48.188  1.00  0.00     0.030 A 
HETATM   21  C7  UNL     1      30.867   5.467  47.641  1.00  0.00     0.012 A 
HETATM   22  C8  UNL     1      31.884   6.390  47.509  1.00  0.00    -0.022 A 
HETATM   23  C15 UNL     1      31.653   7.679  47.946  1.00  0.00     0.043 A 
HETATM   24 CL1  UNL     1      32.928   8.868  47.787  1.00  0.00    -0.084 Cl
HETATM   25  C16 UNL     1      30.417   7.967  48.489  1.00  0.00     0.054 A 
BRANCH  22  26
HETATM   26  C9  UNL     1      33.185   5.979  46.917  1.00  0.00     0.102 C 
HETATM   27  C10 UNL     1      32.857   5.287  45.616  1.00  0.00    -0.014 C 
HETATM   28  C11 UNL     1      33.434   4.137  45.306  1.00  0.00    -0.023 C 
HETATM   29  C12 UNL     1      34.423   3.382  46.112  1.00  0.00     0.099 C 
HETATM   30  C13 UNL     1      34.427   3.868  47.491  1.00  0.00     0.127 C 
HETATM   31  F1  UNL     1      35.029   3.068  48.394  1.00  0.00    -0.208 F 
HETATM   32  C14 UNL     1      33.874   5.018  47.822  1.00  0.00     0.090 C 
BRANCH  32  33
HETATM   33  O1  UNL     1      33.917   5.416  49.153  1.00  0.00    -0.361 OA
HETATM   34  H13 UNL     1      33.925   6.417  49.394  1.00  0.00     0.217 HD
ENDBRANCH  32  33
ENDBRANCH  22  26
ENDBRANCH   1  19
TORSDOF 7
ENDMDL
MODEL 9
REMARK VINA RESULT:      -8.0      4.944      6.876
REMARK  7 active torsions:
REMARK  status: ('A' for Active; 'I' for Inactive)
REMARK    1  A    between atoms: C4_6  and  N3_7 
REMARK    2  A    between atoms: N3_7  and  C5_8 
REMARK    3  A    between atoms: C8_11  and  C9_12 
REMARK    4  A    between atoms: C14_18  and  O1_19 
REMARK    5  A    between atoms: C17_23  and  C18_24 
REMARK    6  A    between atoms: C19_25  and  C20_26 
REMARK    7  A    between atoms: C20_26  and  N4_27 
ROOT
HETATM    1  N3  UNL     1      25.981   3.421  49.511  1.00  0.00    -0.340 N 
HETATM    2  H5  UNL     1      25.438   2.962  48.742  1.00  0.00     0.167 HD
ENDROOT
BRANCH   1   3
HETATM    3  C4  UNL     1      26.104   2.772  50.768  1.00  0.00     0.150 A 
HETATM    4  N2  UNL     1      27.272   2.718  51.416  1.00  0.00    -0.223 NA
HETATM    5  C3  UNL     1      27.369   2.101  52.595  1.00  0.00     0.235 A 
HETATM    6  N1  UNL     1      26.283   1.527  53.137  1.00  0.00    -0.245 NA
HETATM    7  C2  UNL     1      25.091   1.551  52.532  1.00  0.00     0.054 A 
HETATM    8  C1  UNL     1      23.946   0.897  53.202  1.00  0.00     0.072 C 
HETATM    9  C17 UNL     1      24.990   2.184  51.324  1.00  0.00     0.088 A 
BRANCH   9  10
HETATM   10  C18 UNL     1      23.689   2.180  50.700  1.00  0.00    -0.059 C 
HETATM   11  C19 UNL     1      22.601   2.172  50.183  1.00  0.00    -0.071 C 
BRANCH  11  12
HETATM   12  C20 UNL     1      21.264   2.179  49.560  1.00  0.00     0.366 C 
BRANCH  12  13
HETATM   13  N4  UNL     1      20.221   1.767  50.470  1.00  0.00     0.103 N 
HETATM   14  C21 UNL     1      19.011   1.561  49.699  1.00  0.00     0.299 C 
HETATM   15  C22 UNL     1      18.075   0.573  50.377  1.00  0.00     0.198 C 
HETATM   16  O2  UNL     1      18.228   0.605  51.758  1.00  0.00    -0.388 OA
HETATM   17  C23 UNL     1      19.475   0.140  52.097  1.00  0.00     0.198 C 
HETATM   18  C24 UNL     1      20.530   0.470  51.070  1.00  0.00     0.299 C 
ENDBRANCH  12  13
ENDBRANCH  11  12
ENDBRANCH   9  10
ENDBRANCH   1   3
BRANCH   1  19
HETATM   19  C5  UNL     1      26.511   4.676  49.120  1.00  0.00     0.035 A 
HETATM   20  C6  UNL     1      27.800   4.861  48.651  1.00  0.00     0.030 A 
HETATM   21  C7  UNL     1      28.302   6.080  48.289  1.00  0.00     0.012 A 
HETATM   22  C8  UNL     1      27.534   7.223  48.373  1.00  0.00    -0.022 A 
HETATM   23  C15 UNL     1      26.238   7.104  48.834  1.00  0.00     0.043 A 
HETATM   24 CL1  UNL     1      25.244   8.541  48.947  1.00  0.00    -0.084 Cl
HETATM   25  C16 UNL     1      25.788   5.846  49.183  1.00  0.00     0.054 A 
BRANCH  22  26
HETATM   26  C9  UNL     1      28.113   8.535  47.979  1.00  0.00     0.102 C 
HETATM   27  C10 UNL     1      28.996   8.265  46.785  1.00  0.00    -0.014 C 
HETATM   28  C11 UNL     1      30.213   8.780  46.722  1.00  0.00    -0.023 C 
HETATM   29  C12 UNL     1      30.876   9.643  47.728  1.00  0.00     0.099 C 
HETATM   30  C13 UNL     1      30.164   9.570  49.004  1.00  0.00     0.127 C 
HETATM   31  F1  UNL     1      30.832  10.038  50.077  1.00  0.00    -0.208 F 
HETATM   32  C14 UNL     1      28.944   9.076  49.089  1.00  0.00     0.090 C 
BRANCH  32  33
HETATM   33  O1  UNL     1      28.330   9.040  50.335  1.00  0.00    -0.361 OA
HETATM   34  H13 UNL     1      28.597   8.323  51.023  1.00  0.00     0.217 HD
ENDBRANCH  32  33
ENDBRANCH  22  26
ENDBRANCH   1  19
TORSDOF 7
ENDMDL
