MODEL 1
REMARK VINA RESULT:      -7.4      0.000      0.000
REMARK  4 active torsions:
REMARK  status: ('A' for Active; 'I' for Inactive)
REMARK    1  A    between atoms: C10_12  and  O2_13 
REMARK    2  A    between atoms: O2_13  and  C11_14 
REMARK    3  A    between atoms: C11_14  and  C12_15 
REMARK    4  A    between atoms: C12_15  and  O3_16 
ROOT
HETATM    1  C1  UNL     1      28.867  -0.313  53.504  1.00  0.00     0.017 C 
HETATM    2  C2  UNL     1      27.666  -0.214  53.222  1.00  0.00    -0.082 C 
HETATM    3  C3  UNL     1      26.229  -0.114  52.903  1.00  0.00    -0.004 C 
HETATM    4  C4  UNL     1      25.455  -0.439  53.960  1.00  0.00    -0.005 C 
HETATM    5  C5  UNL     1      24.006  -0.404  53.680  1.00  0.00     0.023 C 
HETATM    6  C6  UNL     1      22.758  -0.519  54.144  1.00  0.00     0.028 C 
HETATM    7  C7  UNL     1      21.525  -0.417  53.354  1.00  0.00     0.278 C 
HETATM    8  N1  UNL     1      20.874   0.923  53.415  1.00  0.00     0.106 N 
HETATM    9  C8  UNL     1      21.676   1.648  52.365  1.00  0.00     0.437 C 
HETATM   10  O1  UNL     1      21.464   2.944  52.300  1.00  0.00    -0.360 OA
HETATM   11  C9  UNL     1      22.040   3.582  51.212  1.00  0.00     0.210 C 
HETATM   12  C10 UNL     1      23.505   3.535  51.006  1.00  0.00     0.113 C 
HETATM   13  C14 UNL     1      24.058   2.228  50.660  1.00  0.00     0.097 C 
HETATM   14  C15 UNL     1      25.108   1.687  51.572  1.00  0.00     0.018 C 
HETATM   15  N2  UNL     1      25.227   2.183  52.770  1.00  0.00    -0.257 NA
HETATM   16  C16 UNL     1      24.399   3.215  53.273  1.00  0.00     0.215 A 
HETATM   17  N3  UNL     1      23.637   4.322  53.463  1.00  0.00    -0.277 NA
HETATM   18  C17 UNL     1      24.167   4.205  52.197  1.00  0.00     0.199 A 
HETATM   19  C18 UNL     1      26.262   0.691  51.642  1.00  0.00     0.102 C 
HETATM   20  H7  UNL     1      21.132   1.297  54.361  1.00  0.00     0.318 HD
ENDROOT
BRANCH  12  21
HETATM   21  O2  UNL     1      23.860   4.455  49.952  1.00  0.00    -0.373 OA
BRANCH  21  22
HETATM   22  C11 UNL     1      24.879   5.295  50.275  1.00  0.00     0.195 C 
BRANCH  22  23
HETATM   23  C12 UNL     1      25.695   5.463  48.992  1.00  0.00     0.193 C 
BRANCH  23  24
HETATM   24  O3  UNL     1      26.738   4.579  48.943  1.00  0.00    -0.394 OA
HETATM   25  C13 UNL     1      27.940   5.107  48.582  1.00  0.00     0.201 C 
ENDBRANCH  23  24
ENDBRANCH  22  23
ENDBRANCH  21  22
ENDBRANCH  12  21
TORSDOF 4
ENDMDL
MODEL 2
REMARK VINA RESULT:      -7.0      2.833      6.110
REMARK  4 active torsions:
REMARK  status: ('A' for Active; 'I' for Inactive)
REMARK    1  A    between atoms: C10_12  and  O2_13 
REMARK    2  A    between atoms: O2_13  and  C11_14 
REMARK    3  A    between atoms: C11_14  and  C12_15 
REMARK    4  A    between atoms: C12_15  and  O3_16 
ROOT
HETATM    1  C1  UNL     1      26.676  -1.372  52.674  1.00  0.00     0.017 C 
HETATM    2  C2  UNL     1      25.843  -0.466  52.802  1.00  0.00    -0.082 C 
HETATM    3  C3  UNL     1      24.867   0.631  52.949  1.00  0.00    -0.004 C 
HETATM    4  C4  UNL     1      25.204   1.707  52.207  1.00  0.00    -0.005 C 
HETATM    5  C5  UNL     1      24.287   2.854  52.357  1.00  0.00     0.023 C 
HETATM    6  C6  UNL     1      23.941   4.087  51.974  1.00  0.00     0.028 C 
HETATM    7  C7  UNL     1      22.842   4.890  52.524  1.00  0.00     0.278 C 
HETATM    8  N1  UNL     1      21.592   4.844  51.712  1.00  0.00     0.106 N 
HETATM    9  C8  UNL     1      20.993   3.563  52.231  1.00  0.00     0.437 C 
HETATM   10  O1  UNL     1      19.941   3.132  51.570  1.00  0.00    -0.360 OA
HETATM   11  C9  UNL     1      19.267   2.073  52.159  1.00  0.00     0.210 C 
HETATM   12  C10 UNL     1      19.965   0.795  52.423  1.00  0.00     0.113 C 
HETATM   13  C14 UNL     1      21.003   0.836  53.450  1.00  0.00     0.097 C 
HETATM   14  C15 UNL     1      22.373   0.422  53.030  1.00  0.00     0.018 C 
HETATM   15  N2  UNL     1      22.668   0.396  51.762  1.00  0.00    -0.257 NA
HETATM   16  C16 UNL     1      21.757   0.754  50.741  1.00  0.00     0.215 A 
HETATM   17  N3  UNL     1      20.675   0.943  49.943  1.00  0.00    -0.277 NA
HETATM   18  C17 UNL     1      20.419   0.225  51.090  1.00  0.00     0.199 A 
HETATM   19  C18 UNL     1      23.708  -0.086  53.567  1.00  0.00     0.102 C 
HETATM   20  H7  UNL     1      21.924   4.692  50.728  1.00  0.00     0.318 HD
ENDROOT
BRANCH  12  21
HETATM   21  O2  UNL     1      18.994  -0.196  52.819  1.00  0.00    -0.373 OA
BRANCH  21  22
HETATM   22  C11 UNL     1      18.054  -0.455  51.871  1.00  0.00     0.195 C 
BRANCH  22  23
HETATM   23  C12 UNL     1      16.911  -1.156  52.607  1.00  0.00     0.193 C 
BRANCH  23  24
HETATM   24  O3  UNL     1      16.013  -0.254  53.111  1.00  0.00    -0.394 OA
HETATM   25  C13 UNL     1      15.567   0.685  52.232  1.00  0.00     0.201 C 
ENDBRANCH  23  24
ENDBRANCH  22  23
ENDBRANCH  21  22
ENDBRANCH  12  21
TORSDOF 4
ENDMDL
MODEL 3
REMARK VINA RESULT:      -7.0      2.732      5.391
REMARK  4 active torsions:
REMARK  status: ('A' for Active; 'I' for Inactive)
REMARK    1  A    between atoms: C10_12  and  O2_13 
REMARK    2  A    between atoms: O2_13  and  C11_14 
REMARK    3  A    between atoms: C11_14  and  C12_15 
REMARK    4  A    between atoms: C12_15  and  O3_16 
ROOT
HETATM    1  C1  UNL     1      18.431  -0.767  53.092  1.00  0.00     0.017 C 
HETATM    2  C2  UNL     1      19.305  -0.337  52.328  1.00  0.00    -0.082 C 
HETATM    3  C3  UNL     1      20.330   0.176  51.400  1.00  0.00    -0.004 C 
HETATM    4  C4  UNL     1      19.785   0.898  50.398  1.00  0.00    -0.005 C 
HETATM    5  C5  UNL     1      20.764   1.393  49.410  1.00  0.00     0.023 C 
HETATM    6  C6  UNL     1      21.002   2.127  48.318  1.00  0.00     0.028 C 
HETATM    7  C7  UNL     1      22.294   2.280  47.640  1.00  0.00     0.278 C 
HETATM    8  N1  UNL     1      23.029   3.525  48.007  1.00  0.00     0.106 N 
HETATM    9  C8  UNL     1      23.686   3.070  49.284  1.00  0.00     0.437 C 
HETATM   10  O1  UNL     1      24.280   4.020  49.972  1.00  0.00    -0.360 OA
HETATM   11  C9  UNL     1      25.055   3.581  51.035  1.00  0.00     0.210 C 
HETATM   12  C10 UNL     1      24.449   2.791  52.129  1.00  0.00     0.113 C 
HETATM   13  C14 UNL     1      24.000   1.447  51.771  1.00  0.00     0.097 C 
HETATM   14  C15 UNL     1      22.559   1.141  52.007  1.00  0.00     0.018 C 
HETATM   15  N2  UNL     1      21.718   2.123  52.162  1.00  0.00    -0.257 NA
HETATM   16  C16 UNL     1      22.091   3.487  52.108  1.00  0.00     0.215 A 
HETATM   17  N3  UNL     1      22.703   4.694  52.216  1.00  0.00    -0.277 NA
HETATM   18  C17 UNL     1      23.391   3.652  52.797  1.00  0.00     0.199 A 
HETATM   19  C18 UNL     1      21.578  -0.010  52.205  1.00  0.00     0.102 C 
HETATM   20  H7  UNL     1      22.273   4.216  48.239  1.00  0.00     0.318 HD
ENDROOT
BRANCH  12  21
HETATM   21  O2  UNL     1      25.405   2.664  53.202  1.00  0.00    -0.373 OA
BRANCH  21  22
HETATM   22  C11 UNL     1      26.116   1.505  53.171  1.00  0.00     0.195 C 
BRANCH  22  23
HETATM   23  C12 UNL     1      27.576   1.914  53.375  1.00  0.00     0.193 C 
BRANCH  23  24
HETATM   24  O3  UNL     1      28.030   1.549  54.613  1.00  0.00    -0.394 OA
HETATM   25  C13 UNL     1      28.525   0.284  54.708  1.00  0.00     0.201 C 
ENDBRANCH  23  24
ENDBRANCH  22  23
ENDBRANCH  21  22
ENDBRANCH  12  21
TORSDOF 4
ENDMDL
MODEL 4
REMARK VINA RESULT:      -6.8      2.071      5.231
REMARK  4 active torsions:
REMARK  status: ('A' for Active; 'I' for Inactive)
REMARK    1  A    between atoms: C10_12  and  O2_13 
REMARK    2  A    between atoms: O2_13  and  C11_14 
REMARK    3  A    between atoms: C11_14  and  C12_15 
REMARK    4  A    between atoms: C12_15  and  O3_16 
ROOT
HETATM    1  C1  UNL     1      27.303  -0.799  52.663  1.00  0.00     0.017 C 
HETATM    2  C2  UNL     1      26.773   0.289  52.408  1.00  0.00    -0.082 C 
HETATM    3  C3  UNL     1      26.160   1.594  52.092  1.00  0.00    -0.004 C 
HETATM    4  C4  UNL     1      26.606   2.087  50.917  1.00  0.00    -0.005 C 
HETATM    5  C5  UNL     1      26.062   3.417  50.577  1.00  0.00     0.023 C 
HETATM    6  C6  UNL     1      25.974   4.413  49.690  1.00  0.00     0.028 C 
HETATM    7  C7  UNL     1      25.250   5.677  49.873  1.00  0.00     0.278 C 
HETATM    8  N1  UNL     1      23.894   5.695  49.254  1.00  0.00     0.106 N 
HETATM    9  C8  UNL     1      23.103   5.016  50.342  1.00  0.00     0.437 C 
HETATM   10  O1  UNL     1      21.866   4.707  50.021  1.00  0.00    -0.360 OA
HETATM   11  C9  UNL     1      21.075   4.271  51.073  1.00  0.00     0.210 C 
HETATM   12  C10 UNL     1      21.460   3.075  51.854  1.00  0.00     0.113 C 
HETATM   13  C14 UNL     1      22.658   3.212  52.679  1.00  0.00     0.097 C 
HETATM   14  C15 UNL     1      23.764   2.246  52.415  1.00  0.00     0.018 C 
HETATM   15  N2  UNL     1      23.783   1.596  51.287  1.00  0.00    -0.257 NA
HETATM   16  C16 UNL     1      22.808   1.760  50.274  1.00  0.00     0.215 A 
HETATM   17  N3  UNL     1      21.674   1.929  49.548  1.00  0.00    -0.277 NA
HETATM   18  C17 UNL     1      21.478   1.885  50.910  1.00  0.00     0.199 A 
HETATM   19  C18 UNL     1      25.003   1.615  53.041  1.00  0.00     0.102 C 
HETATM   20  H7  UNL     1      23.972   5.045  48.432  1.00  0.00     0.318 HD
ENDROOT
BRANCH  12  21
HETATM   21  O2  UNL     1      20.367   2.709  52.722  1.00  0.00    -0.373 OA
BRANCH  21  22
HETATM   22  C11 UNL     1      20.038   1.391  52.667  1.00  0.00     0.195 C 
BRANCH  22  23
HETATM   23  C12 UNL     1      20.438   0.812  54.025  1.00  0.00     0.193 C 
BRANCH  23  24
HETATM   24  O3  UNL     1      21.549   0.019  53.923  1.00  0.00    -0.394 OA
HETATM   25  C13 UNL     1      21.501  -1.151  54.618  1.00  0.00     0.201 C 
ENDBRANCH  23  24
ENDBRANCH  22  23
ENDBRANCH  21  22
ENDBRANCH  12  21
TORSDOF 4
ENDMDL
MODEL 5
REMARK VINA RESULT:      -6.7      2.279      5.251
REMARK  4 active torsions:
REMARK  status: ('A' for Active; 'I' for Inactive)
REMARK    1  A    between atoms: C10_12  and  O2_13 
REMARK    2  A    between atoms: O2_13  and  C11_14 
REMARK    3  A    between atoms: C11_14  and  C12_15 
REMARK    4  A    between atoms: C12_15  and  O3_16 
ROOT
HETATM    1  C1  UNL     1      21.572  -1.665  54.475  1.00  0.00     0.017 C 
HETATM    2  C2  UNL     1      22.216  -0.735  53.973  1.00  0.00    -0.082 C 
HETATM    3  C3  UNL     1      23.005   0.360  53.378  1.00  0.00    -0.004 C 
HETATM    4  C4  UNL     1      24.161  -0.086  52.842  1.00  0.00    -0.005 C 
HETATM    5  C5  UNL     1      25.014   0.979  52.277  1.00  0.00     0.023 C 
HETATM    6  C6  UNL     1      26.124   1.308  51.609  1.00  0.00     0.028 C 
HETATM    7  C7  UNL     1      26.581   2.669  51.303  1.00  0.00     0.278 C 
HETATM    8  N1  UNL     1      26.235   3.130  49.928  1.00  0.00     0.106 N 
HETATM    9  C8  UNL     1      24.820   3.594  50.158  1.00  0.00     0.437 C 
HETATM   10  O1  UNL     1      24.151   3.902  49.069  1.00  0.00    -0.360 OA
HETATM   11  C9  UNL     1      22.927   4.518  49.283  1.00  0.00     0.210 C 
HETATM   12  C10 UNL     1      21.873   3.838  50.067  1.00  0.00     0.113 C 
HETATM   13  C14 UNL     1      22.149   3.667  51.492  1.00  0.00     0.097 C 
HETATM   14  C15 UNL     1      22.133   2.269  52.011  1.00  0.00     0.018 C 
HETATM   15  N2  UNL     1      22.238   1.279  51.172  1.00  0.00    -0.257 NA
HETATM   16  C16 UNL     1      22.381   1.451  49.774  1.00  0.00     0.215 A 
HETATM   17  N3  UNL     1      22.305   1.847  48.478  1.00  0.00    -0.277 NA
HETATM   18  C17 UNL     1      21.500   2.558  49.340  1.00  0.00     0.199 A 
HETATM   19  C18 UNL     1      21.980   1.447  53.287  1.00  0.00     0.102 C 
HETATM   20  H7  UNL     1      26.217   2.251  49.353  1.00  0.00     0.318 HD
ENDROOT
BRANCH  12  21
HETATM   21  O2  UNL     1      20.643   4.583  49.944  1.00  0.00    -0.373 OA
BRANCH  21  22
HETATM   22  C11 UNL     1      19.531   3.802  49.886  1.00  0.00     0.195 C 
BRANCH  22  23
HETATM   23  C12 UNL     1      18.600   4.334  50.977  1.00  0.00     0.193 C 
BRANCH  23  24
HETATM   24  O3  UNL     1      18.348   3.383  51.928  1.00  0.00    -0.394 OA
HETATM   25  C13 UNL     1      18.519   2.093  51.529  1.00  0.00     0.201 C 
ENDBRANCH  23  24
ENDBRANCH  22  23
ENDBRANCH  21  22
ENDBRANCH  12  21
TORSDOF 4
ENDMDL
MODEL 6
REMARK VINA RESULT:      -6.7      3.168      7.045
REMARK  4 active torsions:
REMARK  status: ('A' for Active; 'I' for Inactive)
REMARK    1  A    between atoms: C10_12  and  O2_13 
REMARK    2  A    between atoms: O2_13  and  C11_14 
REMARK    3  A    between atoms: C11_14  and  C12_15 
REMARK    4  A    between atoms: C12_15  and  O3_16 
ROOT
HETATM    1  C1  UNL     1      21.817   4.326  46.064  1.00  0.00     0.017 C 
HETATM    2  C2  UNL     1      22.184   3.656  47.037  1.00  0.00    -0.082 C 
HETATM    3  C3  UNL     1      22.642   2.869  48.199  1.00  0.00    -0.004 C 
HETATM    4  C4  UNL     1      23.532   3.552  48.949  1.00  0.00    -0.005 C 
HETATM    5  C5  UNL     1      24.062   2.790  50.098  1.00  0.00     0.023 C 
HETATM    6  C6  UNL     1      24.825   2.777  51.195  1.00  0.00     0.028 C 
HETATM    7  C7  UNL     1      25.071   1.623  52.067  1.00  0.00     0.278 C 
HETATM    8  N1  UNL     1      24.215   1.590  53.288  1.00  0.00     0.106 N 
HETATM    9  C8  UNL     1      22.969   0.966  52.714  1.00  0.00     0.437 C 
HETATM   10  O1  UNL     1      21.928   0.963  53.517  1.00  0.00    -0.360 OA
HETATM   11  C9  UNL     1      20.846   0.215  53.077  1.00  0.00     0.210 C 
HETATM   12  C10 UNL     1      20.195   0.528  51.786  1.00  0.00     0.113 C 
HETATM   13  C14 UNL     1      20.991   0.264  50.590  1.00  0.00     0.097 C 
HETATM   14  C15 UNL     1      21.235   1.423  49.683  1.00  0.00     0.018 C 
HETATM   15  N2  UNL     1      21.064   2.632  50.136  1.00  0.00    -0.257 NA
HETATM   16  C16 UNL     1      20.664   2.919  51.463  1.00  0.00     0.215 A 
HETATM   17  N3  UNL     1      20.092   2.945  52.693  1.00  0.00    -0.277 NA
HETATM   18  C17 UNL     1      19.635   1.937  51.873  1.00  0.00     0.199 A 
HETATM   19  C18 UNL     1      21.608   1.788  48.249  1.00  0.00     0.102 C 
HETATM   20  H7  UNL     1      24.023   2.601  53.500  1.00  0.00     0.318 HD
ENDROOT
BRANCH  12  21
HETATM   21  O2  UNL     1      18.975  -0.237  51.679  1.00  0.00    -0.373 OA
BRANCH  21  22
HETATM   22  C11 UNL     1      18.514  -0.706  52.869  1.00  0.00     0.195 C 
BRANCH  22  23
HETATM   23  C12 UNL     1      17.036  -1.024  52.639  1.00  0.00     0.193 C 
BRANCH  23  24
HETATM   24  O3  UNL     1      16.738  -2.309  53.005  1.00  0.00    -0.394 OA
HETATM   25  C13 UNL     1      17.715  -2.968  53.686  1.00  0.00     0.201 C 
ENDBRANCH  23  24
ENDBRANCH  22  23
ENDBRANCH  21  22
ENDBRANCH  12  21
TORSDOF 4
ENDMDL
MODEL 7
REMARK VINA RESULT:      -6.7      2.280      3.764
REMARK  4 active torsions:
REMARK  status: ('A' for Active; 'I' for Inactive)
REMARK    1  A    between atoms: C10_12  and  O2_13 
REMARK    2  A    between atoms: O2_13  and  C11_14 
REMARK    3  A    between atoms: C11_14  and  C12_15 
REMARK    4  A    between atoms: C12_15  and  O3_16 
ROOT
HETATM    1  C1  UNL     1      22.682  -1.259  55.392  1.00  0.00     0.017 C 
HETATM    2  C2  UNL     1      22.178  -0.866  54.332  1.00  0.00    -0.082 C 
HETATM    3  C3  UNL     1      21.556  -0.405  53.076  1.00  0.00    -0.004 C 
HETATM    4  C4  UNL     1      20.232  -0.185  53.222  1.00  0.00    -0.005 C 
HETATM    5  C5  UNL     1      19.550   0.229  51.980  1.00  0.00     0.023 C 
HETATM    6  C6  UNL     1      18.424   0.637  51.386  1.00  0.00     0.028 C 
HETATM    7  C7  UNL     1      18.247   0.912  49.955  1.00  0.00     0.278 C 
HETATM    8  N1  UNL     1      18.350   2.356  49.597  1.00  0.00     0.106 N 
HETATM    9  C8  UNL     1      19.847   2.493  49.499  1.00  0.00     0.437 C 
HETATM   10  O1  UNL     1      20.285   3.726  49.370  1.00  0.00    -0.360 OA
HETATM   11  C9  UNL     1      21.636   3.844  49.076  1.00  0.00     0.210 C 
HETATM   12  C10 UNL     1      22.653   3.288  49.995  1.00  0.00     0.113 C 
HETATM   13  C14 UNL     1      22.698   1.830  50.089  1.00  0.00     0.097 C 
HETATM   14  C15 UNL     1      22.503   1.244  51.447  1.00  0.00     0.018 C 
HETATM   15  N2  UNL     1      21.962   1.972  52.381  1.00  0.00    -0.257 NA
HETATM   16  C16 UNL     1      21.531   3.305  52.182  1.00  0.00     0.215 A 
HETATM   17  N3  UNL     1      21.382   4.604  51.820  1.00  0.00    -0.277 NA
HETATM   18  C17 UNL     1      22.519   4.002  51.329  1.00  0.00     0.199 A 
HETATM   19  C18 UNL     1      22.759  -0.009  52.278  1.00  0.00     0.102 C 
HETATM   20  H7  UNL     1      18.016   2.863  50.454  1.00  0.00     0.318 HD
ENDROOT
BRANCH  12  21
HETATM   21  O2  UNL     1      23.959   3.742  49.580  1.00  0.00    -0.373 OA
BRANCH  21  22
HETATM   22  C11 UNL     1      24.805   4.001  50.612  1.00  0.00     0.195 C 
BRANCH  22  23
HETATM   23  C12 UNL     1      26.212   3.791  50.051  1.00  0.00     0.193 C 
BRANCH  23  24
HETATM   24  O3  UNL     1      26.853   2.757  50.678  1.00  0.00    -0.394 OA
HETATM   25  C13 UNL     1      26.249   2.289  51.805  1.00  0.00     0.201 C 
ENDBRANCH  23  24
ENDBRANCH  22  23
ENDBRANCH  21  22
ENDBRANCH  12  21
TORSDOF 4
ENDMDL
MODEL 8
REMARK VINA RESULT:      -6.6      2.918      5.639
REMARK  4 active torsions:
REMARK  status: ('A' for Active; 'I' for Inactive)
REMARK    1  A    between atoms: C10_12  and  O2_13 
REMARK    2  A    between atoms: O2_13  and  C11_14 
REMARK    3  A    between atoms: C11_14  and  C12_15 
REMARK    4  A    between atoms: C12_15  and  O3_16 
ROOT
HETATM    1  C1  UNL     1      25.738   5.230  49.226  1.00  0.00     0.017 C 
HETATM    2  C2  UNL     1      25.253   4.195  49.701  1.00  0.00    -0.082 C 
HETATM    3  C3  UNL     1      24.693   2.960  50.283  1.00  0.00    -0.004 C 
HETATM    4  C4  UNL     1      25.124   2.759  51.546  1.00  0.00    -0.005 C 
HETATM    5  C5  UNL     1      24.634   1.508  52.158  1.00  0.00     0.023 C 
HETATM    6  C6  UNL     1      24.565   0.725  53.240  1.00  0.00     0.028 C 
HETATM    7  C7  UNL     1      23.909  -0.585  53.323  1.00  0.00     0.278 C 
HETATM    8  N1  UNL     1      22.536  -0.540  53.902  1.00  0.00     0.106 N 
HETATM    9  C8  UNL     1      21.749  -0.159  52.675  1.00  0.00     0.437 C 
HETATM   10  O1  UNL     1      20.489   0.146  52.895  1.00  0.00    -0.360 OA
HETATM   11  C9  UNL     1      19.712   0.299  51.756  1.00  0.00     0.210 C 
HETATM   12  C10 UNL     1      20.065   1.316  50.741  1.00  0.00     0.113 C 
HETATM   13  C14 UNL     1      21.294   1.067  49.990  1.00  0.00     0.097 C 
HETATM   14  C15 UNL     1      22.343   2.125  50.060  1.00  0.00     0.018 C 
HETATM   15  N2  UNL     1      22.294   3.006  51.019  1.00  0.00    -0.257 NA
HETATM   16  C16 UNL     1      21.297   3.014  52.022  1.00  0.00     0.215 A 
HETATM   17  N3  UNL     1      20.149   2.945  52.744  1.00  0.00    -0.277 NA
HETATM   18  C17 UNL     1      19.995   2.682  51.401  1.00  0.00     0.199 A 
HETATM   19  C18 UNL     1      23.570   2.670  49.337  1.00  0.00     0.102 C 
HETATM   20  H7  UNL     1      22.556   0.276  54.563  1.00  0.00     0.318 HD
ENDROOT
BRANCH  12  21
HETATM   21  O2  UNL     1      18.984   1.424  49.790  1.00  0.00    -0.373 OA
BRANCH  21  22
HETATM   22  C11 UNL     1      17.900   0.664  50.102  1.00  0.00     0.195 C 
BRANCH  22  23
HETATM   23  C12 UNL     1      16.716   1.633  50.135  1.00  0.00     0.193 C 
BRANCH  23  24
HETATM   24  O3  UNL     1      16.350   1.933  51.419  1.00  0.00    -0.394 OA
HETATM   25  C13 UNL     1      16.348   3.257  51.735  1.00  0.00     0.201 C 
ENDBRANCH  23  24
ENDBRANCH  22  23
ENDBRANCH  21  22
ENDBRANCH  12  21
TORSDOF 4
ENDMDL
MODEL 9
REMARK VINA RESULT:      -6.6      1.475      2.041
REMARK  4 active torsions:
REMARK  status: ('A' for Active; 'I' for Inactive)
REMARK    1  A    between atoms: C10_12  and  O2_13 
REMARK    2  A    between atoms: O2_13  and  C11_14 
REMARK    3  A    between atoms: C11_14  and  C12_15 
REMARK    4  A    between atoms: C12_15  and  O3_16 
ROOT
HETATM    1  C1  UNL     1      29.010   0.590  53.710  1.00  0.00     0.017 C 
HETATM    2  C2  UNL     1      27.840   0.530  53.311  1.00  0.00    -0.082 C 
HETATM    3  C3  UNL     1      26.441   0.442  52.851  1.00  0.00    -0.004 C 
HETATM    4  C4  UNL     1      25.616   0.013  53.829  1.00  0.00    -0.005 C 
HETATM    5  C5  UNL     1      24.210  -0.143  53.407  1.00  0.00     0.023 C 
HETATM    6  C6  UNL     1      22.948  -0.423  53.748  1.00  0.00     0.028 C 
HETATM    7  C7  UNL     1      21.797  -0.481  52.839  1.00  0.00     0.278 C 
HETATM    8  N1  UNL     1      20.972   0.761  52.823  1.00  0.00     0.106 N 
HETATM    9  C8  UNL     1      21.772   1.590  51.851  1.00  0.00     0.437 C 
HETATM   10  O1  UNL     1      21.398   2.846  51.752  1.00  0.00    -0.360 OA
HETATM   11  C9  UNL     1      21.991   3.559  50.721  1.00  0.00     0.210 C 
HETATM   12  C10 UNL     1      23.461   3.707  50.660  1.00  0.00     0.113 C 
HETATM   13  C14 UNL     1      24.214   2.485  50.383  1.00  0.00     0.097 C 
HETATM   14  C15 UNL     1      25.230   2.084  51.399  1.00  0.00     0.018 C 
HETATM   15  N2  UNL     1      25.163   2.587  52.598  1.00  0.00    -0.257 NA
HETATM   16  C16 UNL     1      24.162   3.499  53.008  1.00  0.00     0.215 A 
HETATM   17  N3  UNL     1      23.245   4.494  53.111  1.00  0.00    -0.277 NA
HETATM   18  C17 UNL     1      23.908   4.453  51.905  1.00  0.00     0.199 A 
HETATM   19  C18 UNL     1      26.492   1.249  51.592  1.00  0.00     0.102 C 
HETATM   20  H7  UNL     1      21.084   1.162  53.787  1.00  0.00     0.318 HD
ENDROOT
BRANCH  12  21
HETATM   21  O2  UNL     1      23.794   4.669  49.638  1.00  0.00    -0.373 OA
BRANCH  21  22
HETATM   22  C11 UNL     1      22.798   4.883  48.738  1.00  0.00     0.195 C 
BRANCH  22  23
HETATM   23  C12 UNL     1      22.704   6.401  48.582  1.00  0.00     0.193 C 
BRANCH  23  24
HETATM   24  O3  UNL     1      21.632   6.910  49.263  1.00  0.00    -0.394 OA
HETATM   25  C13 UNL     1      21.918   7.495  50.457  1.00  0.00     0.201 C 
ENDBRANCH  23  24
ENDBRANCH  22  23
ENDBRANCH  21  22
ENDBRANCH  12  21
TORSDOF 4
ENDMDL
