MODEL 1
REMARK VINA RESULT:      -8.0      0.000      0.000
REMARK  6 active torsions:
REMARK  status: ('A' for Active; 'I' for Inactive)
REMARK    1  A    between atoms: C2_2  and  C3_3 
REMARK       I    between atoms: C3_3  and  N1_5 
REMARK    2  A    between atoms: N1_5  and  C4_6 
REMARK    3  A    between atoms: C8_10  and  N2_11 
REMARK    4  A    between atoms: N2_11  and  C9_12 
REMARK    5  A    between atoms: C10_14  and  N4_15 
REMARK    6  A    between atoms: C12_18  and  C13_19 
ROOT
HETATM    1  N2  UNL     1      25.772   0.922  53.832  1.00  0.00    -0.340 N 
HETATM    2  H8  UNL     1      25.434   0.601  54.761  1.00  0.00     0.167 HD
ENDROOT
BRANCH   1   3
HETATM    3  C8  UNL     1      24.966   1.506  52.833  1.00  0.00     0.035 A 
HETATM    4  C7  UNL     1      23.829   0.836  52.432  1.00  0.00     0.029 A 
HETATM    5  C6  UNL     1      23.053   1.433  51.447  1.00  0.00     0.004 A 
HETATM    6  C5  UNL     1      23.425   2.657  50.899  1.00  0.00     0.029 A 
HETATM    7  C4  UNL     1      24.576   3.277  51.342  1.00  0.00     0.037 A 
HETATM    8  C14 UNL     1      25.393   2.719  52.333  1.00  0.00     0.059 A 
BRANCH   7   9
HETATM    9  N1  UNL     1      25.003   4.537  50.812  1.00  0.00    -0.324 N 
HETATM   10  C3  UNL     1      25.909   4.371  49.731  1.00  0.00     0.244 C 
HETATM   11  O1  UNL     1      26.234   3.214  49.358  1.00  0.00    -0.268 OA
HETATM   12  H4  UNL     1      24.807   5.538  51.031  1.00  0.00     0.169 HD
BRANCH  10  13
HETATM   13  C2  UNL     1      26.563   5.395  48.931  1.00  0.00     0.064 C 
HETATM   14  C1  UNL     1      27.751   4.920  48.610  1.00  0.00     0.017 C 
ENDBRANCH  10  13
ENDBRANCH   7   9
ENDBRANCH   1   3
BRANCH   1  15
HETATM   15  C9  UNL     1      27.144   0.644  53.829  1.00  0.00     0.164 A 
HETATM   16  N3  UNL     1      27.918   1.620  54.383  1.00  0.00    -0.044 NA
HETATM   17  C10 UNL     1      29.250   1.474  54.439  1.00  0.00     0.721 A 
HETATM   18  N5  UNL     1      29.811   0.345  53.938  1.00  0.00    -0.075 NA
HETATM   19  C11 UNL     1      29.067  -0.626  53.389  1.00  0.00     0.156 A 
HETATM   20  C12 UNL     1      27.696  -0.512  53.313  1.00  0.00     0.112 A 
BRANCH  17  21
HETATM   21  N4  UNL     1      30.190   2.385  54.978  1.00  0.00    -0.231 N 
HETATM   22  H9  UNL     1      30.484   2.430  55.990  1.00  0.00     0.174 HD
HETATM   23  H10 UNL     1      30.746   3.151  54.493  1.00  0.00     0.174 HD
ENDBRANCH  17  21
BRANCH  20  24
HETATM   24  C13 UNL     1      26.805  -1.543  52.720  1.00  0.00     0.422 C 
HETATM   25  F1  UNL     1      26.468  -1.161  51.440  1.00  0.00    -0.166 F 
HETATM   26  F2  UNL     1      27.579  -2.709  52.652  1.00  0.00    -0.166 F 
HETATM   27  F3  UNL     1      25.740  -1.793  53.535  1.00  0.00    -0.166 F 
ENDBRANCH  20  24
ENDBRANCH   1  15
TORSDOF 6
ENDMDL
MODEL 2
REMARK VINA RESULT:      -7.8      3.383      4.595
REMARK  6 active torsions:
REMARK  status: ('A' for Active; 'I' for Inactive)
REMARK    1  A    between atoms: C2_2  and  C3_3 
REMARK       I    between atoms: C3_3  and  N1_5 
REMARK    2  A    between atoms: N1_5  and  C4_6 
REMARK    3  A    between atoms: C8_10  and  N2_11 
REMARK    4  A    between atoms: N2_11  and  C9_12 
REMARK    5  A    between atoms: C10_14  and  N4_15 
REMARK    6  A    between atoms: C12_18  and  C13_19 
ROOT
HETATM    1  N2  UNL     1      25.764   0.389  52.187  1.00  0.00    -0.340 N 
HETATM    2  H8  UNL     1      26.017   0.776  51.256  1.00  0.00     0.167 HD
ENDROOT
BRANCH   1   3
HETATM    3  C8  UNL     1      24.462   0.357  52.726  1.00  0.00     0.035 A 
HETATM    4  C7  UNL     1      24.204  -0.508  53.768  1.00  0.00     0.029 A 
HETATM    5  C6  UNL     1      22.914  -0.519  54.281  1.00  0.00     0.004 A 
HETATM    6  C5  UNL     1      21.934   0.316  53.751  1.00  0.00     0.029 A 
HETATM    7  C4  UNL     1      22.256   1.161  52.707  1.00  0.00     0.037 A 
HETATM    8  C14 UNL     1      23.541   1.211  52.154  1.00  0.00     0.059 A 
BRANCH   7   9
HETATM    9  N1  UNL     1      21.287   2.040  52.126  1.00  0.00    -0.324 N 
HETATM   10  C3  UNL     1      20.584   1.417  51.062  1.00  0.00     0.244 C 
HETATM   11  O1  UNL     1      20.853   0.229  50.744  1.00  0.00    -0.268 OA
HETATM   12  H4  UNL     1      20.979   3.022  52.300  1.00  0.00     0.169 HD
BRANCH  10  13
HETATM   13  C2  UNL     1      19.529   1.969  50.226  1.00  0.00     0.064 C 
HETATM   14  C1  UNL     1      18.620   1.021  50.092  1.00  0.00     0.017 C 
ENDBRANCH  10  13
ENDBRANCH   7   9
ENDBRANCH   1   3
BRANCH   1  15
HETATM   15  C9  UNL     1      26.972  -0.064  52.733  1.00  0.00     0.164 A 
HETATM   16  N3  UNL     1      27.150  -1.414  52.663  1.00  0.00    -0.044 NA
HETATM   17  C10 UNL     1      28.267  -1.973  53.153  1.00  0.00     0.721 A 
HETATM   18  N5  UNL     1      29.211  -1.176  53.714  1.00  0.00    -0.075 NA
HETATM   19  C11 UNL     1      29.054   0.153  53.793  1.00  0.00     0.156 A 
HETATM   20  C12 UNL     1      27.920   0.763  53.301  1.00  0.00     0.112 A 
BRANCH  17  21
HETATM   21  N4  UNL     1      28.605  -3.347  53.159  1.00  0.00    -0.231 N 
HETATM   22  H9  UNL     1      28.893  -3.908  52.313  1.00  0.00     0.174 HD
HETATM   23  H10 UNL     1      28.633  -4.034  53.970  1.00  0.00     0.174 HD
ENDBRANCH  17  21
BRANCH  20  24
HETATM   24  C13 UNL     1      27.674   2.227  53.351  1.00  0.00     0.422 C 
HETATM   25  F1  UNL     1      26.588   2.472  54.162  1.00  0.00    -0.166 F 
HETATM   26  F2  UNL     1      28.815   2.777  53.950  1.00  0.00    -0.166 F 
HETATM   27  F3  UNL     1      27.569   2.747  52.094  1.00  0.00    -0.166 F 
ENDBRANCH  20  24
ENDBRANCH   1  15
TORSDOF 6
ENDMDL
MODEL 3
REMARK VINA RESULT:      -7.7      3.060      3.696
REMARK  6 active torsions:
REMARK  status: ('A' for Active; 'I' for Inactive)
REMARK    1  A    between atoms: C2_2  and  C3_3 
REMARK       I    between atoms: C3_3  and  N1_5 
REMARK    2  A    between atoms: N1_5  and  C4_6 
REMARK    3  A    between atoms: C8_10  and  N2_11 
REMARK    4  A    between atoms: N2_11  and  C9_12 
REMARK    5  A    between atoms: C10_14  and  N4_15 
REMARK    6  A    between atoms: C12_18  and  C13_19 
ROOT
HETATM    1  N2  UNL     1      25.958   0.498  51.891  1.00  0.00    -0.340 N 
HETATM    2  H8  UNL     1      26.321   0.717  50.943  1.00  0.00     0.167 HD
ENDROOT
BRANCH   1   3
HETATM    3  C8  UNL     1      24.627   0.687  52.314  1.00  0.00     0.035 A 
HETATM    4  C7  UNL     1      24.139  -0.113  53.326  1.00  0.00     0.029 A 
HETATM    5  C6  UNL     1      22.825   0.094  53.724  1.00  0.00     0.004 A 
HETATM    6  C5  UNL     1      22.047   1.074  53.113  1.00  0.00     0.029 A 
HETATM    7  C4  UNL     1      22.594   1.843  52.105  1.00  0.00     0.037 A 
HETATM    8  C14 UNL     1      23.913   1.675  51.668  1.00  0.00     0.059 A 
BRANCH   7   9
HETATM    9  N1  UNL     1      21.837   2.864  51.445  1.00  0.00    -0.324 N 
HETATM   10  C3  UNL     1      22.253   4.163  51.840  1.00  0.00     0.244 C 
HETATM   11  O1  UNL     1      23.184   4.295  52.677  1.00  0.00    -0.268 OA
HETATM   12  H4  UNL     1      21.061   2.877  50.749  1.00  0.00     0.169 HD
BRANCH  10  13
HETATM   13  C2  UNL     1      21.739   5.452  51.401  1.00  0.00     0.064 C 
HETATM   14  C1  UNL     1      22.791   6.212  51.159  1.00  0.00     0.017 C 
ENDBRANCH  10  13
ENDBRANCH   7   9
ENDBRANCH   1   3
BRANCH   1  15
HETATM   15  C9  UNL     1      27.061  -0.001  52.596  1.00  0.00     0.164 A 
HETATM   16  N3  UNL     1      27.226  -1.352  52.499  1.00  0.00    -0.044 NA
HETATM   17  C10 UNL     1      28.246  -1.953  53.130  1.00  0.00     0.721 A 
HETATM   18  N5  UNL     1      29.104  -1.199  53.862  1.00  0.00    -0.075 NA
HETATM   19  C11 UNL     1      28.958   0.129  53.970  1.00  0.00     0.156 A 
HETATM   20  C12 UNL     1      27.922   0.782  53.337  1.00  0.00     0.112 A 
BRANCH  17  21
HETATM   21  N4  UNL     1      28.558  -3.333  53.130  1.00  0.00    -0.231 N 
HETATM   22  H9  UNL     1      29.531  -3.738  53.176  1.00  0.00     0.174 HD
HETATM   23  H10 UNL     1      27.909  -4.174  53.089  1.00  0.00     0.174 HD
ENDBRANCH  17  21
BRANCH  20  24
HETATM   24  C13 UNL     1      27.694   2.248  53.409  1.00  0.00     0.422 C 
HETATM   25  F1  UNL     1      28.796   2.846  53.981  1.00  0.00    -0.166 F 
HETATM   26  F2  UNL     1      27.592   2.675  52.078  1.00  0.00    -0.166 F 
HETATM   27  F3  UNL     1      26.512   2.528  54.031  1.00  0.00    -0.166 F 
ENDBRANCH  20  24
ENDBRANCH   1  15
TORSDOF 6
ENDMDL
MODEL 4
REMARK VINA RESULT:      -7.5      2.981      6.198
REMARK  6 active torsions:
REMARK  status: ('A' for Active; 'I' for Inactive)
REMARK    1  A    between atoms: C2_2  and  C3_3 
REMARK       I    between atoms: C3_3  and  N1_5 
REMARK    2  A    between atoms: N1_5  and  C4_6 
REMARK    3  A    between atoms: C8_10  and  N2_11 
REMARK    4  A    between atoms: N2_11  and  C9_12 
REMARK    5  A    between atoms: C10_14  and  N4_15 
REMARK    6  A    between atoms: C12_18  and  C13_19 
ROOT
HETATM    1  N2  UNL     1      23.963   2.445  50.633  1.00  0.00    -0.340 N 
HETATM    2  H8  UNL     1      23.827   2.196  49.633  1.00  0.00     0.167 HD
ENDROOT
BRANCH   1   3
HETATM    3  C8  UNL     1      24.010   1.524  51.699  1.00  0.00     0.035 A 
HETATM    4  C7  UNL     1      22.838   1.231  52.365  1.00  0.00     0.029 A 
HETATM    5  C6  UNL     1      22.911   0.320  53.411  1.00  0.00     0.004 A 
HETATM    6  C5  UNL     1      24.127  -0.261  53.759  1.00  0.00     0.029 A 
HETATM    7  C4  UNL     1      25.266   0.075  53.054  1.00  0.00     0.037 A 
HETATM    8  C14 UNL     1      25.246   0.985  51.991  1.00  0.00     0.059 A 
BRANCH   7   9
HETATM    9  N1  UNL     1      26.541  -0.495  53.370  1.00  0.00    -0.324 N 
HETATM   10  C3  UNL     1      27.262   0.312  54.290  1.00  0.00     0.244 C 
HETATM   11  O1  UNL     1      26.754   1.381  54.717  1.00  0.00    -0.268 OA
HETATM   12  H4  UNL     1      27.059  -1.355  53.087  1.00  0.00     0.169 HD
BRANCH  10  13
HETATM   13  C2  UNL     1      28.583   0.082  54.855  1.00  0.00     0.064 C 
HETATM   14  C1  UNL     1      29.282  -0.549  53.931  1.00  0.00     0.017 C 
ENDBRANCH  10  13
ENDBRANCH   7   9
ENDBRANCH   1   3
BRANCH   1  15
HETATM   15  C9  UNL     1      24.082   3.841  50.647  1.00  0.00     0.164 A 
HETATM   16  N3  UNL     1      22.955   4.497  51.046  1.00  0.00    -0.044 NA
HETATM   17  C10 UNL     1      22.940   5.837  51.101  1.00  0.00     0.721 A 
HETATM   18  N5  UNL     1      24.057   6.524  50.755  1.00  0.00    -0.075 NA
HETATM   19  C11 UNL     1      25.175   5.897  50.360  1.00  0.00     0.156 A 
HETATM   20  C12 UNL     1      25.228   4.521  50.290  1.00  0.00     0.112 A 
BRANCH  17  21
HETATM   21  N4  UNL     1      21.861   6.665  51.491  1.00  0.00    -0.231 N 
HETATM   22  H9  UNL     1      21.767   7.691  51.265  1.00  0.00     0.174 HD
HETATM   23  H10 UNL     1      20.990   6.424  52.052  1.00  0.00     0.174 HD
ENDBRANCH  17  21
BRANCH  20  24
HETATM   24  C13 UNL     1      26.427   3.755  49.862  1.00  0.00     0.422 C 
HETATM   25  F1  UNL     1      26.044   2.792  48.954  1.00  0.00    -0.166 F 
HETATM   26  F2  UNL     1      27.250   4.683  49.212  1.00  0.00    -0.166 F 
HETATM   27  F3  UNL     1      27.109   3.274  50.942  1.00  0.00    -0.166 F 
ENDBRANCH  20  24
ENDBRANCH   1  15
TORSDOF 6
ENDMDL
MODEL 5
REMARK VINA RESULT:      -7.4      2.281      3.109
REMARK  6 active torsions:
REMARK  status: ('A' for Active; 'I' for Inactive)
REMARK    1  A    between atoms: C2_2  and  C3_3 
REMARK       I    between atoms: C3_3  and  N1_5 
REMARK    2  A    between atoms: N1_5  and  C4_6 
REMARK    3  A    between atoms: C8_10  and  N2_11 
REMARK    4  A    between atoms: N2_11  and  C9_12 
REMARK    5  A    between atoms: C10_14  and  N4_15 
REMARK    6  A    between atoms: C12_18  and  C13_19 
ROOT
HETATM    1  N2  UNL     1      23.878   0.869  52.299  1.00  0.00    -0.340 N 
HETATM    2  H8  UNL     1      23.776   0.096  51.612  1.00  0.00     0.167 HD
ENDROOT
BRANCH   1   3
HETATM    3  C8  UNL     1      23.451   2.197  52.095  1.00  0.00     0.035 A 
HETATM    4  C7  UNL     1      22.129   2.506  52.333  1.00  0.00     0.029 A 
HETATM    5  C6  UNL     1      21.735   3.822  52.125  1.00  0.00     0.004 A 
HETATM    6  C5  UNL     1      22.653   4.775  51.693  1.00  0.00     0.029 A 
HETATM    7  C4  UNL     1      23.964   4.402  51.472  1.00  0.00     0.037 A 
HETATM    8  C14 UNL     1      24.412   3.091  51.667  1.00  0.00     0.059 A 
BRANCH   7   9
HETATM    9  N1  UNL     1      24.947   5.344  51.027  1.00  0.00    -0.324 N 
HETATM   10  C3  UNL     1      25.176   5.243  49.630  1.00  0.00     0.244 C 
HETATM   11  O1  UNL     1      24.539   4.397  48.950  1.00  0.00    -0.268 OA
HETATM   12  H4  UNL     1      25.529   6.079  51.485  1.00  0.00     0.169 HD
BRANCH  10  13
HETATM   13  C2  UNL     1      26.089   6.017  48.803  1.00  0.00     0.064 C 
HETATM   14  C1  UNL     1      27.192   5.301  48.689  1.00  0.00     0.017 C 
ENDBRANCH  10  13
ENDBRANCH   7   9
ENDBRANCH   1   3
BRANCH   1  15
HETATM   15  C9  UNL     1      24.507   0.289  53.408  1.00  0.00     0.164 A 
HETATM   16  N3  UNL     1      25.801   0.681  53.589  1.00  0.00    -0.044 NA
HETATM   17  C10 UNL     1      26.513   0.195  54.617  1.00  0.00     0.721 A 
HETATM   18  N5  UNL     1      25.929  -0.686  55.467  1.00  0.00    -0.075 NA
HETATM   19  C11 UNL     1      24.659  -1.083  55.305  1.00  0.00     0.156 A 
HETATM   20  C12 UNL     1      23.895  -0.607  54.261  1.00  0.00     0.112 A 
BRANCH  17  21
HETATM   21  N4  UNL     1      27.856   0.497  54.945  1.00  0.00    -0.231 N 
HETATM   22  H9  UNL     1      28.406   1.316  54.572  1.00  0.00     0.174 HD
HETATM   23  H10 UNL     1      28.527  -0.014  55.594  1.00  0.00     0.174 HD
ENDBRANCH  17  21
BRANCH  20  24
HETATM   24  C13 UNL     1      22.483  -0.998  54.015  1.00  0.00     0.422 C 
HETATM   25  F1  UNL     1      22.375  -1.512  52.741  1.00  0.00    -0.166 F 
HETATM   26  F2  UNL     1      22.214  -2.020  54.935  1.00  0.00    -0.166 F 
HETATM   27  F3  UNL     1      21.636   0.038  54.280  1.00  0.00    -0.166 F 
ENDBRANCH  20  24
ENDBRANCH   1  15
TORSDOF 6
ENDMDL
MODEL 6
REMARK VINA RESULT:      -7.3      2.456      3.034
REMARK  6 active torsions:
REMARK  status: ('A' for Active; 'I' for Inactive)
REMARK    1  A    between atoms: C2_2  and  C3_3 
REMARK       I    between atoms: C3_3  and  N1_5 
REMARK    2  A    between atoms: N1_5  and  C4_6 
REMARK    3  A    between atoms: C8_10  and  N2_11 
REMARK    4  A    between atoms: N2_11  and  C9_12 
REMARK    5  A    between atoms: C10_14  and  N4_15 
REMARK    6  A    between atoms: C12_18  and  C13_19 
ROOT
HETATM    1  N2  UNL     1      26.259   0.993  53.491  1.00  0.00    -0.340 N 
HETATM    2  H8  UNL     1      26.009   1.090  54.495  1.00  0.00     0.167 HD
ENDROOT
BRANCH   1   3
HETATM    3  C8  UNL     1      25.500   1.492  52.414  1.00  0.00     0.035 A 
HETATM    4  C7  UNL     1      24.150   1.213  52.377  1.00  0.00     0.029 A 
HETATM    5  C6  UNL     1      23.426   1.718  51.305  1.00  0.00     0.004 A 
HETATM    6  C5  UNL     1      24.055   2.473  50.318  1.00  0.00     0.029 A 
HETATM    7  C4  UNL     1      25.410   2.717  50.413  1.00  0.00     0.037 A 
HETATM    8  C14 UNL     1      26.186   2.233  51.472  1.00  0.00     0.059 A 
BRANCH   7   9
HETATM    9  N1  UNL     1      26.105   3.488  49.426  1.00  0.00    -0.324 N 
HETATM   10  C3  UNL     1      25.918   4.881  49.621  1.00  0.00     0.244 C 
HETATM   11  O1  UNL     1      25.209   5.291  50.577  1.00  0.00    -0.268 OA
HETATM   12  H4  UNL     1      26.711   3.267  48.606  1.00  0.00     0.169 HD
BRANCH  10  13
HETATM   13  C2  UNL     1      26.454   5.986  48.840  1.00  0.00     0.064 C 
HETATM   14  C1  UNL     1      25.416   6.640  48.353  1.00  0.00     0.017 C 
ENDBRANCH  10  13
ENDBRANCH   7   9
ENDBRANCH   1   3
BRANCH   1  15
HETATM   15  C9  UNL     1      27.467   0.283  53.485  1.00  0.00     0.164 A 
HETATM   16  N3  UNL     1      27.331  -1.058  53.276  1.00  0.00    -0.044 NA
HETATM   17  C10 UNL     1      28.415  -1.848  53.248  1.00  0.00     0.721 A 
HETATM   18  N5  UNL     1      29.640  -1.295  53.431  1.00  0.00    -0.075 NA
HETATM   19  C11 UNL     1      29.794   0.021  53.638  1.00  0.00     0.156 A 
HETATM   20  C12 UNL     1      28.705   0.865  53.674  1.00  0.00     0.112 A 
BRANCH  17  21
HETATM   21  N4  UNL     1      28.447  -3.248  53.043  1.00  0.00    -0.231 N 
HETATM   22  H9  UNL     1      27.648  -3.829  52.675  1.00  0.00     0.174 HD
HETATM   23  H10 UNL     1      29.238  -3.939  53.210  1.00  0.00     0.174 HD
ENDBRANCH  17  21
BRANCH  20  24
HETATM   24  C13 UNL     1      28.794   2.331  53.898  1.00  0.00     0.422 C 
HETATM   25  F1  UNL     1      27.635   2.763  54.503  1.00  0.00    -0.166 F 
HETATM   26  F2  UNL     1      29.859   2.507  54.791  1.00  0.00    -0.166 F 
HETATM   27  F3  UNL     1      29.104   2.983  52.740  1.00  0.00    -0.166 F 
ENDBRANCH  20  24
ENDBRANCH   1  15
TORSDOF 6
ENDMDL
MODEL 7
REMARK VINA RESULT:      -7.1      1.828      3.061
REMARK  6 active torsions:
REMARK  status: ('A' for Active; 'I' for Inactive)
REMARK    1  A    between atoms: C2_2  and  C3_3 
REMARK       I    between atoms: C3_3  and  N1_5 
REMARK    2  A    between atoms: N1_5  and  C4_6 
REMARK    3  A    between atoms: C8_10  and  N2_11 
REMARK    4  A    between atoms: N2_11  and  C9_12 
REMARK    5  A    between atoms: C10_14  and  N4_15 
REMARK    6  A    between atoms: C12_18  and  C13_19 
ROOT
HETATM    1  N2  UNL     1      25.925   1.691  53.091  1.00  0.00    -0.340 N 
HETATM    2  H8  UNL     1      25.328   1.586  53.935  1.00  0.00     0.167 HD
ENDROOT
BRANCH   1   3
HETATM    3  C8  UNL     1      25.515   2.271  51.874  1.00  0.00     0.035 A 
HETATM    4  C7  UNL     1      26.484   2.694  50.988  1.00  0.00     0.029 A 
HETATM    5  C6  UNL     1      26.053   3.262  49.797  1.00  0.00     0.004 A 
HETATM    6  C5  UNL     1      24.693   3.392  49.526  1.00  0.00     0.029 A 
HETATM    7  C4  UNL     1      23.772   2.950  50.454  1.00  0.00     0.037 A 
HETATM    8  C14 UNL     1      24.153   2.369  51.669  1.00  0.00     0.059 A 
BRANCH   7   9
HETATM    9  N1  UNL     1      22.363   3.059  50.224  1.00  0.00    -0.324 N 
HETATM   10  C3  UNL     1      21.835   4.260  50.767  1.00  0.00     0.244 C 
HETATM   11  O1  UNL     1      22.596   5.068  51.360  1.00  0.00    -0.268 OA
HETATM   12  H4  UNL     1      21.640   2.469  49.756  1.00  0.00     0.169 HD
BRANCH  10  13
HETATM   13  C2  UNL     1      20.461   4.739  50.743  1.00  0.00     0.064 C 
HETATM   14  C1  UNL     1      19.736   3.830  51.367  1.00  0.00     0.017 C 
ENDBRANCH  10  13
ENDBRANCH   7   9
ENDBRANCH   1   3
BRANCH   1  15
HETATM   15  C9  UNL     1      27.162   1.142  53.451  1.00  0.00     0.164 A 
HETATM   16  N3  UNL     1      28.021   2.025  54.036  1.00  0.00    -0.044 NA
HETATM   17  C10 UNL     1      29.240   1.621  54.426  1.00  0.00     0.721 A 
HETATM   18  N5  UNL     1      29.601   0.329  54.229  1.00  0.00    -0.075 NA
HETATM   19  C11 UNL     1      28.771  -0.554  53.654  1.00  0.00     0.156 A 
HETATM   20  C12 UNL     1      27.512  -0.177  53.240  1.00  0.00     0.112 A 
BRANCH  17  21
HETATM   21  N4  UNL     1      30.243   2.405  55.045  1.00  0.00    -0.231 N 
HETATM   22  H9  UNL     1      30.082   3.095  55.826  1.00  0.00     0.174 HD
HETATM   23  H10 UNL     1      31.288   2.442  54.853  1.00  0.00     0.174 HD
ENDBRANCH  17  21
BRANCH  20  24
HETATM   24  C13 UNL     1      26.537  -1.096  52.598  1.00  0.00     0.422 C 
HETATM   25  F1  UNL     1      25.286  -0.863  53.127  1.00  0.00    -0.166 F 
HETATM   26  F2  UNL     1      26.525  -0.737  51.243  1.00  0.00    -0.166 F 
HETATM   27  F3  UNL     1      26.956  -2.391  52.685  1.00  0.00    -0.166 F 
ENDBRANCH  20  24
ENDBRANCH   1  15
TORSDOF 6
ENDMDL
MODEL 8
REMARK VINA RESULT:      -7.1      3.194      6.528
REMARK  6 active torsions:
REMARK  status: ('A' for Active; 'I' for Inactive)
REMARK    1  A    between atoms: C2_2  and  C3_3 
REMARK       I    between atoms: C3_3  and  N1_5 
REMARK    2  A    between atoms: N1_5  and  C4_6 
REMARK    3  A    between atoms: C8_10  and  N2_11 
REMARK    4  A    between atoms: N2_11  and  C9_12 
REMARK    5  A    between atoms: C10_14  and  N4_15 
REMARK    6  A    between atoms: C12_18  and  C13_19 
ROOT
HETATM    1  N2  UNL     1      23.384   2.490  52.206  1.00  0.00    -0.340 N 
HETATM    2  H8  UNL     1      23.183   3.448  52.555  1.00  0.00     0.167 HD
ENDROOT
BRANCH   1   3
HETATM    3  C8  UNL     1      23.982   1.461  52.961  1.00  0.00     0.035 A 
HETATM    4  C7  UNL     1      23.238   0.334  53.239  1.00  0.00     0.029 A 
HETATM    5  C6  UNL     1      23.851  -0.665  53.984  1.00  0.00     0.004 A 
HETATM    6  C5  UNL     1      25.163  -0.515  54.424  1.00  0.00     0.029 A 
HETATM    7  C4  UNL     1      25.855   0.638  54.114  1.00  0.00     0.037 A 
HETATM    8  C14 UNL     1      25.284   1.674  53.365  1.00  0.00     0.059 A 
BRANCH   7   9
HETATM    9  N1  UNL     1      27.206   0.842  54.541  1.00  0.00    -0.324 N 
HETATM   10  C3  UNL     1      28.134   0.225  53.661  1.00  0.00     0.244 C 
HETATM   11  O1  UNL     1      27.718  -0.402  52.653  1.00  0.00    -0.268 OA
HETATM   12  H4  UNL     1      27.664   1.333  55.340  1.00  0.00     0.169 HD
BRANCH  10  13
HETATM   13  C2  UNL     1      29.586   0.204  53.745  1.00  0.00     0.064 C 
HETATM   14  C1  UNL     1      29.949  -1.062  53.655  1.00  0.00     0.017 C 
ENDBRANCH  10  13
ENDBRANCH   7   9
ENDBRANCH   1   3
BRANCH   1  15
HETATM   15  C9  UNL     1      22.937   2.485  50.879  1.00  0.00     0.164 A 
HETATM   16  N3  UNL     1      21.707   1.924  50.702  1.00  0.00    -0.044 NA
HETATM   17  C10 UNL     1      21.167   1.857  49.475  1.00  0.00     0.721 A 
HETATM   18  N5  UNL     1      21.861   2.354  48.421  1.00  0.00    -0.075 NA
HETATM   19  C11 UNL     1      23.072   2.909  48.575  1.00  0.00     0.156 A 
HETATM   20  C12 UNL     1      23.659   2.995  49.819  1.00  0.00     0.112 A 
BRANCH  17  21
HETATM   21  N4  UNL     1      19.910   1.311  49.122  1.00  0.00    -0.231 N 
HETATM   22  H9  UNL     1      19.687   0.835  48.208  1.00  0.00     0.174 HD
HETATM   23  H10 UNL     1      19.004   1.278  49.680  1.00  0.00     0.174 HD
ENDBRANCH  17  21
BRANCH  20  24
HETATM   24  C13 UNL     1      24.995   3.595  50.070  1.00  0.00     0.422 C 
HETATM   25  F1  UNL     1      25.899   2.587  50.322  1.00  0.00    -0.166 F 
HETATM   26  F2  UNL     1      25.351   4.227  48.871  1.00  0.00    -0.166 F 
HETATM   27  F3  UNL     1      24.926   4.549  51.043  1.00  0.00    -0.166 F 
ENDBRANCH  20  24
ENDBRANCH   1  15
TORSDOF 6
ENDMDL
MODEL 9
REMARK VINA RESULT:      -7.1      3.313      6.303
REMARK  6 active torsions:
REMARK  status: ('A' for Active; 'I' for Inactive)
REMARK    1  A    between atoms: C2_2  and  C3_3 
REMARK       I    between atoms: C3_3  and  N1_5 
REMARK    2  A    between atoms: N1_5  and  C4_6 
REMARK    3  A    between atoms: C8_10  and  N2_11 
REMARK    4  A    between atoms: N2_11  and  C9_12 
REMARK    5  A    between atoms: C10_14  and  N4_15 
REMARK    6  A    between atoms: C12_18  and  C13_19 
ROOT
HETATM    1  N2  UNL     1      24.131   2.720  50.621  1.00  0.00    -0.340 N 
HETATM    2  H8  UNL     1      23.691   2.480  49.711  1.00  0.00     0.167 HD
ENDROOT
BRANCH   1   3
HETATM    3  C8  UNL     1      24.274   1.839  51.711  1.00  0.00     0.035 A 
HETATM    4  C7  UNL     1      23.256   0.945  51.971  1.00  0.00     0.029 A 
HETATM    5  C6  UNL     1      23.422   0.087  53.050  1.00  0.00     0.004 A 
HETATM    6  C5  UNL     1      24.577   0.143  53.827  1.00  0.00     0.029 A 
HETATM    7  C4  UNL     1      25.560   1.060  53.515  1.00  0.00     0.037 A 
HETATM    8  C14 UNL     1      25.442   1.946  52.438  1.00  0.00     0.059 A 
BRANCH   7   9
HETATM    9  N1  UNL     1      26.766   1.158  54.281  1.00  0.00    -0.324 N 
HETATM   10  C3  UNL     1      27.752   0.244  53.825  1.00  0.00     0.244 C 
HETATM   11  O1  UNL     1      27.500  -0.518  52.856  1.00  0.00    -0.268 OA
HETATM   12  H4  UNL     1      27.086   1.738  55.087  1.00  0.00     0.169 HD
BRANCH  10  13
HETATM   13  C2  UNL     1      29.100   0.037  54.334  1.00  0.00     0.064 C 
HETATM   14  C1  UNL     1      29.641  -0.908  53.588  1.00  0.00     0.017 C 
ENDBRANCH  10  13
ENDBRANCH   7   9
ENDBRANCH   1   3
BRANCH   1  15
HETATM   15  C9  UNL     1      24.521   4.060  50.493  1.00  0.00     0.164 A 
HETATM   16  N3  UNL     1      25.717   4.240  49.864  1.00  0.00    -0.044 NA
HETATM   17  C10 UNL     1      26.202   5.477  49.680  1.00  0.00     0.721 A 
HETATM   18  N5  UNL     1      25.487   6.539  50.128  1.00  0.00    -0.075 NA
HETATM   19  C11 UNL     1      24.309   6.382  50.750  1.00  0.00     0.156 A 
HETATM   20  C12 UNL     1      23.779   5.127  50.957  1.00  0.00     0.112 A 
BRANCH  17  21
HETATM   21  N4  UNL     1      27.418   5.835  49.050  1.00  0.00    -0.231 N 
HETATM   22  H9  UNL     1      28.124   5.157  48.658  1.00  0.00     0.174 HD
HETATM   23  H10 UNL     1      27.825   6.799  48.861  1.00  0.00     0.174 HD
ENDBRANCH  17  21
BRANCH  20  24
HETATM   24  C13 UNL     1      22.482   4.872  51.636  1.00  0.00     0.422 C 
HETATM   25  F1  UNL     1      22.727   4.436  52.920  1.00  0.00    -0.166 F 
HETATM   26  F2  UNL     1      21.844   6.118  51.699  1.00  0.00    -0.166 F 
HETATM   27  F3  UNL     1      21.700   4.036  50.895  1.00  0.00    -0.166 F 
ENDBRANCH  20  24
ENDBRANCH   1  15
TORSDOF 6
ENDMDL
