MODEL 1
REMARK VINA RESULT:      -8.1      0.000      0.000
REMARK  4 active torsions:
REMARK  status: ('A' for Active; 'I' for Inactive)
REMARK    1  A    between atoms: C2_2  and  O1_3 
REMARK    2  A    between atoms: O1_3  and  C3_4 
REMARK    3  A    between atoms: C7_10  and  N3_11 
REMARK    4  A    between atoms: N3_11  and  C8_12 
ROOT
HETATM    1  C3  UNL     1      26.072  -0.272  54.478  1.00  0.00     0.107 A 
HETATM    2  C4  UNL     1      25.003  -0.912  55.062  1.00  0.00     0.072 A 
HETATM    3  C5  UNL     1      23.706  -0.876  54.565  1.00  0.00     0.077 A 
HETATM    4  N1  UNL     1      22.697  -1.500  55.131  1.00  0.00    -0.241 NA
HETATM    5  C6  UNL     1      21.442  -1.450  54.658  1.00  0.00     0.236 A 
HETATM    6  N2  UNL     1      21.157  -0.722  53.525  1.00  0.00    -0.223 NA
HETATM    7  C7  UNL     1      22.198  -0.081  52.935  1.00  0.00     0.144 A 
HETATM    8  C15 UNL     1      23.510  -0.118  53.390  1.00  0.00     0.075 A 
HETATM    9  C16 UNL     1      24.497   0.537  52.738  1.00  0.00     0.121 A 
HETATM   10  C17 UNL     1      25.811   0.449  53.308  1.00  0.00     0.136 A 
HETATM   11  O2  UNL     1      26.801   1.133  52.619  1.00  0.00    -0.344 OA
HETATM   12  C18 UNL     1      26.582   1.889  51.455  1.00  0.00     0.202 C 
HETATM   13  C19 UNL     1      25.149   2.335  51.327  1.00  0.00     0.202 C 
HETATM   14  O3  UNL     1      24.272   1.270  51.577  1.00  0.00    -0.345 OA
ENDROOT
BRANCH   7  15
HETATM   15  N3  UNL     1      21.769   0.716  51.899  1.00  0.00    -0.340 N 
HETATM   16  H8  UNL     1      22.180   1.650  52.002  1.00  0.00     0.167 HD
BRANCH  15  17
HETATM   17  C8  UNL     1      21.132   1.276  50.784  1.00  0.00     0.033 A 
HETATM   18  C9  UNL     1      21.605   1.155  49.488  1.00  0.00     0.030 A 
HETATM   19  C10 UNL     1      21.002   1.734  48.401  1.00  0.00     0.009 A 
HETATM   20  C11 UNL     1      19.883   2.446  48.731  1.00  0.00    -0.062 A 
HETATM   21  C12 UNL     1      19.184   3.157  47.620  1.00  0.00     0.048 C 
HETATM   22  C13 UNL     1      19.273   2.667  49.967  1.00  0.00     0.009 A 
HETATM   23  C14 UNL     1      19.961   2.036  51.000  1.00  0.00     0.030 A 
ENDBRANCH  15  17
ENDBRANCH   7  15
BRANCH   1  24
HETATM   24  O1  UNL     1      27.327  -0.085  54.677  1.00  0.00    -0.348 OA
BRANCH  24  25
HETATM   25  C2  UNL     1      28.601   0.006  54.896  1.00  0.00     0.171 C 
HETATM   26  C1  UNL     1      29.496  -0.704  53.877  1.00  0.00     0.034 C 
ENDBRANCH  24  25
ENDBRANCH   1  24
TORSDOF 4
ENDMDL
MODEL 2
REMARK VINA RESULT:      -8.1      2.029      3.991
REMARK  4 active torsions:
REMARK  status: ('A' for Active; 'I' for Inactive)
REMARK    1  A    between atoms: C2_2  and  O1_3 
REMARK    2  A    between atoms: O1_3  and  C3_4 
REMARK    3  A    between atoms: C7_10  and  N3_11 
REMARK    4  A    between atoms: N3_11  and  C8_12 
ROOT
HETATM    1  C3  UNL     1      27.172   1.614  52.616  1.00  0.00     0.107 A 
HETATM    2  C4  UNL     1      26.823   2.362  51.515  1.00  0.00     0.072 A 
HETATM    3  C5  UNL     1      25.528   2.472  51.025  1.00  0.00     0.077 A 
HETATM    4  N1  UNL     1      25.210   3.197  49.977  1.00  0.00    -0.241 NA
HETATM    5  C6  UNL     1      23.960   3.287  49.497  1.00  0.00     0.236 A 
HETATM    6  N2  UNL     1      22.932   2.605  50.107  1.00  0.00    -0.223 NA
HETATM    7  C7  UNL     1      23.256   1.859  51.193  1.00  0.00     0.144 A 
HETATM    8  C15 UNL     1      24.535   1.749  51.724  1.00  0.00     0.075 A 
HETATM    9  C16 UNL     1      24.777   0.996  52.821  1.00  0.00     0.121 A 
HETATM   10  C17 UNL     1      26.139   0.936  53.270  1.00  0.00     0.136 A 
HETATM   11  O2  UNL     1      26.355   0.154  54.395  1.00  0.00    -0.344 OA
HETATM   12  C18 UNL     1      25.353  -0.563  55.070  1.00  0.00     0.202 C 
HETATM   13  C19 UNL     1      24.166  -0.850  54.187  1.00  0.00     0.202 C 
HETATM   14  O3  UNL     1      23.775   0.302  53.491  1.00  0.00    -0.345 OA
ENDROOT
BRANCH   7  15
HETATM   15  N3  UNL     1      22.180   1.123  51.631  1.00  0.00    -0.340 N 
HETATM   16  H8  UNL     1      22.521   0.268  52.084  1.00  0.00     0.167 HD
BRANCH  15  17
HETATM   17  C8  UNL     1      20.913   0.591  51.903  1.00  0.00     0.033 A 
HETATM   18  C9  UNL     1      20.599  -0.086  53.071  1.00  0.00     0.030 A 
HETATM   19  C10 UNL     1      19.369  -0.639  53.322  1.00  0.00     0.009 A 
HETATM   20  C11 UNL     1      18.484  -0.453  52.297  1.00  0.00    -0.062 A 
HETATM   21  C12 UNL     1      17.132  -1.065  52.456  1.00  0.00     0.048 C 
HETATM   22  C13 UNL     1      18.631   0.196  51.070  1.00  0.00     0.009 A 
HETATM   23  C14 UNL     1      19.910   0.722  50.916  1.00  0.00     0.030 A 
ENDBRANCH  15  17
ENDBRANCH   7  15
BRANCH   1  24
HETATM   24  O1  UNL     1      28.219   1.289  53.285  1.00  0.00    -0.348 OA
BRANCH  24  25
HETATM   25  C2  UNL     1      29.308   0.911  53.880  1.00  0.00     0.171 C 
HETATM   26  C1  UNL     1      29.758  -0.521  53.579  1.00  0.00     0.034 C 
ENDBRANCH  24  25
ENDBRANCH   1  24
TORSDOF 4
ENDMDL
MODEL 3
REMARK VINA RESULT:      -7.7      3.223      5.849
REMARK  4 active torsions:
REMARK  status: ('A' for Active; 'I' for Inactive)
REMARK    1  A    between atoms: C2_2  and  O1_3 
REMARK    2  A    between atoms: O1_3  and  C3_4 
REMARK    3  A    between atoms: C7_10  and  N3_11 
REMARK    4  A    between atoms: N3_11  and  C8_12 
ROOT
HETATM    1  C3  UNL     1      22.116   0.023  53.240  1.00  0.00     0.107 A 
HETATM    2  C4  UNL     1      23.360  -0.559  53.320  1.00  0.00     0.072 A 
HETATM    3  C5  UNL     1      24.531   0.039  52.872  1.00  0.00     0.077 A 
HETATM    4  N1  UNL     1      25.713  -0.528  52.962  1.00  0.00    -0.241 NA
HETATM    5  C6  UNL     1      26.840   0.046  52.513  1.00  0.00     0.236 A 
HETATM    6  N2  UNL     1      26.799   1.290  51.925  1.00  0.00    -0.223 NA
HETATM    7  C7  UNL     1      25.580   1.881  51.835  1.00  0.00     0.144 A 
HETATM    8  C15 UNL     1      24.395   1.321  52.297  1.00  0.00     0.075 A 
HETATM    9  C16 UNL     1      23.219   1.980  52.184  1.00  0.00     0.121 A 
HETATM   10  C17 UNL     1      22.054   1.300  52.674  1.00  0.00     0.136 A 
HETATM   11  O2  UNL     1      20.863   1.999  52.542  1.00  0.00    -0.344 OA
HETATM   12  C18 UNL     1      20.749   3.272  51.959  1.00  0.00     0.202 C 
HETATM   13  C19 UNL     1      21.892   3.576  51.025  1.00  0.00     0.202 C 
HETATM   14  O3  UNL     1      23.119   3.247  51.619  1.00  0.00    -0.345 OA
ENDROOT
BRANCH   7  15
HETATM   15  N3  UNL     1      25.645   3.050  51.114  1.00  0.00    -0.340 N 
HETATM   16  H8  UNL     1      24.806   3.609  51.306  1.00  0.00     0.167 HD
BRANCH  15  17
HETATM   17  C8  UNL     1      25.966   4.094  50.237  1.00  0.00     0.033 A 
HETATM   18  C9  UNL     1      27.058   4.072  49.385  1.00  0.00     0.030 A 
HETATM   19  C10 UNL     1      27.395   5.109  48.553  1.00  0.00     0.009 A 
HETATM   20  C11 UNL     1      26.538   6.169  48.653  1.00  0.00    -0.062 A 
HETATM   21  C12 UNL     1      26.851   7.369  47.822  1.00  0.00     0.048 C 
HETATM   22  C13 UNL     1      25.404   6.356  49.445  1.00  0.00     0.009 A 
HETATM   23  C14 UNL     1      25.150   5.247  50.248  1.00  0.00     0.030 A 
ENDBRANCH  15  17
ENDBRANCH   7  15
BRANCH   1  24
HETATM   24  O1  UNL     1      20.891  -0.246  53.517  1.00  0.00    -0.348 OA
BRANCH  24  25
HETATM   25  C2  UNL     1      19.685  -0.609  53.825  1.00  0.00     0.171 C 
HETATM   26  C1  UNL     1      18.696  -0.662  52.658  1.00  0.00     0.034 C 
ENDBRANCH  24  25
ENDBRANCH   1  24
TORSDOF 4
ENDMDL
MODEL 4
REMARK VINA RESULT:      -7.7      3.468      6.115
REMARK  4 active torsions:
REMARK  status: ('A' for Active; 'I' for Inactive)
REMARK    1  A    between atoms: C2_2  and  O1_3 
REMARK    2  A    between atoms: O1_3  and  C3_4 
REMARK    3  A    between atoms: C7_10  and  N3_11 
REMARK    4  A    between atoms: N3_11  and  C8_12 
ROOT
HETATM    1  C3  UNL     1      22.560   1.161  52.980  1.00  0.00     0.107 A 
HETATM    2  C4  UNL     1      21.636   2.115  52.620  1.00  0.00     0.072 A 
HETATM    3  C5  UNL     1      21.892   3.157  51.737  1.00  0.00     0.077 A 
HETATM    4  N1  UNL     1      20.996   4.055  51.399  1.00  0.00    -0.241 NA
HETATM    5  C6  UNL     1      21.252   5.069  50.558  1.00  0.00     0.236 A 
HETATM    6  N2  UNL     1      22.502   5.208  49.999  1.00  0.00    -0.223 NA
HETATM    7  C7  UNL     1      23.429   4.278  50.342  1.00  0.00     0.144 A 
HETATM    8  C15 UNL     1      23.197   3.210  51.201  1.00  0.00     0.075 A 
HETATM    9  C16 UNL     1      24.170   2.314  51.484  1.00  0.00     0.121 A 
HETATM   10  C17 UNL     1      23.828   1.265  52.400  1.00  0.00     0.136 A 
HETATM   11  O2  UNL     1      24.848   0.364  52.673  1.00  0.00    -0.344 OA
HETATM   12  C18 UNL     1      26.143   0.441  52.134  1.00  0.00     0.202 C 
HETATM   13  C19 UNL     1      26.490   1.837  51.685  1.00  0.00     0.202 C 
HETATM   14  O3  UNL     1      25.445   2.391  50.933  1.00  0.00    -0.345 OA
ENDROOT
BRANCH   7  15
HETATM   15  N3  UNL     1      24.667   4.595  49.832  1.00  0.00    -0.340 N 
HETATM   16  H8  UNL     1      25.320   3.831  50.038  1.00  0.00     0.167 HD
BRANCH  15  17
HETATM   17  C8  UNL     1      25.789   5.212  49.265  1.00  0.00     0.033 A 
HETATM   18  C9  UNL     1      25.807   6.529  48.836  1.00  0.00     0.030 A 
HETATM   19  C10 UNL     1      26.894   7.122  48.246  1.00  0.00     0.009 A 
HETATM   20  C11 UNL     1      27.960   6.276  48.125  1.00  0.00    -0.062 A 
HETATM   21  C12 UNL     1      29.176   6.816  47.448  1.00  0.00     0.048 C 
HETATM   22  C13 UNL     1      28.113   4.940  48.500  1.00  0.00     0.009 A 
HETATM   23  C14 UNL     1      26.957   4.436  49.089  1.00  0.00     0.030 A 
ENDBRANCH  15  17
ENDBRANCH   7  15
BRANCH   1  24
HETATM   24  O1  UNL     1      22.659   0.136  53.748  1.00  0.00    -0.348 OA
BRANCH  24  25
HETATM   25  C2  UNL     1      22.659  -0.905  54.520  1.00  0.00     0.171 C 
HETATM   26  C1  UNL     1      21.355  -1.707  54.543  1.00  0.00     0.034 C 
ENDBRANCH  24  25
ENDBRANCH   1  24
TORSDOF 4
ENDMDL
MODEL 5
REMARK VINA RESULT:      -7.6      2.674      4.857
REMARK  4 active torsions:
REMARK  status: ('A' for Active; 'I' for Inactive)
REMARK    1  A    between atoms: C2_2  and  O1_3 
REMARK    2  A    between atoms: O1_3  and  C3_4 
REMARK    3  A    between atoms: C7_10  and  N3_11 
REMARK    4  A    between atoms: N3_11  and  C8_12 
ROOT
HETATM    1  C3  UNL     1      26.333   3.324  50.413  1.00  0.00     0.107 A 
HETATM    2  C4  UNL     1      26.832   2.574  51.453  1.00  0.00     0.072 A 
HETATM    3  C5  UNL     1      26.083   1.663  52.188  1.00  0.00     0.077 A 
HETATM    4  N1  UNL     1      26.577   0.949  53.174  1.00  0.00    -0.241 NA
HETATM    5  C6  UNL     1      25.847   0.082  53.893  1.00  0.00     0.236 A 
HETATM    6  N2  UNL     1      24.512  -0.099  53.612  1.00  0.00    -0.223 NA
HETATM    7  C7  UNL     1      23.999   0.633  52.590  1.00  0.00     0.144 A 
HETATM    8  C15 UNL     1      24.727   1.532  51.820  1.00  0.00     0.075 A 
HETATM    9  C16 UNL     1      24.147   2.215  50.806  1.00  0.00     0.121 A 
HETATM   10  C17 UNL     1      24.986   3.133  50.090  1.00  0.00     0.136 A 
HETATM   11  O2  UNL     1      24.362   3.821  49.059  1.00  0.00    -0.344 OA
HETATM   12  C18 UNL     1      23.008   3.680  48.714  1.00  0.00     0.202 C 
HETATM   13  C19 UNL     1      22.181   3.155  49.859  1.00  0.00     0.202 C 
HETATM   14  O3  UNL     1      22.808   2.057  50.463  1.00  0.00    -0.345 OA
ENDROOT
BRANCH   7  15
HETATM   15  N3  UNL     1      22.637   0.468  52.493  1.00  0.00    -0.340 N 
HETATM   16  H8  UNL     1      22.228   1.306  52.066  1.00  0.00     0.167 HD
BRANCH  15  17
HETATM   17  C8  UNL     1      21.308   0.036  52.579  1.00  0.00     0.033 A 
HETATM   18  C9  UNL     1      20.314   0.429  51.697  1.00  0.00     0.030 A 
HETATM   19  C10 UNL     1      19.004   0.037  51.803  1.00  0.00     0.009 A 
HETATM   20  C11 UNL     1      18.781  -0.785  52.872  1.00  0.00    -0.062 A 
HETATM   21  C12 UNL     1      17.373  -1.225  53.101  1.00  0.00     0.048 C 
HETATM   22  C13 UNL     1      19.653  -1.275  53.845  1.00  0.00     0.009 A 
HETATM   23  C14 UNL     1      20.954  -0.820  53.646  1.00  0.00     0.030 A 
ENDBRANCH  15  17
ENDBRANCH   7  15
BRANCH   1  24
HETATM   24  O1  UNL     1      26.719   4.227  49.586  1.00  0.00    -0.348 OA
BRANCH  24  25
HETATM   25  C2  UNL     1      27.197   5.138  48.797  1.00  0.00     0.171 C 
HETATM   26  C1  UNL     1      26.628   6.546  48.996  1.00  0.00     0.034 C 
ENDBRANCH  24  25
ENDBRANCH   1  24
TORSDOF 4
ENDMDL
MODEL 6
REMARK VINA RESULT:      -7.5      2.031      6.659
REMARK  4 active torsions:
REMARK  status: ('A' for Active; 'I' for Inactive)
REMARK    1  A    between atoms: C2_2  and  O1_3 
REMARK    2  A    between atoms: O1_3  and  C3_4 
REMARK    3  A    between atoms: C7_10  and  N3_11 
REMARK    4  A    between atoms: N3_11  and  C8_12 
ROOT
HETATM    1  C3  UNL     1      21.669   3.106  50.616  1.00  0.00     0.107 A 
HETATM    2  C4  UNL     1      20.883   2.224  51.320  1.00  0.00     0.072 A 
HETATM    3  C5  UNL     1      21.368   1.331  52.267  1.00  0.00     0.077 A 
HETATM    4  N1  UNL     1      20.602   0.500  52.937  1.00  0.00    -0.241 NA
HETATM    5  C6  UNL     1      21.076  -0.373  53.840  1.00  0.00     0.236 A 
HETATM    6  N2  UNL     1      22.425  -0.429  54.108  1.00  0.00    -0.223 NA
HETATM    7  C7  UNL     1      23.219   0.433  53.422  1.00  0.00     0.144 A 
HETATM    8  C15 UNL     1      22.762   1.355  52.488  1.00  0.00     0.075 A 
HETATM    9  C16 UNL     1      23.615   2.192  51.855  1.00  0.00     0.121 A 
HETATM   10  C17 UNL     1      23.039   3.088  50.894  1.00  0.00     0.136 A 
HETATM   11  O2  UNL     1      23.940   3.931  50.259  1.00  0.00    -0.344 OA
HETATM   12  C18 UNL     1      25.325   3.933  50.489  1.00  0.00     0.202 C 
HETATM   13  C19 UNL     1      25.810   2.622  51.052  1.00  0.00     0.202 C 
HETATM   14  O3  UNL     1      24.984   2.195  52.101  1.00  0.00    -0.345 OA
ENDROOT
BRANCH   7  15
HETATM   15  N3  UNL     1      24.549   0.192  53.674  1.00  0.00    -0.340 N 
HETATM   16  H8  UNL     1      24.797   0.599  54.583  1.00  0.00     0.167 HD
BRANCH  15  17
HETATM   17  C8  UNL     1      25.906  -0.152  53.619  1.00  0.00     0.033 A 
HETATM   18  C9  UNL     1      26.422  -1.101  52.751  1.00  0.00     0.030 A 
HETATM   19  C10 UNL     1      27.744  -1.466  52.723  1.00  0.00     0.009 A 
HETATM   20  C11 UNL     1      28.500  -0.795  53.642  1.00  0.00    -0.062 A 
HETATM   21  C12 UNL     1      29.945  -1.161  53.722  1.00  0.00     0.048 C 
HETATM   22  C13 UNL     1      28.148   0.179  54.578  1.00  0.00     0.009 A 
HETATM   23  C14 UNL     1      26.790   0.478  54.523  1.00  0.00     0.030 A 
ENDBRANCH  15  17
ENDBRANCH   7  15
BRANCH   1  24
HETATM   24  O1  UNL     1      21.557   3.999  49.699  1.00  0.00    -0.348 OA
BRANCH  24  25
HETATM   25  C2  UNL     1      21.356   4.926  48.816  1.00  0.00     0.171 C 
HETATM   26  C1  UNL     1      21.476   6.363  49.330  1.00  0.00     0.034 C 
ENDBRANCH  24  25
ENDBRANCH   1  24
TORSDOF 4
ENDMDL
MODEL 7
REMARK VINA RESULT:      -7.4      2.550      7.494
REMARK  4 active torsions:
REMARK  status: ('A' for Active; 'I' for Inactive)
REMARK    1  A    between atoms: C2_2  and  O1_3 
REMARK    2  A    between atoms: O1_3  and  C3_4 
REMARK    3  A    between atoms: C7_10  and  N3_11 
REMARK    4  A    between atoms: N3_11  and  C8_12 
ROOT
HETATM    1  C3  UNL     1      20.350   1.821  51.386  1.00  0.00     0.107 A 
HETATM    2  C4  UNL     1      20.978   2.815  50.672  1.00  0.00     0.072 A 
HETATM    3  C5  UNL     1      22.357   2.961  50.586  1.00  0.00     0.077 A 
HETATM    4  N1  UNL     1      22.941   3.913  49.893  1.00  0.00    -0.241 NA
HETATM    5  C6  UNL     1      24.274   4.060  49.825  1.00  0.00     0.236 A 
HETATM    6  N2  UNL     1      25.103   3.192  50.497  1.00  0.00    -0.223 NA
HETATM    7  C7  UNL     1      24.503   2.204  51.209  1.00  0.00     0.144 A 
HETATM    8  C15 UNL     1      23.129   2.015  51.295  1.00  0.00     0.075 A 
HETATM    9  C16 UNL     1      22.605   0.997  52.014  1.00  0.00     0.121 A 
HETATM   10  C17 UNL     1      21.174   0.908  52.052  1.00  0.00     0.136 A 
HETATM   11  O2  UNL     1      20.667  -0.144  52.801  1.00  0.00    -0.344 OA
HETATM   12  C18 UNL     1      21.454  -1.071  53.505  1.00  0.00     0.202 C 
HETATM   13  C19 UNL     1      22.823  -0.527  53.825  1.00  0.00     0.202 C 
HETATM   14  O3  UNL     1      23.394   0.076  52.696  1.00  0.00    -0.345 OA
ENDROOT
BRANCH   7  15
HETATM   15  N3  UNL     1      25.422   1.488  51.940  1.00  0.00    -0.340 N 
HETATM   16  H8  UNL     1      24.972   1.138  52.793  1.00  0.00     0.167 HD
BRANCH  15  17
HETATM   17  C8  UNL     1      26.569   0.881  52.467  1.00  0.00     0.033 A 
HETATM   18  C9  UNL     1      27.645   1.588  52.977  1.00  0.00     0.030 A 
HETATM   19  C10 UNL     1      28.785   0.995  53.459  1.00  0.00     0.009 A 
HETATM   20  C11 UNL     1      28.746  -0.369  53.383  1.00  0.00    -0.062 A 
HETATM   21  C12 UNL     1      29.964  -1.103  53.837  1.00  0.00     0.048 C 
HETATM   22  C13 UNL     1      27.756  -1.230  52.907  1.00  0.00     0.009 A 
HETATM   23  C14 UNL     1      26.645  -0.530  52.445  1.00  0.00     0.030 A 
ENDBRANCH  15  17
ENDBRANCH   7  15
BRANCH   1  24
HETATM   24  O1  UNL     1      19.163   1.432  51.684  1.00  0.00    -0.348 OA
BRANCH  24  25
HETATM   25  C2  UNL     1      17.991   0.948  51.955  1.00  0.00     0.171 C 
HETATM   26  C1  UNL     1      17.499  -0.151  51.010  1.00  0.00     0.034 C 
ENDBRANCH  24  25
ENDBRANCH   1  24
TORSDOF 4
ENDMDL
MODEL 8
REMARK VINA RESULT:      -7.4      2.761      4.346
REMARK  4 active torsions:
REMARK  status: ('A' for Active; 'I' for Inactive)
REMARK    1  A    between atoms: C2_2  and  O1_3 
REMARK    2  A    between atoms: O1_3  and  C3_4 
REMARK    3  A    between atoms: C7_10  and  N3_11 
REMARK    4  A    between atoms: N3_11  and  C8_12 
ROOT
HETATM    1  C3  UNL     1      24.917   0.861  52.903  1.00  0.00     0.107 A 
HETATM    2  C4  UNL     1      24.702   1.636  51.787  1.00  0.00     0.072 A 
HETATM    3  C5  UNL     1      23.474   1.762  51.148  1.00  0.00     0.077 A 
HETATM    4  N1  UNL     1      23.284   2.513  50.087  1.00  0.00    -0.241 NA
HETATM    5  C6  UNL     1      22.100   2.619  49.464  1.00  0.00     0.236 A 
HETATM    6  N2  UNL     1      21.007   1.925  49.929  1.00  0.00    -0.223 NA
HETATM    7  C7  UNL     1      21.198   1.152  51.029  1.00  0.00     0.144 A 
HETATM    8  C15 UNL     1      22.405   1.026  51.705  1.00  0.00     0.075 A 
HETATM    9  C16 UNL     1      22.514   0.246  52.805  1.00  0.00     0.121 A 
HETATM   10  C17 UNL     1      23.812   0.171  53.411  1.00  0.00     0.136 A 
HETATM   11  O2  UNL     1      23.893  -0.639  54.535  1.00  0.00    -0.344 OA
HETATM   12  C18 UNL     1      22.817  -1.369  55.068  1.00  0.00     0.202 C 
HETATM   13  C19 UNL     1      21.744  -1.631  54.043  1.00  0.00     0.202 C 
HETATM   14  O3  UNL     1      21.439  -0.461  53.333  1.00  0.00    -0.345 OA
ENDROOT
BRANCH   7  15
HETATM   15  N3  UNL     1      20.077   0.409  51.317  1.00  0.00    -0.340 N 
HETATM   16  H8  UNL     1      20.363  -0.541  51.579  1.00  0.00     0.167 HD
BRANCH  15  17
HETATM   17  C8  UNL     1      18.779  -0.088  51.488  1.00  0.00     0.033 A 
HETATM   18  C9  UNL     1      17.803  -0.040  50.505  1.00  0.00     0.030 A 
HETATM   19  C10 UNL     1      16.521  -0.492  50.684  1.00  0.00     0.009 A 
HETATM   20  C11 UNL     1      16.306  -0.998  51.935  1.00  0.00    -0.062 A 
HETATM   21  C12 UNL     1      14.924  -1.470  52.243  1.00  0.00     0.048 C 
HETATM   22  C13 UNL     1      17.164  -1.124  53.030  1.00  0.00     0.009 A 
HETATM   23  C14 UNL     1      18.437  -0.639  52.743  1.00  0.00     0.030 A 
ENDBRANCH  15  17
ENDBRANCH   7  15
BRANCH   1  24
HETATM   24  O1  UNL     1      25.876   0.516  53.684  1.00  0.00    -0.348 OA
BRANCH  24  25
HETATM   25  C2  UNL     1      26.891   0.254  54.447  1.00  0.00     0.171 C 
HETATM   26  C1  UNL     1      28.083  -0.409  53.752  1.00  0.00     0.034 C 
ENDBRANCH  24  25
ENDBRANCH   1  24
TORSDOF 4
ENDMDL
MODEL 9
REMARK VINA RESULT:      -7.0      4.144      7.756
REMARK  4 active torsions:
REMARK  status: ('A' for Active; 'I' for Inactive)
REMARK    1  A    between atoms: C2_2  and  O1_3 
REMARK    2  A    between atoms: O1_3  and  C3_4 
REMARK    3  A    between atoms: C7_10  and  N3_11 
REMARK    4  A    between atoms: N3_11  and  C8_12 
ROOT
HETATM    1  C3  UNL     1      23.847   6.699  48.997  1.00  0.00     0.107 A 
HETATM    2  C4  UNL     1      22.785   6.307  49.779  1.00  0.00     0.072 A 
HETATM    3  C5  UNL     1      22.832   5.261  50.692  1.00  0.00     0.077 A 
HETATM    4  N1  UNL     1      21.810   4.905  51.436  1.00  0.00    -0.241 NA
HETATM    5  C6  UNL     1      21.854   3.883  52.306  1.00  0.00     0.236 A 
HETATM    6  N2  UNL     1      23.010   3.150  52.456  1.00  0.00    -0.223 NA
HETATM    7  C7  UNL     1      24.069   3.519  51.692  1.00  0.00     0.144 A 
HETATM    8  C15 UNL     1      24.063   4.576  50.790  1.00  0.00     0.075 A 
HETATM    9  C16 UNL     1      25.165   4.893  50.074  1.00  0.00     0.121 A 
HETATM   10  C17 UNL     1      25.041   5.988  49.155  1.00  0.00     0.136 A 
HETATM   11  O2  UNL     1      26.187   6.286  48.433  1.00  0.00    -0.344 OA
HETATM   12  C18 UNL     1      27.400   5.585  48.541  1.00  0.00     0.202 C 
HETATM   13  C19 UNL     1      27.205   4.190  49.076  1.00  0.00     0.202 C 
HETATM   14  O3  UNL     1      26.366   4.202  50.199  1.00  0.00    -0.345 OA
ENDROOT
BRANCH   7  15
HETATM   15  N3  UNL     1      25.115   2.637  51.830  1.00  0.00    -0.340 N 
HETATM   16  H8  UNL     1      25.329   2.225  50.915  1.00  0.00     0.167 HD
BRANCH  15  17
HETATM   17  C8  UNL     1      26.129   1.787  52.290  1.00  0.00     0.033 A 
HETATM   18  C9  UNL     1      27.283   2.235  52.912  1.00  0.00     0.030 A 
HETATM   19  C10 UNL     1      28.293   1.406  53.329  1.00  0.00     0.009 A 
HETATM   20  C11 UNL     1      28.041   0.089  53.066  1.00  0.00    -0.062 A 
HETATM   21  C12 UNL     1      29.107  -0.888  53.438  1.00  0.00     0.048 C 
HETATM   22  C13 UNL     1      26.947  -0.529  52.459  1.00  0.00     0.009 A 
HETATM   23  C14 UNL     1      25.981   0.398  52.076  1.00  0.00     0.030 A 
ENDBRANCH  15  17
ENDBRANCH   7  15
BRANCH   1  24
HETATM   24  O1  UNL     1      24.124   7.557  48.082  1.00  0.00    -0.348 OA
BRANCH  24  25
HETATM   25  C2  UNL     1      24.311   8.409  47.123  1.00  0.00     0.171 C 
HETATM   26  C1  UNL     1      24.677   9.829  47.566  1.00  0.00     0.034 C 
ENDBRANCH  24  25
ENDBRANCH   1  24
TORSDOF 4
ENDMDL
