MODEL 1
REMARK VINA RESULT:      -9.5      0.000      0.000
REMARK  2 active torsions:
REMARK  status: ('A' for Active; 'I' for Inactive)
REMARK    1  A    between atoms: C2_3  and  C3_4 
REMARK       I    between atoms: N4_15  and  C11_16 
REMARK       I    between atoms: C11_16  and  N5_18 
REMARK    2  A    between atoms: N5_18  and  C12_19 
ROOT
HETATM    1  N1  UNL     1      22.194   3.382  46.566  1.00  0.00    -0.197 NA
HETATM    2  C1  UNL     1      21.891   3.700  47.647  1.00  0.00     0.059 C 
HETATM    3  C2  UNL     1      21.492   4.114  48.997  1.00  0.00     0.134 C 
ENDROOT
BRANCH   3   4
HETATM    4  C3  UNL     1      20.477   3.236  49.582  1.00  0.00    -0.008 C 
HETATM    5  C4  UNL     1      19.425   2.926  48.770  1.00  0.00     0.064 C 
HETATM    6  C5  UNL     1      18.211   2.068  49.014  1.00  0.00     0.102 C 
HETATM    7  N2  UNL     1      17.573   1.301  49.877  1.00  0.00    -0.217 NA
HETATM    8  C6  UNL     1      16.368   0.703  49.543  1.00  0.00     0.200 A 
HETATM    9  N3  UNL     1      16.985   0.022  50.430  1.00  0.00    -0.201 NA
HETATM   10  C7  UNL     1      18.232   0.257  51.047  1.00  0.00     0.286 C 
HETATM   11  O1  UNL     1      18.358   1.359  51.896  1.00  0.00    -0.336 OA
HETATM   12  C8  UNL     1      19.593   1.896  52.270  1.00  0.00     0.068 C 
HETATM   13  C9  UNL     1      20.279   1.034  53.037  1.00  0.00     0.029 C 
HETATM   14  C24 UNL     1      20.212   3.219  51.948  1.00  0.00     0.041 C 
HETATM   15  C10 UNL     1      21.751   0.856  53.216  1.00  0.00     0.158 C 
HETATM   16  N4  UNL     1      22.535   1.643  52.267  1.00  0.00    -0.327 N 
HETATM   17  C11 UNL     1      23.877   1.227  52.543  1.00  0.00     0.323 C 
HETATM   18  C22 UNL     1      22.440   2.641  51.206  1.00  0.00     0.162 C 
HETATM   19  O2  UNL     1      24.109   0.370  53.437  1.00  0.00    -0.247 OA
HETATM   20  N5  UNL     1      24.998   1.725  51.861  1.00  0.00    -0.309 N 
HETATM   21  H11 UNL     1      24.855   2.437  51.110  1.00  0.00     0.170 HD
HETATM   22  C23 UNL     1      21.079   3.037  50.927  1.00  0.00    -0.053 C 
BRANCH  20  23
HETATM   23  C12 UNL     1      26.199   1.123  52.357  1.00  0.00     0.037 A 
HETATM   24  C13 UNL     1      27.045   2.059  52.922  1.00  0.00     0.030 A 
HETATM   25  C14 UNL     1      28.260   1.616  53.451  1.00  0.00     0.014 A 
HETATM   26  C15 UNL     1      28.535   0.269  53.373  1.00  0.00    -0.026 A 
HETATM   27  C16 UNL     1      29.719  -0.246  53.875  1.00  0.00     0.012 A 
HETATM   28  C20 UNL     1      27.673  -0.657  52.801  1.00  0.00    -0.024 A 
HETATM   29  C17 UNL     1      30.040  -1.587  53.820  1.00  0.00     0.001 A 
HETATM   30  C18 UNL     1      29.129  -2.449  53.234  1.00  0.00     0.001 A 
HETATM   31  C19 UNL     1      27.924  -2.004  52.712  1.00  0.00     0.012 A 
HETATM   32  C21 UNL     1      26.460  -0.208  52.275  1.00  0.00     0.042 A 
ENDBRANCH  20  23
ENDBRANCH   3   4
TORSDOF 2
ENDMDL
MODEL 2
REMARK VINA RESULT:      -9.5      6.411      8.500
REMARK  2 active torsions:
REMARK  status: ('A' for Active; 'I' for Inactive)
REMARK    1  A    between atoms: C2_3  and  C3_4 
REMARK       I    between atoms: N4_15  and  C11_16 
REMARK       I    between atoms: C11_16  and  N5_18 
REMARK    2  A    between atoms: N5_18  and  C12_19 
ROOT
HETATM    1  N1  UNL     1      27.604   2.184  53.847  1.00  0.00    -0.197 NA
HETATM    2  C1  UNL     1      27.231   2.175  52.740  1.00  0.00     0.059 C 
HETATM    3  C2  UNL     1      26.754   2.139  51.354  1.00  0.00     0.134 C 
ENDROOT
BRANCH   3   4
HETATM    4  C3  UNL     1      25.405   2.689  51.205  1.00  0.00    -0.008 C 
HETATM    5  C4  UNL     1      24.533   2.396  52.213  1.00  0.00     0.064 C 
HETATM    6  C5  UNL     1      23.088   2.777  52.408  1.00  0.00     0.102 C 
HETATM    7  N2  UNL     1      22.056   3.430  51.911  1.00  0.00    -0.217 NA
HETATM    8  C6  UNL     1      20.838   3.447  52.574  1.00  0.00     0.200 A 
HETATM    9  N3  UNL     1      20.980   4.491  51.851  1.00  0.00    -0.201 NA
HETATM   10  C7  UNL     1      22.053   4.879  51.021  1.00  0.00     0.286 C 
HETATM   11  O1  UNL     1      22.317   4.126  49.875  1.00  0.00    -0.336 OA
HETATM   12  C8  UNL     1      23.533   4.182  49.188  1.00  0.00     0.068 C 
HETATM   13  C9  UNL     1      23.709   5.386  48.622  1.00  0.00     0.029 C 
HETATM   14  C24 UNL     1      24.596   3.145  49.012  1.00  0.00     0.041 C 
HETATM   15  C10 UNL     1      24.961   6.130  48.297  1.00  0.00     0.158 C 
HETATM   16  N4  UNL     1      26.156   5.495  48.849  1.00  0.00    -0.327 N 
HETATM   17  C11 UNL     1      27.191   6.427  48.522  1.00  0.00     0.323 C 
HETATM   18  C22 UNL     1      26.636   4.319  49.570  1.00  0.00     0.162 C 
HETATM   19  O2  UNL     1      26.921   7.488  47.898  1.00  0.00    -0.247 OA
HETATM   20  N5  UNL     1      28.540   6.237  48.860  1.00  0.00    -0.309 N 
HETATM   21  H11 UNL     1      28.812   5.372  49.378  1.00  0.00     0.170 HD
HETATM   22  C23 UNL     1      25.576   3.397  49.908  1.00  0.00    -0.053 C 
BRANCH  20  23
HETATM   23  C12 UNL     1      29.335   7.336  48.399  1.00  0.00     0.037 A 
HETATM   24  C13 UNL     1      30.002   7.029  47.228  1.00  0.00     0.030 A 
HETATM   25  C14 UNL     1      30.820   8.008  46.658  1.00  0.00     0.014 A 
HETATM   26  C15 UNL     1      30.907   9.220  47.306  1.00  0.00    -0.026 A 
HETATM   27  C16 UNL     1      31.698  10.241  46.803  1.00  0.00     0.012 A 
HETATM   28  C20 UNL     1      30.229   9.511  48.483  1.00  0.00    -0.024 A 
HETATM   29  C17 UNL     1      31.817  11.472  47.415  1.00  0.00     0.001 A 
HETATM   30  C18 UNL     1      31.111  11.686  48.586  1.00  0.00     0.001 A 
HETATM   31  C19 UNL     1      30.300  10.711  49.146  1.00  0.00     0.012 A 
HETATM   32  C21 UNL     1      29.414   8.528  49.046  1.00  0.00     0.042 A 
ENDBRANCH  20  23
ENDBRANCH   3   4
TORSDOF 2
ENDMDL
MODEL 3
REMARK VINA RESULT:      -9.4      2.730      8.707
REMARK  2 active torsions:
REMARK  status: ('A' for Active; 'I' for Inactive)
REMARK    1  A    between atoms: C2_3  and  C3_4 
REMARK       I    between atoms: N4_15  and  C11_16 
REMARK       I    between atoms: C11_16  and  N5_18 
REMARK    2  A    between atoms: N5_18  and  C12_19 
ROOT
HETATM    1  N1  UNL     1      27.241   0.799  54.369  1.00  0.00    -0.197 NA
HETATM    2  C1  UNL     1      26.514   0.780  53.455  1.00  0.00     0.059 C 
HETATM    3  C2  UNL     1      25.582   0.759  52.323  1.00  0.00     0.134 C 
ENDROOT
BRANCH   3   4
HETATM    4  C3  UNL     1      25.425   2.073  51.695  1.00  0.00    -0.008 C 
HETATM    5  C4  UNL     1      26.437   2.454  50.862  1.00  0.00     0.064 C 
HETATM    6  C5  UNL     1      26.627   3.710  50.052  1.00  0.00     0.102 C 
HETATM    7  N2  UNL     1      26.115   4.878  49.715  1.00  0.00    -0.217 NA
HETATM    8  C6  UNL     1      26.786   5.725  48.847  1.00  0.00     0.200 A 
HETATM    9  N3  UNL     1      25.525   5.923  48.795  1.00  0.00    -0.201 NA
HETATM   10  C7  UNL     1      24.479   5.289  49.499  1.00  0.00     0.286 C 
HETATM   11  O1  UNL     1      24.390   5.483  50.879  1.00  0.00    -0.336 OA
HETATM   12  C8  UNL     1      23.648   4.649  51.721  1.00  0.00     0.068 C 
HETATM   13  C9  UNL     1      22.335   4.759  51.468  1.00  0.00     0.029 C 
HETATM   14  C24 UNL     1      24.095   3.711  52.796  1.00  0.00     0.041 C 
HETATM   15  C10 UNL     1      21.229   3.770  51.638  1.00  0.00     0.158 C 
HETATM   16  N4  UNL     1      21.714   2.433  51.974  1.00  0.00    -0.327 N 
HETATM   17  C11 UNL     1      20.515   1.651  51.967  1.00  0.00     0.323 C 
HETATM   18  C22 UNL     1      22.911   1.663  52.294  1.00  0.00     0.162 C 
HETATM   19  O2  UNL     1      19.404   2.186  51.708  1.00  0.00    -0.247 OA
HETATM   20  N5  UNL     1      20.487   0.274  52.239  1.00  0.00    -0.309 N 
HETATM   21  H11 UNL     1      21.384  -0.214  52.459  1.00  0.00     0.170 HD
HETATM   22  C23 UNL     1      24.114   2.462  52.279  1.00  0.00    -0.053 C 
BRANCH  20  23
HETATM   23  C12 UNL     1      19.148  -0.229  52.158  1.00  0.00     0.037 A 
HETATM   24  C13 UNL     1      18.767  -0.859  53.329  1.00  0.00     0.030 A 
HETATM   25  C14 UNL     1      17.482  -1.402  53.397  1.00  0.00     0.014 A 
HETATM   26  C15 UNL     1      16.676  -1.272  52.288  1.00  0.00    -0.026 A 
HETATM   27  C16 UNL     1      15.389  -1.784  52.280  1.00  0.00     0.012 A 
HETATM   28  C20 UNL     1      17.076  -0.635  51.120  1.00  0.00    -0.024 A 
HETATM   29  C17 UNL     1      14.544  -1.679  51.193  1.00  0.00     0.001 A 
HETATM   30  C18 UNL     1      15.015  -1.031  50.065  1.00  0.00     0.001 A 
HETATM   31  C19 UNL     1      16.291  -0.494  50.002  1.00  0.00     0.012 A 
HETATM   32  C21 UNL     1      18.361  -0.095  51.059  1.00  0.00     0.042 A 
ENDBRANCH  20  23
ENDBRANCH   3   4
TORSDOF 2
ENDMDL
MODEL 4
REMARK VINA RESULT:      -9.4      5.777      8.942
REMARK  2 active torsions:
REMARK  status: ('A' for Active; 'I' for Inactive)
REMARK    1  A    between atoms: C2_3  and  C3_4 
REMARK       I    between atoms: N4_15  and  C11_16 
REMARK       I    between atoms: C11_16  and  N5_18 
REMARK    2  A    between atoms: N5_18  and  C12_19 
ROOT
HETATM    1  N1  UNL     1      23.718   9.789  48.148  1.00  0.00    -0.197 NA
HETATM    2  C1  UNL     1      24.460   9.485  48.997  1.00  0.00     0.059 C 
HETATM    3  C2  UNL     1      25.384   9.078  50.061  1.00  0.00     0.134 C 
ENDROOT
BRANCH   3   4
HETATM    4  C3  UNL     1      26.711   8.723  49.555  1.00  0.00    -0.008 C 
HETATM    5  C4  UNL     1      27.672   9.682  49.692  1.00  0.00     0.064 C 
HETATM    6  C5  UNL     1      29.126   9.684  49.299  1.00  0.00     0.102 C 
HETATM    7  N2  UNL     1      30.109   8.994  48.753  1.00  0.00    -0.217 NA
HETATM    8  C6  UNL     1      31.377   9.540  48.626  1.00  0.00     0.200 A 
HETATM    9  N3  UNL     1      31.434   8.266  48.700  1.00  0.00    -0.201 NA
HETATM   10  C7  UNL     1      30.396   7.320  48.837  1.00  0.00     0.286 C 
HETATM   11  O1  UNL     1      29.498   7.156  47.781  1.00  0.00    -0.336 OA
HETATM   12  C8  UNL     1      28.253   6.538  47.927  1.00  0.00     0.068 C 
HETATM   13  C9  UNL     1      28.395   5.234  48.208  1.00  0.00     0.029 C 
HETATM   14  C24 UNL     1      26.872   7.102  47.818  1.00  0.00     0.041 C 
HETATM   15  C10 UNL     1      27.509   4.305  48.971  1.00  0.00     0.158 C 
HETATM   16  N4  UNL     1      26.412   4.996  49.644  1.00  0.00    -0.327 N 
HETATM   17  C11 UNL     1      25.786   3.947  50.390  1.00  0.00     0.323 C 
HETATM   18  C22 UNL     1      25.768   6.296  49.814  1.00  0.00     0.162 C 
HETATM   19  O2  UNL     1      26.235   2.771  50.338  1.00  0.00    -0.247 OA
HETATM   20  N5  UNL     1      24.663   4.142  51.209  1.00  0.00    -0.309 N 
HETATM   21  H11 UNL     1      24.255   5.100  51.285  1.00  0.00     0.170 HD
HETATM   22  C23 UNL     1      26.422   7.347  49.069  1.00  0.00    -0.053 C 
BRANCH  20  23
HETATM   23  C12 UNL     1      24.266   2.910  51.823  1.00  0.00     0.037 A 
HETATM   24  C13 UNL     1      25.188   2.484  52.761  1.00  0.00     0.030 A 
HETATM   25  C14 UNL     1      24.933   1.292  53.443  1.00  0.00     0.014 A 
HETATM   26  C15 UNL     1      23.774   0.617  53.133  1.00  0.00    -0.026 A 
HETATM   27  C16 UNL     1      23.452  -0.572  53.768  1.00  0.00     0.012 A 
HETATM   28  C20 UNL     1      22.858   1.060  52.188  1.00  0.00    -0.024 A 
HETATM   29  C17 UNL     1      22.302  -1.285  53.492  1.00  0.00     0.001 A 
HETATM   30  C18 UNL     1      21.438  -0.779  52.536  1.00  0.00     0.001 A 
HETATM   31  C19 UNL     1      21.696   0.405  51.862  1.00  0.00     0.012 A 
HETATM   32  C21 UNL     1      23.119   2.252  51.510  1.00  0.00     0.042 A 
ENDBRANCH  20  23
ENDBRANCH   3   4
TORSDOF 2
ENDMDL
MODEL 5
REMARK VINA RESULT:      -9.2      4.853      7.720
REMARK  2 active torsions:
REMARK  status: ('A' for Active; 'I' for Inactive)
REMARK    1  A    between atoms: C2_3  and  C3_4 
REMARK       I    between atoms: N4_15  and  C11_16 
REMARK       I    between atoms: C11_16  and  N5_18 
REMARK    2  A    between atoms: N5_18  and  C12_19 
ROOT
HETATM    1  N1  UNL     1      30.195   6.175  47.941  1.00  0.00    -0.197 NA
HETATM    2  C1  UNL     1      29.102   5.864  48.207  1.00  0.00     0.059 C 
HETATM    3  C2  UNL     1      27.733   5.478  48.566  1.00  0.00     0.134 C 
ENDROOT
BRANCH   3   4
HETATM    4  C3  UNL     1      26.782   6.584  48.444  1.00  0.00    -0.008 C 
HETATM    5  C4  UNL     1      26.887   7.330  47.306  1.00  0.00     0.064 C 
HETATM    6  C5  UNL     1      26.099   8.525  46.835  1.00  0.00     0.102 C 
HETATM    7  N2  UNL     1      25.116   9.359  47.108  1.00  0.00    -0.217 NA
HETATM    8  C6  UNL     1      24.786  10.383  46.234  1.00  0.00     0.200 A 
HETATM    9  N3  UNL     1      23.773  10.032  46.928  1.00  0.00    -0.201 NA
HETATM   10  C7  UNL     1      23.657   9.039  47.924  1.00  0.00     0.286 C 
HETATM   11  O1  UNL     1      24.341   9.219  49.128  1.00  0.00    -0.336 OA
HETATM   12  C8  UNL     1      24.598   8.176  50.023  1.00  0.00     0.068 C 
HETATM   13  C9  UNL     1      23.458   7.717  50.563  1.00  0.00     0.029 C 
HETATM   14  C24 UNL     1      25.890   7.545  50.432  1.00  0.00     0.041 C 
HETATM   15  C10 UNL     1      23.110   6.361  51.081  1.00  0.00     0.158 C 
HETATM   16  N4  UNL     1      24.133   5.361  50.783  1.00  0.00    -0.327 N 
HETATM   17  C11 UNL     1      23.538   4.148  51.256  1.00  0.00     0.323 C 
HETATM   18  C22 UNL     1      25.462   5.175  50.210  1.00  0.00     0.162 C 
HETATM   19  O2  UNL     1      22.391   4.160  51.777  1.00  0.00    -0.247 OA
HETATM   20  N5  UNL     1      24.167   2.896  51.178  1.00  0.00    -0.309 N 
HETATM   21  H11 UNL     1      25.119   2.836  50.754  1.00  0.00     0.170 HD
HETATM   22  C23 UNL     1      26.041   6.405  49.721  1.00  0.00    -0.053 C 
BRANCH  20  23
HETATM   23  C12 UNL     1      23.329   1.875  51.732  1.00  0.00     0.037 A 
HETATM   24  C13 UNL     1      22.253   1.595  50.911  1.00  0.00     0.030 A 
HETATM   25  C14 UNL     1      21.346   0.615  51.323  1.00  0.00     0.014 A 
HETATM   26  C15 UNL     1      21.585  -0.008  52.528  1.00  0.00    -0.026 A 
HETATM   27  C16 UNL     1      20.731  -0.989  53.004  1.00  0.00     0.012 A 
HETATM   28  C20 UNL     1      22.673   0.287  53.340  1.00  0.00    -0.024 A 
HETATM   29  C17 UNL     1      20.929  -1.642  54.203  1.00  0.00     0.001 A 
HETATM   30  C18 UNL     1      22.036  -1.293  54.958  1.00  0.00     0.001 A 
HETATM   31  C19 UNL     1      22.933  -0.321  54.543  1.00  0.00     0.012 A 
HETATM   32  C21 UNL     1      23.575   1.266  52.922  1.00  0.00     0.042 A 
ENDBRANCH  20  23
ENDBRANCH   3   4
TORSDOF 2
ENDMDL
MODEL 6
REMARK VINA RESULT:      -9.1      2.981      5.183
REMARK  2 active torsions:
REMARK  status: ('A' for Active; 'I' for Inactive)
REMARK    1  A    between atoms: C2_3  and  C3_4 
REMARK       I    between atoms: N4_15  and  C11_16 
REMARK       I    between atoms: C11_16  and  N5_18 
REMARK    2  A    between atoms: N5_18  and  C12_19 
ROOT
HETATM    1  N1  UNL     1      14.367  -2.591  50.701  1.00  0.00    -0.197 NA
HETATM    2  C1  UNL     1      15.144  -1.999  51.340  1.00  0.00     0.059 C 
HETATM    3  C2  UNL     1      16.135  -1.252  52.123  1.00  0.00     0.134 C 
ENDROOT
BRANCH   3   4
HETATM    4  C3  UNL     1      15.822   0.175  52.218  1.00  0.00    -0.008 C 
HETATM    5  C4  UNL     1      14.621   0.480  52.789  1.00  0.00     0.064 C 
HETATM    6  C5  UNL     1      13.966   1.810  53.055  1.00  0.00     0.102 C 
HETATM    7  N2  UNL     1      14.077   3.120  52.955  1.00  0.00    -0.217 NA
HETATM    8  C6  UNL     1      13.067   3.958  53.403  1.00  0.00     0.200 A 
HETATM    9  N3  UNL     1      14.200   4.546  53.444  1.00  0.00    -0.201 NA
HETATM   10  C7  UNL     1      15.481   4.072  53.088  1.00  0.00     0.286 C 
HETATM   11  O1  UNL     1      15.742   3.799  51.743  1.00  0.00    -0.336 OA
HETATM   12  C8  UNL     1      16.811   3.006  51.319  1.00  0.00     0.068 C 
HETATM   13  C9  UNL     1      17.985   3.602  51.583  1.00  0.00     0.029 C 
HETATM   14  C24 UNL     1      16.821   1.667  50.654  1.00  0.00     0.041 C 
HETATM   15  C10 UNL     1      19.329   3.015  51.858  1.00  0.00     0.158 C 
HETATM   16  N4  UNL     1      19.289   1.564  52.025  1.00  0.00    -0.327 N 
HETATM   17  C11 UNL     1      20.637   1.249  52.391  1.00  0.00     0.323 C 
HETATM   18  C22 UNL     1      18.416   0.396  51.954  1.00  0.00     0.162 C 
HETATM   19  O2  UNL     1      21.501   2.161  52.489  1.00  0.00    -0.247 OA
HETATM   20  N5  UNL     1      21.082  -0.054  52.659  1.00  0.00    -0.309 N 
HETATM   21  H11 UNL     1      20.402  -0.843  52.591  1.00  0.00     0.170 HD
HETATM   22  C23 UNL     1      17.056   0.732  51.602  1.00  0.00    -0.053 C 
BRANCH  20  23
HETATM   23  C12 UNL     1      22.475  -0.052  52.995  1.00  0.00     0.037 A 
HETATM   24  C13 UNL     1      22.725  -0.779  54.145  1.00  0.00     0.030 A 
HETATM   25  C14 UNL     1      24.044  -0.866  54.596  1.00  0.00     0.014 A 
HETATM   26  C15 UNL     1      25.012  -0.218  53.862  1.00  0.00    -0.026 A 
HETATM   27  C16 UNL     1      26.343  -0.258  54.247  1.00  0.00     0.012 A 
HETATM   28  C20 UNL     1      24.742   0.507  52.709  1.00  0.00    -0.024 A 
HETATM   29  C17 UNL     1      27.349   0.373  53.544  1.00  0.00     0.001 A 
HETATM   30  C18 UNL     1      27.001   1.078  52.404  1.00  0.00     0.001 A 
HETATM   31  C19 UNL     1      25.690   1.160  51.960  1.00  0.00     0.012 A 
HETATM   32  C21 UNL     1      23.423   0.590  52.263  1.00  0.00     0.042 A 
ENDBRANCH  20  23
ENDBRANCH   3   4
TORSDOF 2
ENDMDL
MODEL 7
REMARK VINA RESULT:      -9.1      6.258      9.464
REMARK  2 active torsions:
REMARK  status: ('A' for Active; 'I' for Inactive)
REMARK    1  A    between atoms: C2_3  and  C3_4 
REMARK       I    between atoms: N4_15  and  C11_16 
REMARK       I    between atoms: C11_16  and  N5_18 
REMARK    2  A    between atoms: N5_18  and  C12_19 
ROOT
HETATM    1  N1  UNL     1      24.104  10.572  45.834  1.00  0.00    -0.197 NA
HETATM    2  C1  UNL     1      24.451  10.213  46.890  1.00  0.00     0.059 C 
HETATM    3  C2  UNL     1      24.881   9.738  48.209  1.00  0.00     0.134 C 
ENDROOT
BRANCH   3   4
HETATM    4  C3  UNL     1      26.323   9.493  48.280  1.00  0.00    -0.008 C 
HETATM    5  C4  UNL     1      27.087  10.563  48.646  1.00  0.00     0.064 C 
HETATM    6  C5  UNL     1      28.577  10.695  48.825  1.00  0.00     0.102 C 
HETATM    7  N2  UNL     1      29.740  10.077  48.773  1.00  0.00    -0.217 NA
HETATM    8  C6  UNL     1      30.917  10.750  49.061  1.00  0.00     0.200 A 
HETATM    9  N3  UNL     1      31.033   9.502  49.307  1.00  0.00    -0.201 NA
HETATM   10  C7  UNL     1      30.093   8.460  49.163  1.00  0.00     0.286 C 
HETATM   11  O1  UNL     1      29.681   8.105  47.877  1.00  0.00    -0.336 OA
HETATM   12  C8  UNL     1      28.523   7.364  47.624  1.00  0.00     0.068 C 
HETATM   13  C9  UNL     1      28.640   6.114  48.097  1.00  0.00     0.029 C 
HETATM   14  C24 UNL     1      27.252   7.756  46.942  1.00  0.00     0.041 C 
HETATM   15  C10 UNL     1      27.599   5.160  48.583  1.00  0.00     0.158 C 
HETATM   16  N4  UNL     1      26.281   5.778  48.709  1.00  0.00    -0.327 N 
HETATM   17  C11 UNL     1      25.495   4.733  49.292  1.00  0.00     0.323 C 
HETATM   18  C22 UNL     1      25.530   7.006  48.466  1.00  0.00     0.162 C 
HETATM   19  O2  UNL     1      26.014   3.615  49.555  1.00  0.00    -0.247 OA
HETATM   20  N5  UNL     1      24.134   4.870  49.604  1.00  0.00    -0.309 N 
HETATM   21  H11 UNL     1      23.660   5.778  49.404  1.00  0.00     0.170 HD
HETATM   22  C23 UNL     1      26.341   8.057  47.895  1.00  0.00    -0.053 C 
BRANCH  20  23
HETATM   23  C12 UNL     1      23.623   3.658  50.172  1.00  0.00     0.037 A 
HETATM   24  C13 UNL     1      22.733   3.029  49.321  1.00  0.00     0.030 A 
HETATM   25  C14 UNL     1      22.151   1.831  49.742  1.00  0.00     0.014 A 
HETATM   26  C15 UNL     1      22.504   1.355  50.985  1.00  0.00    -0.026 A 
HETATM   27  C16 UNL     1      21.969   0.174  51.473  1.00  0.00     0.012 A 
HETATM   28  C20 UNL     1      23.401   2.000  51.827  1.00  0.00    -0.024 A 
HETATM   29  C17 UNL     1      22.292  -0.345  52.711  1.00  0.00     0.001 A 
HETATM   30  C18 UNL     1      23.194   0.357  53.493  1.00  0.00     0.001 A 
HETATM   31  C19 UNL     1      23.769   1.545  53.069  1.00  0.00     0.012 A 
HETATM   32  C21 UNL     1      23.978   3.196  51.400  1.00  0.00     0.042 A 
ENDBRANCH  20  23
ENDBRANCH   3   4
TORSDOF 2
ENDMDL
MODEL 8
REMARK VINA RESULT:      -8.9      3.700      5.391
REMARK  2 active torsions:
REMARK  status: ('A' for Active; 'I' for Inactive)
REMARK    1  A    between atoms: C2_3  and  C3_4 
REMARK       I    between atoms: N4_15  and  C11_16 
REMARK       I    between atoms: C11_16  and  N5_18 
REMARK    2  A    between atoms: N5_18  and  C12_19 
ROOT
HETATM    1  N1  UNL     1      20.761   3.638  43.683  1.00  0.00    -0.197 NA
HETATM    2  C1  UNL     1      21.291   3.817  44.708  1.00  0.00     0.059 C 
HETATM    3  C2  UNL     1      21.976   4.055  45.983  1.00  0.00     0.134 C 
ENDROOT
BRANCH   3   4
HETATM    4  C3  UNL     1      21.525   5.279  46.649  1.00  0.00    -0.008 C 
HETATM    5  C4  UNL     1      20.439   5.889  46.091  1.00  0.00     0.064 C 
HETATM    6  C5  UNL     1      19.701   7.141  46.486  1.00  0.00     0.102 C 
HETATM    7  N2  UNL     1      19.630   8.140  47.344  1.00  0.00    -0.217 NA
HETATM    8  C6  UNL     1      18.652   9.116  47.221  1.00  0.00     0.200 A 
HETATM    9  N3  UNL     1      19.025   8.993  48.437  1.00  0.00    -0.201 NA
HETATM   10  C7  UNL     1      19.984   8.129  49.007  1.00  0.00     0.286 C 
HETATM   11  O1  UNL     1      21.328   8.313  48.679  1.00  0.00    -0.336 OA
HETATM   12  C8  UNL     1      22.304   7.333  48.879  1.00  0.00     0.068 C 
HETATM   13  C9  UNL     1      22.498   7.109  50.188  1.00  0.00     0.029 C 
HETATM   14  C24 UNL     1      23.109   6.550  47.891  1.00  0.00     0.041 C 
HETATM   15  C10 UNL     1      22.947   5.878  50.904  1.00  0.00     0.158 C 
HETATM   16  N4  UNL     1      23.014   4.709  50.031  1.00  0.00    -0.327 N 
HETATM   17  C11 UNL     1      23.341   3.652  50.940  1.00  0.00     0.323 C 
HETATM   18  C22 UNL     1      22.875   4.265  48.647  1.00  0.00     0.162 C 
HETATM   19  O2  UNL     1      23.493   3.891  52.168  1.00  0.00    -0.247 OA
HETATM   20  N5  UNL     1      23.510   2.316  50.547  1.00  0.00    -0.309 N 
HETATM   21  H11 UNL     1      23.394   2.070  49.539  1.00  0.00     0.170 HD
HETATM   22  C23 UNL     1      22.527   5.339  47.745  1.00  0.00    -0.053 C 
BRANCH  20  23
HETATM   23  C12 UNL     1      23.832   1.495  51.675  1.00  0.00     0.037 A 
HETATM   24  C13 UNL     1      25.197   1.417  51.879  1.00  0.00     0.030 A 
HETATM   25  C14 UNL     1      25.662   0.648  52.949  1.00  0.00     0.014 A 
HETATM   26  C15 UNL     1      24.723   0.013  53.732  1.00  0.00    -0.026 A 
HETATM   27  C16 UNL     1      25.107  -0.767  54.810  1.00  0.00     0.012 A 
HETATM   28  C20 UNL     1      23.355   0.103  53.511  1.00  0.00    -0.024 A 
HETATM   29  C17 UNL     1      24.204  -1.422  55.624  1.00  0.00     0.001 A 
HETATM   30  C18 UNL     1      22.856  -1.285  55.340  1.00  0.00     0.001 A 
HETATM   31  C19 UNL     1      22.401  -0.520  54.278  1.00  0.00     0.012 A 
HETATM   32  C21 UNL     1      22.898   0.873  52.442  1.00  0.00     0.042 A 
ENDBRANCH  20  23
ENDBRANCH   3   4
TORSDOF 2
ENDMDL
MODEL 9
REMARK VINA RESULT:      -8.6      6.791      9.770
REMARK  2 active torsions:
REMARK  status: ('A' for Active; 'I' for Inactive)
REMARK    1  A    between atoms: C2_3  and  C3_4 
REMARK       I    between atoms: N4_15  and  C11_16 
REMARK       I    between atoms: C11_16  and  N5_18 
REMARK    2  A    between atoms: N5_18  and  C12_19 
ROOT
HETATM    1  N1  UNL     1      32.229   6.928  48.481  1.00  0.00    -0.197 NA
HETATM    2  C1  UNL     1      31.192   6.847  47.950  1.00  0.00     0.059 C 
HETATM    3  C2  UNL     1      29.879   6.737  47.305  1.00  0.00     0.134 C 
ENDROOT
BRANCH   3   4
HETATM    4  C3  UNL     1      29.131   7.996  47.325  1.00  0.00    -0.008 C 
HETATM    5  C4  UNL     1      29.406   8.862  46.307  1.00  0.00     0.064 C 
HETATM    6  C5  UNL     1      28.848  10.227  45.997  1.00  0.00     0.102 C 
HETATM    7  N2  UNL     1      28.006  11.171  46.370  1.00  0.00    -0.217 NA
HETATM    8  C6  UNL     1      27.888  12.347  45.644  1.00  0.00     0.200 A 
HETATM    9  N3  UNL     1      26.802  12.081  46.263  1.00  0.00    -0.201 NA
HETATM   10  C7  UNL     1      26.482  10.995  47.105  1.00  0.00     0.286 C 
HETATM   11  O1  UNL     1      27.136  10.888  48.334  1.00  0.00    -0.336 OA
HETATM   12  C8  UNL     1      27.178   9.704  49.076  1.00  0.00     0.068 C 
HETATM   13  C9  UNL     1      25.956   9.376  49.525  1.00  0.00     0.029 C 
HETATM   14  C24 UNL     1      28.329   8.812  49.413  1.00  0.00     0.041 C 
HETATM   15  C10 UNL     1      25.366   8.041  49.838  1.00  0.00     0.158 C 
HETATM   16  N4  UNL     1      26.220   6.932  49.418  1.00  0.00    -0.327 N 
HETATM   17  C11 UNL     1      25.414   5.784  49.703  1.00  0.00     0.323 C 
HETATM   18  C22 UNL     1      27.523   6.603  48.848  1.00  0.00     0.162 C 
HETATM   19  O2  UNL     1      24.264   5.920  50.200  1.00  0.00    -0.247 OA
HETATM   20  N5  UNL     1      25.829   4.466  49.458  1.00  0.00    -0.309 N 
HETATM   21  H11 UNL     1      26.774   4.304  49.047  1.00  0.00     0.170 HD
HETATM   22  C23 UNL     1      28.318   7.772  48.550  1.00  0.00    -0.053 C 
BRANCH  20  23
HETATM   23  C12 UNL     1      24.810   3.537  49.846  1.00  0.00     0.037 A 
HETATM   24  C13 UNL     1      23.830   3.418  48.878  1.00  0.00     0.030 A 
HETATM   25  C14 UNL     1      22.768   2.543  49.119  1.00  0.00     0.014 A 
HETATM   26  C15 UNL     1      22.768   1.854  50.311  1.00  0.00    -0.026 A 
HETATM   27  C16 UNL     1      21.749   0.968  50.622  1.00  0.00     0.012 A 
HETATM   28  C20 UNL     1      23.762   1.986  51.272  1.00  0.00    -0.024 A 
HETATM   29  C17 UNL     1      21.705   0.255  51.802  1.00  0.00     0.001 A 
HETATM   30  C18 UNL     1      22.732   0.441  52.712  1.00  0.00     0.001 A 
HETATM   31  C19 UNL     1      23.784   1.310  52.467  1.00  0.00     0.012 A 
HETATM   32  C21 UNL     1      24.820   2.861  51.025  1.00  0.00     0.042 A 
ENDBRANCH  20  23
ENDBRANCH   3   4
TORSDOF 2
ENDMDL
