MODEL 1
REMARK VINA RESULT:      -9.0      0.000      0.000
REMARK  1 active torsions:
REMARK  status: ('A' for Active; 'I' for Inactive)
REMARK    1  A    between atoms: O2_15  and  C14_16 
ROOT
HETATM    1  O1  UNL     1      20.732   3.007  50.499  1.00  0.00    -0.273 OA
HETATM    2  C1  UNL     1      21.260   1.956  50.911  1.00  0.00     0.227 C 
HETATM    3  C2  UNL     1      22.567   1.195  50.544  1.00  0.00     0.142 C 
HETATM    4  C3  UNL     1      23.207   1.252  51.891  1.00  0.00    -0.032 C 
HETATM    5  C4  UNL     1      24.114   2.195  51.675  1.00  0.00    -0.071 C 
HETATM    6  C5  UNL     1      24.893   3.194  50.988  1.00  0.00     0.039 C 
HETATM    7  C6  UNL     1      26.423   2.833  51.253  1.00  0.00     0.039 C 
HETATM    8  C7  UNL     1      26.320   1.503  51.965  1.00  0.00    -0.069 A 
HETATM    9  C8  UNL     1      26.791   0.236  51.582  1.00  0.00     0.000 A 
HETATM   10  C9  UNL     1      26.353  -0.836  52.327  1.00  0.00    -0.014 A 
HETATM   11  C10 UNL     1      25.539  -0.419  53.314  1.00  0.00     0.007 A 
HETATM   12  C11 UNL     1      24.903   0.581  53.998  1.00  0.00     0.020 A 
HETATM   13  C12 UNL     1      25.517   1.283  53.062  1.00  0.00     0.004 A 
HETATM   14  C13 UNL     1      24.689   2.563  53.066  1.00  0.00     0.050 C 
HETATM   15  O2  UNL     1      24.665  -0.855  54.353  1.00  0.00     0.000 OA
HETATM   16  C14 UNL     1      23.249  -0.497  53.954  1.00  0.00    -0.009 A 
HETATM   17  C15 UNL     1      22.466  -1.209  54.778  1.00  0.00     0.032 A 
HETATM   18  C16 UNL     1      21.118  -1.092  54.645  1.00  0.00     0.120 A 
HETATM   19  N1  UNL     1      20.563  -0.310  53.740  1.00  0.00    -0.242 NA
HETATM   20  C17 UNL     1      21.401   0.385  52.933  1.00  0.00     0.141 A 
HETATM   21  C18 UNL     1      22.793   0.369  52.959  1.00  0.00     0.028 A 
HETATM   22  N2  UNL     1      20.651   1.154  51.957  1.00  0.00    -0.311 N 
HETATM   23  H14 UNL     1      19.571   1.170  51.998  1.00  0.00     0.170 HD
ENDROOT
TORSDOF 1
ENDMDL
MODEL 2
REMARK VINA RESULT:      -8.7      2.184      4.384
REMARK  1 active torsions:
REMARK  status: ('A' for Active; 'I' for Inactive)
REMARK    1  A    between atoms: O2_15  and  C14_16 
ROOT
HETATM    1  O1  UNL     1      24.009   4.884  50.536  1.00  0.00    -0.273 OA
HETATM    2  C1  UNL     1      24.181   4.056  51.452  1.00  0.00     0.227 C 
HETATM    3  C2  UNL     1      23.306   3.579  52.647  1.00  0.00     0.142 C 
HETATM    4  C3  UNL     1      23.232   2.138  52.267  1.00  0.00    -0.032 C 
HETATM    5  C4  UNL     1      21.993   2.087  51.798  1.00  0.00    -0.071 C 
HETATM    6  C5  UNL     1      20.667   2.510  51.423  1.00  0.00     0.039 C 
HETATM    7  C6  UNL     1      19.657   1.473  52.092  1.00  0.00     0.039 C 
HETATM    8  C7  UNL     1      20.579   0.633  52.946  1.00  0.00    -0.069 A 
HETATM    9  C8  UNL     1      20.611   0.464  54.341  1.00  0.00     0.000 A 
HETATM   10  C9  UNL     1      21.707  -0.188  54.858  1.00  0.00    -0.014 A 
HETATM   11  C10 UNL     1      22.547  -0.549  53.871  1.00  0.00     0.007 A 
HETATM   12  C11 UNL     1      22.876  -0.612  52.544  1.00  0.00     0.020 A 
HETATM   13  C12 UNL     1      21.728   0.039  52.476  1.00  0.00     0.004 A 
HETATM   14  C13 UNL     1      21.851   0.706  51.110  1.00  0.00     0.050 C 
HETATM   15  O2  UNL     1      23.829  -1.106  53.590  1.00  0.00     0.000 OA
HETATM   16  C14 UNL     1      24.699  -0.011  53.009  1.00  0.00    -0.009 A 
HETATM   17  C15 UNL     1      25.950  -0.487  53.080  1.00  0.00     0.032 A 
HETATM   18  C16 UNL     1      26.964   0.297  52.628  1.00  0.00     0.120 A 
HETATM   19  N1  UNL     1      26.757   1.500  52.130  1.00  0.00    -0.242 NA
HETATM   20  C17 UNL     1      25.473   1.933  52.084  1.00  0.00     0.141 A 
HETATM   21  C18 UNL     1      24.341   1.239  52.502  1.00  0.00     0.028 A 
HETATM   22  N2  UNL     1      25.408   3.288  51.567  1.00  0.00    -0.311 N 
HETATM   23  H14 UNL     1      26.306   3.775  51.215  1.00  0.00     0.170 HD
ENDROOT
TORSDOF 1
ENDMDL
MODEL 3
REMARK VINA RESULT:      -8.4      2.004      5.129
REMARK  1 active torsions:
REMARK  status: ('A' for Active; 'I' for Inactive)
REMARK    1  A    between atoms: O2_15  and  C14_16 
ROOT
HETATM    1  O1  UNL     1      22.656  -1.582  55.626  1.00  0.00    -0.273 OA
HETATM    2  C1  UNL     1      23.083  -1.218  54.513  1.00  0.00     0.227 C 
HETATM    3  C2  UNL     1      22.523  -1.315  53.064  1.00  0.00     0.142 C 
HETATM    4  C3  UNL     1      22.478   0.149  52.777  1.00  0.00    -0.032 C 
HETATM    5  C4  UNL     1      21.175   0.365  52.888  1.00  0.00    -0.071 C 
HETATM    6  C5  UNL     1      19.771   0.110  53.096  1.00  0.00     0.039 C 
HETATM    7  C6  UNL     1      19.009   0.741  51.844  1.00  0.00     0.039 C 
HETATM    8  C7  UNL     1      20.154   1.159  50.950  1.00  0.00    -0.069 A 
HETATM    9  C8  UNL     1      20.497   0.720  49.659  1.00  0.00     0.000 A 
HETATM   10  C9  UNL     1      21.725   1.116  49.179  1.00  0.00    -0.014 A 
HETATM   11  C10 UNL     1      22.358   1.881  50.086  1.00  0.00     0.007 A 
HETATM   12  C11 UNL     1      22.399   2.511  51.301  1.00  0.00     0.020 A 
HETATM   13  C12 UNL     1      21.217   1.924  51.374  1.00  0.00     0.004 A 
HETATM   14  C13 UNL     1      20.993   1.904  52.882  1.00  0.00     0.050 C 
HETATM   15  O2  UNL     1      23.588   2.535  50.390  1.00  0.00     0.000 OA
HETATM   16  C14 UNL     1      24.228   1.811  51.556  1.00  0.00    -0.009 A 
HETATM   17  C15 UNL     1      25.498   2.242  51.577  1.00  0.00     0.032 A 
HETATM   18  C16 UNL     1      26.328   1.748  52.533  1.00  0.00     0.120 A 
HETATM   19  N1  UNL     1      25.929   0.867  53.428  1.00  0.00    -0.242 NA
HETATM   20  C17 UNL     1      24.636   0.464  53.359  1.00  0.00     0.141 A 
HETATM   21  C18 UNL     1      23.677   0.887  52.445  1.00  0.00     0.028 A 
HETATM   22  N2  UNL     1      24.360  -0.543  54.367  1.00  0.00    -0.311 N 
HETATM   23  H14 UNL     1      25.122  -0.813  55.084  1.00  0.00     0.170 HD
ENDROOT
TORSDOF 1
ENDMDL
MODEL 4
REMARK VINA RESULT:      -8.3      2.243      3.949
REMARK  1 active torsions:
REMARK  status: ('A' for Active; 'I' for Inactive)
REMARK    1  A    between atoms: O2_15  and  C14_16 
ROOT
HETATM    1  O1  UNL     1      21.072   0.200  54.347  1.00  0.00    -0.273 OA
HETATM    2  C1  UNL     1      21.987   0.181  53.500  1.00  0.00     0.227 C 
HETATM    3  C2  UNL     1      22.137   0.771  52.068  1.00  0.00     0.142 C 
HETATM    4  C3  UNL     1      23.319   1.639  52.342  1.00  0.00    -0.032 C 
HETATM    5  C4  UNL     1      22.729   2.825  52.385  1.00  0.00    -0.071 C 
HETATM    6  C5  UNL     1      21.693   3.826  52.333  1.00  0.00     0.039 C 
HETATM    7  C6  UNL     1      22.208   4.955  51.331  1.00  0.00     0.039 C 
HETATM    8  C7  UNL     1      23.476   4.342  50.782  1.00  0.00    -0.069 A 
HETATM    9  C8  UNL     1      23.806   3.977  49.466  1.00  0.00     0.000 A 
HETATM   10  C9  UNL     1      24.951   3.232  49.300  1.00  0.00    -0.014 A 
HETATM   11  C10 UNL     1      25.542   3.011  50.489  1.00  0.00     0.007 A 
HETATM   12  C11 UNL     1      25.594   3.171  51.847  1.00  0.00     0.020 A 
HETATM   13  C12 UNL     1      24.479   3.824  51.571  1.00  0.00     0.004 A 
HETATM   14  C13 UNL     1      23.790   3.813  52.931  1.00  0.00     0.050 C 
HETATM   15  O2  UNL     1      26.597   2.308  51.142  1.00  0.00     0.000 OA
HETATM   16  C14 UNL     1      25.975   1.241  52.018  1.00  0.00    -0.009 A 
HETATM   17  C15 UNL     1      26.987   0.418  52.332  1.00  0.00     0.032 A 
HETATM   18  C16 UNL     1      26.720  -0.657  53.119  1.00  0.00     0.120 A 
HETATM   19  N1  UNL     1      25.510  -0.915  53.576  1.00  0.00    -0.242 NA
HETATM   20  C17 UNL     1      24.525  -0.052  53.226  1.00  0.00     0.141 A 
HETATM   21  C18 UNL     1      24.653   1.087  52.436  1.00  0.00     0.028 A 
HETATM   22  N2  UNL     1      23.247  -0.494  53.752  1.00  0.00    -0.311 N 
HETATM   23  H14 UNL     1      23.199  -1.363  54.395  1.00  0.00     0.170 HD
ENDROOT
TORSDOF 1
ENDMDL
MODEL 5
REMARK VINA RESULT:      -8.2      2.038      4.331
REMARK  1 active torsions:
REMARK  status: ('A' for Active; 'I' for Inactive)
REMARK    1  A    between atoms: O2_15  and  C14_16 
ROOT
HETATM    1  O1  UNL     1      26.664   1.017  51.594  1.00  0.00    -0.273 OA
HETATM    2  C1  UNL     1      25.644   1.196  52.290  1.00  0.00     0.227 C 
HETATM    3  C2  UNL     1      24.609   2.352  52.399  1.00  0.00     0.142 C 
HETATM    4  C3  UNL     1      23.399   1.561  52.028  1.00  0.00    -0.032 C 
HETATM    5  C4  UNL     1      23.216   1.988  50.786  1.00  0.00    -0.071 C 
HETATM    6  C5  UNL     1      23.416   2.724  49.563  1.00  0.00     0.039 C 
HETATM    7  C6  UNL     1      22.010   3.382  49.198  1.00  0.00     0.039 C 
HETATM    8  C7  UNL     1      21.176   3.052  50.416  1.00  0.00    -0.069 A 
HETATM    9  C8  UNL     1      20.568   3.907  51.351  1.00  0.00     0.000 A 
HETATM   10  C9  UNL     1      20.059   3.318  52.486  1.00  0.00    -0.014 A 
HETATM   11  C10 UNL     1      20.252   1.987  52.449  1.00  0.00     0.007 A 
HETATM   12  C11 UNL     1      20.710   0.862  51.820  1.00  0.00     0.020 A 
HETATM   13  C12 UNL     1      21.058   1.786  50.942  1.00  0.00     0.004 A 
HETATM   14  C13 UNL     1      22.147   1.055  50.164  1.00  0.00     0.050 C 
HETATM   15  O2  UNL     1      20.137   0.781  53.202  1.00  0.00     0.000 OA
HETATM   16  C14 UNL     1      21.534   0.293  53.522  1.00  0.00    -0.009 A 
HETATM   17  C15 UNL     1      21.369  -0.624  54.487  1.00  0.00     0.032 A 
HETATM   18  C16 UNL     1      22.473  -1.239  54.985  1.00  0.00     0.120 A 
HETATM   19  N1  UNL     1      23.689  -0.964  54.555  1.00  0.00    -0.242 NA
HETATM   20  C17 UNL     1      23.798  -0.028  53.580  1.00  0.00     0.141 A 
HETATM   21  C18 UNL     1      22.760   0.674  52.975  1.00  0.00     0.028 A 
HETATM   22  N2  UNL     1      25.192   0.208  53.252  1.00  0.00    -0.311 N 
HETATM   23  H14 UNL     1      25.965  -0.388  53.717  1.00  0.00     0.170 HD
ENDROOT
TORSDOF 1
ENDMDL
MODEL 6
REMARK VINA RESULT:      -8.2      2.124      3.325
REMARK  1 active torsions:
REMARK  status: ('A' for Active; 'I' for Inactive)
REMARK    1  A    between atoms: O2_15  and  C14_16 
ROOT
HETATM    1  O1  UNL     1      20.051   2.679  47.681  1.00  0.00    -0.273 OA
HETATM    2  C1  UNL     1      21.008   2.142  48.272  1.00  0.00     0.227 C 
HETATM    3  C2  UNL     1      22.552   2.201  48.091  1.00  0.00     0.142 C 
HETATM    4  C3  UNL     1      22.884   2.732  49.446  1.00  0.00    -0.032 C 
HETATM    5  C4  UNL     1      23.154   3.993  49.140  1.00  0.00    -0.071 C 
HETATM    6  C5  UNL     1      23.346   5.185  48.353  1.00  0.00     0.039 C 
HETATM    7  C6  UNL     1      24.780   5.759  48.748  1.00  0.00     0.039 C 
HETATM    8  C7  UNL     1      25.326   4.670  49.644  1.00  0.00    -0.069 A 
HETATM    9  C8  UNL     1      26.452   3.846  49.478  1.00  0.00     0.000 A 
HETATM   10  C9  UNL     1      26.575   2.788  50.350  1.00  0.00    -0.014 A 
HETATM   11  C10 UNL     1      25.550   2.777  51.221  1.00  0.00     0.007 A 
HETATM   12  C11 UNL     1      24.393   3.317  51.714  1.00  0.00     0.020 A 
HETATM   13  C12 UNL     1      24.641   4.149  50.717  1.00  0.00     0.004 A 
HETATM   14  C13 UNL     1      23.258   4.749  50.488  1.00  0.00     0.050 C 
HETATM   15  O2  UNL     1      24.929   2.031  52.266  1.00  0.00     0.000 OA
HETATM   16  C14 UNL     1      23.608   1.505  51.746  1.00  0.00    -0.009 A 
HETATM   17  C15 UNL     1      23.240   0.561  52.624  1.00  0.00     0.032 A 
HETATM   18  C16 UNL     1      22.074  -0.101  52.406  1.00  0.00     0.120 A 
HETATM   19  N1  UNL     1      21.302   0.151  51.367  1.00  0.00    -0.242 NA
HETATM   20  C17 UNL     1      21.723   1.114  50.510  1.00  0.00     0.141 A 
HETATM   21  C18 UNL     1      22.885   1.873  50.610  1.00  0.00     0.028 A 
HETATM   22  N2  UNL     1      20.805   1.241  49.392  1.00  0.00    -0.311 N 
HETATM   23  H14 UNL     1      19.894   0.660  49.374  1.00  0.00     0.170 HD
ENDROOT
TORSDOF 1
ENDMDL
MODEL 7
REMARK VINA RESULT:      -8.2      1.991      4.110
REMARK  1 active torsions:
REMARK  status: ('A' for Active; 'I' for Inactive)
REMARK    1  A    between atoms: O2_15  and  C14_16 
ROOT
HETATM    1  O1  UNL     1      27.569  -0.185  52.830  1.00  0.00    -0.273 OA
HETATM    2  C1  UNL     1      26.520   0.349  53.239  1.00  0.00     0.227 C 
HETATM    3  C2  UNL     1      26.061   1.827  53.406  1.00  0.00     0.142 C 
HETATM    4  C3  UNL     1      24.881   1.765  52.495  1.00  0.00    -0.032 C 
HETATM    5  C4  UNL     1      25.368   2.405  51.442  1.00  0.00    -0.071 C 
HETATM    6  C5  UNL     1      26.290   3.131  50.604  1.00  0.00     0.039 C 
HETATM    7  C6  UNL     1      25.508   4.420  50.085  1.00  0.00     0.039 C 
HETATM    8  C7  UNL     1      24.216   4.348  50.868  1.00  0.00    -0.069 A 
HETATM    9  C8  UNL     1      23.683   5.240  51.814  1.00  0.00     0.000 A 
HETATM   10  C9  UNL     1      22.594   4.801  52.530  1.00  0.00    -0.014 A 
HETATM   11  C10 UNL     1      22.250   3.558  52.146  1.00  0.00     0.007 A 
HETATM   12  C11 UNL     1      22.434   2.457  51.355  1.00  0.00     0.020 A 
HETATM   13  C12 UNL     1      23.422   3.225  50.930  1.00  0.00     0.004 A 
HETATM   14  C13 UNL     1      24.346   2.191  50.298  1.00  0.00     0.050 C 
HETATM   15  O2  UNL     1      21.395   2.453  52.434  1.00  0.00     0.000 OA
HETATM   16  C14 UNL     1      22.253   1.322  52.961  1.00  0.00    -0.009 A 
HETATM   17  C15 UNL     1      21.388   0.461  53.517  1.00  0.00     0.032 A 
HETATM   18  C16 UNL     1      21.883  -0.668  54.088  1.00  0.00     0.120 A 
HETATM   19  N1  UNL     1      23.173  -0.940  54.114  1.00  0.00    -0.242 NA
HETATM   20  C17 UNL     1      24.002  -0.034  53.538  1.00  0.00     0.141 A 
HETATM   21  C18 UNL     1      23.638   1.155  52.915  1.00  0.00     0.028 A 
HETATM   22  N2  UNL     1      25.388  -0.439  53.693  1.00  0.00    -0.311 N 
HETATM   23  H14 UNL     1      25.625  -1.390  54.148  1.00  0.00     0.170 HD
ENDROOT
TORSDOF 1
ENDMDL
MODEL 8
REMARK VINA RESULT:      -8.1      2.558      4.764
REMARK  1 active torsions:
REMARK  status: ('A' for Active; 'I' for Inactive)
REMARK    1  A    between atoms: O2_15  and  C14_16 
ROOT
HETATM    1  O1  UNL     1      20.709   4.461  51.502  1.00  0.00    -0.273 OA
HETATM    2  C1  UNL     1      21.946   4.571  51.616  1.00  0.00     0.227 C 
HETATM    3  C2  UNL     1      22.960   4.186  52.731  1.00  0.00     0.142 C 
HETATM    4  C3  UNL     1      23.792   3.251  51.918  1.00  0.00    -0.032 C 
HETATM    5  C4  UNL     1      23.366   2.090  52.395  1.00  0.00    -0.071 C 
HETATM    6  C5  UNL     1      22.632   1.139  53.191  1.00  0.00     0.039 C 
HETATM    7  C6  UNL     1      23.712   0.147  53.818  1.00  0.00     0.039 C 
HETATM    8  C7  UNL     1      25.016   0.792  53.407  1.00  0.00    -0.069 A 
HETATM    9  C8  UNL     1      26.046   1.329  54.198  1.00  0.00     0.000 A 
HETATM   10  C9  UNL     1      27.014   2.054  53.541  1.00  0.00    -0.014 A 
HETATM   11  C10 UNL     1      26.760   2.086  52.221  1.00  0.00     0.007 A 
HETATM   12  C11 UNL     1      25.997   1.735  51.140  1.00  0.00     0.020 A 
HETATM   13  C12 UNL     1      25.312   1.162  52.115  1.00  0.00     0.004 A 
HETATM   14  C13 UNL     1      23.946   1.002  51.456  1.00  0.00     0.050 C 
HETATM   15  O2  UNL     1      27.167   2.657  50.979  1.00  0.00     0.000 OA
HETATM   16  C14 UNL     1      26.082   3.609  50.523  1.00  0.00    -0.009 A 
HETATM   17  C15 UNL     1      26.651   4.347  49.558  1.00  0.00     0.032 A 
HETATM   18  C16 UNL     1      25.901   5.308  48.958  1.00  0.00     0.120 A 
HETATM   19  N1  UNL     1      24.646   5.537  49.292  1.00  0.00    -0.242 NA
HETATM   20  C17 UNL     1      24.122   4.763  50.274  1.00  0.00     0.141 A 
HETATM   21  C18 UNL     1      24.766   3.743  50.968  1.00  0.00     0.028 A 
HETATM   22  N2  UNL     1      22.759   5.165  50.570  1.00  0.00    -0.311 N 
HETATM   23  H14 UNL     1      22.283   5.935  49.979  1.00  0.00     0.170 HD
ENDROOT
TORSDOF 1
ENDMDL
MODEL 9
REMARK VINA RESULT:      -7.8      2.996      5.101
REMARK  1 active torsions:
REMARK  status: ('A' for Active; 'I' for Inactive)
REMARK    1  A    between atoms: O2_15  and  C14_16 
ROOT
HETATM    1  O1  UNL     1      26.679   5.111  48.650  1.00  0.00    -0.273 OA
HETATM    2  C1  UNL     1      26.151   4.645  49.679  1.00  0.00     0.227 C 
HETATM    3  C2  UNL     1      24.815   4.930  50.424  1.00  0.00     0.142 C 
HETATM    4  C3  UNL     1      24.239   3.557  50.316  1.00  0.00    -0.032 C 
HETATM    5  C4  UNL     1      23.340   3.759  49.363  1.00  0.00    -0.071 C 
HETATM    6  C5  UNL     1      22.549   4.440  48.368  1.00  0.00     0.039 C 
HETATM    7  C6  UNL     1      21.026   4.095  48.691  1.00  0.00     0.039 C 
HETATM    8  C7  UNL     1      21.137   3.350  50.002  1.00  0.00    -0.069 A 
HETATM    9  C8  UNL     1      20.626   3.674  51.270  1.00  0.00     0.000 A 
HETATM   10  C9  UNL     1      21.078   2.919  52.329  1.00  0.00    -0.014 A 
HETATM   11  C10 UNL     1      21.944   1.983  51.901  1.00  0.00     0.007 A 
HETATM   12  C11 UNL     1      22.629   1.358  50.894  1.00  0.00     0.020 A 
HETATM   13  C12 UNL     1      21.985   2.285  50.207  1.00  0.00     0.004 A 
HETATM   14  C13 UNL     1      22.836   2.356  48.944  1.00  0.00     0.050 C 
HETATM   15  O2  UNL     1      22.857   0.972  52.324  1.00  0.00     0.000 OA
HETATM   16  C14 UNL     1      24.259   1.445  52.005  1.00  0.00    -0.009 A 
HETATM   17  C15 UNL     1      25.066   0.637  52.709  1.00  0.00     0.032 A 
HETATM   18  C16 UNL     1      26.408   0.834  52.622  1.00  0.00     0.120 A 
HETATM   19  N1  UNL     1      26.935   1.785  51.878  1.00  0.00    -0.242 NA
HETATM   20  C17 UNL     1      26.074   2.574  51.189  1.00  0.00     0.141 A 
HETATM   21  C18 UNL     1      24.685   2.484  51.177  1.00  0.00     0.028 A 
HETATM   22  N2  UNL     1      26.793   3.605  50.463  1.00  0.00    -0.311 N 
HETATM   23  H14 UNL     1      27.874   3.614  50.467  1.00  0.00     0.170 HD
ENDROOT
TORSDOF 1
ENDMDL
