MODEL 1
REMARK VINA RESULT:      -7.2      0.000      0.000
REMARK  7 active torsions:
REMARK  status: ('A' for Active; 'I' for Inactive)
REMARK    1  A    between atoms: O1_2  and  C2_3 
REMARK    2  A    between atoms: C5_6  and  C6_7 
REMARK    3  A    between atoms: C6_7  and  N1_8 
REMARK    4  A    between atoms: C6_7  and  N2_9 
REMARK    5  A    between atoms: N2_9  and  C7_10 
REMARK    6  A    between atoms: C14_19  and  O2_20 
REMARK    7  A    between atoms: O2_20  and  P1_21 
ROOT
HETATM    1  C6  UNL     1      24.195  -0.580  54.074  1.00  0.00     0.084 C 
ENDROOT
BRANCH   1   2
HETATM    2  C5  UNL     1      22.879  -0.567  53.844  1.00  0.00    -0.014 A 
HETATM    3  C4  UNL     1      22.036  -1.515  54.592  1.00  0.00     0.072 A 
HETATM    4  C3  UNL     1      20.619  -1.323  54.176  1.00  0.00     0.017 A 
HETATM    5  C2  UNL     1      20.082  -0.489  53.307  1.00  0.00     0.098 A 
HETATM    6  C14 UNL     1      21.019   0.401  52.629  1.00  0.00     0.106 A 
HETATM    7  C13 UNL     1      22.320   0.359  52.883  1.00  0.00     0.050 A 
BRANCH   5   8
HETATM    8  O1  UNL     1      18.710  -0.526  53.113  1.00  0.00    -0.353 OA
HETATM    9  C1  UNL     1      18.077  -1.768  53.451  1.00  0.00     0.210 C 
ENDBRANCH   5   8
BRANCH   6  10
HETATM   10  O2  UNL     1      20.481   1.295  51.700  1.00  0.00    -0.327 OA
BRANCH  10  11
HETATM   11  P1  UNL     1      20.266   3.005  52.006  1.00  0.00     0.009 P 
HETATM   12  H14 UNL     1      20.663   3.356  53.361  1.00  0.00     0.085 HD
HETATM   13  H15 UNL     1      18.922   3.467  51.698  1.00  0.00     0.085 HD
ENDBRANCH  10  11
ENDBRANCH   6  10
ENDBRANCH   1   2
BRANCH   1  14
HETATM   14  N1  UNL     1      24.339  -1.220  55.336  1.00  0.00    -0.288 NA
HETATM   15  H7  UNL     1      24.814  -2.089  55.606  1.00  0.00     0.125 HD
HETATM   16  H8  UNL     1      24.823  -2.095  55.576  1.00  0.00     0.125 HD
ENDBRANCH   1  14
BRANCH   1  17
HETATM   17  N2  UNL     1      25.132  -0.032  53.162  1.00  0.00    -0.347 N 
HETATM   18  H9  UNL     1      24.682   0.479  52.374  1.00  0.00     0.167 HD
BRANCH  17  19
HETATM   19  C7  UNL     1      26.539  -0.163  53.297  1.00  0.00     0.035 A 
HETATM   20  C8  UNL     1      27.137  -1.341  52.931  1.00  0.00     0.032 A 
HETATM   21  C9  UNL     1      28.519  -1.417  53.084  1.00  0.00     0.046 A 
HETATM   22  C10 UNL     1      29.235  -0.349  53.582  1.00  0.00     0.138 A 
HETATM   23  F1  UNL     1      30.584  -0.521  53.694  1.00  0.00    -0.204 F 
HETATM   24  C11 UNL     1      28.603   0.831  53.944  1.00  0.00     0.074 A 
HETATM   25 CL1  UNL     1      29.593   2.137  54.568  1.00  0.00    -0.081 Cl
HETATM   26  C12 UNL     1      27.236   0.914  53.795  1.00  0.00     0.056 A 
ENDBRANCH  17  19
ENDBRANCH   1  17
TORSDOF 7
ENDMDL
MODEL 2
REMARK VINA RESULT:      -7.2      3.413      4.542
REMARK  7 active torsions:
REMARK  status: ('A' for Active; 'I' for Inactive)
REMARK    1  A    between atoms: O1_2  and  C2_3 
REMARK    2  A    between atoms: C5_6  and  C6_7 
REMARK    3  A    between atoms: C6_7  and  N1_8 
REMARK    4  A    between atoms: C6_7  and  N2_9 
REMARK    5  A    between atoms: N2_9  and  C7_10 
REMARK    6  A    between atoms: C14_19  and  O2_20 
REMARK    7  A    between atoms: O2_20  and  P1_21 
ROOT
HETATM    1  C6  UNL     1      26.131   2.938  51.399  1.00  0.00     0.084 C 
ENDROOT
BRANCH   1   2
HETATM    2  C5  UNL     1      24.970   2.711  50.778  1.00  0.00    -0.014 A 
HETATM    3  C4  UNL     1      24.747   3.354  49.471  1.00  0.00     0.072 A 
HETATM    4  C3  UNL     1      23.399   2.962  48.972  1.00  0.00     0.017 A 
HETATM    5  C2  UNL     1      22.475   2.188  49.506  1.00  0.00     0.098 A 
HETATM    6  C14 UNL     1      22.812   1.608  50.802  1.00  0.00     0.106 A 
HETATM    7  C13 UNL     1      23.976   1.857  51.389  1.00  0.00     0.050 A 
BRANCH   5   8
HETATM    8  O1  UNL     1      21.291   1.992  48.811  1.00  0.00    -0.353 OA
HETATM    9  C1  UNL     1      21.013   2.963  47.792  1.00  0.00     0.210 C 
ENDBRANCH   5   8
BRANCH   6  10
HETATM   10  O2  UNL     1      21.853   0.784  51.394  1.00  0.00    -0.327 OA
BRANCH  10  11
HETATM   11  P1  UNL     1      22.123  -0.127  52.864  1.00  0.00     0.009 P 
HETATM   12  H14 UNL     1      20.918  -0.192  53.676  1.00  0.00     0.085 HD
HETATM   13  H15 UNL     1      23.263   0.358  53.625  1.00  0.00     0.085 HD
ENDBRANCH  10  11
ENDBRANCH   6  10
ENDBRANCH   1   2
BRANCH   1  14
HETATM   14  N1  UNL     1      26.904   3.684  50.468  1.00  0.00    -0.288 NA
HETATM   15  H7  UNL     1      27.723   3.427  49.905  1.00  0.00     0.125 HD
HETATM   16  H8  UNL     1      27.723   3.398  49.916  1.00  0.00     0.125 HD
ENDBRANCH   1  14
BRANCH   1  17
HETATM   17  N2  UNL     1      26.395   2.470  52.711  1.00  0.00    -0.347 N 
HETATM   18  H9  UNL     1      25.832   2.958  53.438  1.00  0.00     0.167 HD
BRANCH  17  19
HETATM   19  C7  UNL     1      27.330   1.445  53.014  1.00  0.00     0.035 A 
HETATM   20  C8  UNL     1      28.531   1.785  53.581  1.00  0.00     0.032 A 
HETATM   21  C9  UNL     1      29.412   0.743  53.857  1.00  0.00     0.046 A 
HETATM   22  C10 UNL     1      29.075  -0.563  53.567  1.00  0.00     0.138 A 
HETATM   23  F1  UNL     1      30.005  -1.513  53.876  1.00  0.00    -0.204 F 
HETATM   24  C11 UNL     1      27.852  -0.877  52.993  1.00  0.00     0.074 A 
HETATM   25 CL1  UNL     1      27.510  -2.564  52.659  1.00  0.00    -0.081 Cl
HETATM   26  C12 UNL     1      26.976   0.149  52.717  1.00  0.00     0.056 A 
ENDBRANCH  17  19
ENDBRANCH   1  17
TORSDOF 7
ENDMDL
MODEL 3
REMARK VINA RESULT:      -7.0      2.759      3.432
REMARK  7 active torsions:
REMARK  status: ('A' for Active; 'I' for Inactive)
REMARK    1  A    between atoms: O1_2  and  C2_3 
REMARK    2  A    between atoms: C5_6  and  C6_7 
REMARK    3  A    between atoms: C6_7  and  N1_8 
REMARK    4  A    between atoms: C6_7  and  N2_9 
REMARK    5  A    between atoms: N2_9  and  C7_10 
REMARK    6  A    between atoms: C14_19  and  O2_20 
REMARK    7  A    between atoms: O2_20  and  P1_21 
ROOT
HETATM    1  C6  UNL     1      24.765   2.853  52.117  1.00  0.00     0.084 C 
ENDROOT
BRANCH   1   2
HETATM    2  C5  UNL     1      23.626   2.192  51.894  1.00  0.00    -0.014 A 
HETATM    3  C4  UNL     1      23.104   2.155  50.517  1.00  0.00     0.072 A 
HETATM    4  C3  UNL     1      21.837   1.370  50.509  1.00  0.00     0.017 A 
HETATM    5  C2  UNL     1      21.193   0.766  51.487  1.00  0.00     0.098 A 
HETATM    6  C14 UNL     1      21.808   0.874  52.806  1.00  0.00     0.106 A 
HETATM    7  C13 UNL     1      22.940   1.539  52.989  1.00  0.00     0.050 A 
BRANCH   5   8
HETATM    8  O1  UNL     1      20.015   0.097  51.192  1.00  0.00    -0.353 OA
HETATM    9  C1  UNL     1      18.820   0.885  51.297  1.00  0.00     0.210 C 
ENDBRANCH   5   8
BRANCH   6  10
HETATM   10  O2  UNL     1      21.147   0.245  53.864  1.00  0.00    -0.327 OA
BRANCH  10  11
HETATM   11  P1  UNL     1      21.536  -1.362  54.438  1.00  0.00     0.009 P 
HETATM   12  H14 UNL     1      20.467  -1.904  55.263  1.00  0.00     0.085 HD
HETATM   13  H15 UNL     1      22.823  -1.424  55.111  1.00  0.00     0.085 HD
ENDBRANCH  10  11
ENDBRANCH   6  10
ENDBRANCH   1   2
BRANCH   1  14
HETATM   14  N1  UNL     1      24.392   3.959  52.928  1.00  0.00    -0.288 NA
HETATM   15  H7  UNL     1      23.549   4.139  53.486  1.00  0.00     0.125 HD
HETATM   16  H8  UNL     1      23.536   4.111  53.478  1.00  0.00     0.125 HD
ENDBRANCH   1  14
BRANCH   1  17
HETATM   17  N2  UNL     1      26.009   2.423  51.589  1.00  0.00    -0.347 N 
HETATM   18  H9  UNL     1      26.217   2.831  50.654  1.00  0.00     0.167 HD
BRANCH  17  19
HETATM   19  C7  UNL     1      26.886   1.528  52.257  1.00  0.00     0.035 A 
HETATM   20  C8  UNL     1      27.903   2.038  53.021  1.00  0.00     0.032 A 
HETATM   21  C9  UNL     1      28.735   1.117  53.654  1.00  0.00     0.046 A 
HETATM   22  C10 UNL     1      28.530  -0.239  53.507  1.00  0.00     0.138 A 
HETATM   23  F1  UNL     1      29.397  -1.059  54.167  1.00  0.00    -0.204 F 
HETATM   24  C11 UNL     1      27.491  -0.726  52.727  1.00  0.00     0.074 A 
HETATM   25 CL1  UNL     1      27.306  -2.464  52.597  1.00  0.00    -0.081 Cl
HETATM   26  C12 UNL     1      26.665   0.179  52.098  1.00  0.00     0.056 A 
ENDBRANCH  17  19
ENDBRANCH   1  17
TORSDOF 7
ENDMDL
MODEL 4
REMARK VINA RESULT:      -7.0      5.490      6.783
REMARK  7 active torsions:
REMARK  status: ('A' for Active; 'I' for Inactive)
REMARK    1  A    between atoms: O1_2  and  C2_3 
REMARK    2  A    between atoms: C5_6  and  C6_7 
REMARK    3  A    between atoms: C6_7  and  N1_8 
REMARK    4  A    between atoms: C6_7  and  N2_9 
REMARK    5  A    between atoms: N2_9  and  C7_10 
REMARK    6  A    between atoms: C14_19  and  O2_20 
REMARK    7  A    between atoms: O2_20  and  P1_21 
ROOT
HETATM    1  C6  UNL     1      24.872   3.206  51.215  1.00  0.00     0.084 C 
ENDROOT
BRANCH   1   2
HETATM    2  C5  UNL     1      25.265   2.052  51.760  1.00  0.00    -0.014 A 
HETATM    3  C4  UNL     1      26.674   1.653  51.597  1.00  0.00     0.072 A 
HETATM    4  C3  UNL     1      26.881   0.346  52.280  1.00  0.00     0.017 A 
HETATM    5  C2  UNL     1      26.040  -0.420  52.947  1.00  0.00     0.098 A 
HETATM    6  C14 UNL     1      24.672   0.082  53.041  1.00  0.00     0.106 A 
HETATM    7  C13 UNL     1      24.319   1.233  52.486  1.00  0.00     0.050 A 
BRANCH   5   8
HETATM    8  O1  UNL     1      26.510  -1.607  53.489  1.00  0.00    -0.353 OA
HETATM    9  C1  UNL     1      27.343  -2.388  52.620  1.00  0.00     0.210 C 
ENDBRANCH   5   8
BRANCH   6  10
HETATM   10  O2  UNL     1      23.757  -0.708  53.741  1.00  0.00    -0.327 OA
BRANCH  10  11
HETATM   11  P1  UNL     1      22.061  -0.314  53.912  1.00  0.00     0.009 P 
HETATM   12  H14 UNL     1      21.355  -1.330  54.678  1.00  0.00     0.085 HD
HETATM   13  H15 UNL     1      21.413  -0.049  52.637  1.00  0.00     0.085 HD
ENDBRANCH  10  11
ENDBRANCH   6  10
ENDBRANCH   1   2
BRANCH   1  14
HETATM   14  N1  UNL     1      24.400   3.984  52.308  1.00  0.00    -0.288 NA
HETATM   15  H7  UNL     1      24.133   3.720  53.264  1.00  0.00     0.125 HD
HETATM   16  H8  UNL     1      24.140   3.690  53.259  1.00  0.00     0.125 HD
ENDBRANCH   1  14
BRANCH   1  17
HETATM   17  N2  UNL     1      24.965   3.461  49.824  1.00  0.00    -0.347 N 
HETATM   18  H9  UNL     1      24.472   2.749  49.246  1.00  0.00     0.167 HD
BRANCH  17  19
HETATM   19  C7  UNL     1      25.658   4.567  49.265  1.00  0.00     0.035 A 
HETATM   20  C8  UNL     1      24.961   5.711  48.972  1.00  0.00     0.032 A 
HETATM   21  C9  UNL     1      25.688   6.766  48.426  1.00  0.00     0.046 A 
HETATM   22  C10 UNL     1      27.043   6.648  48.197  1.00  0.00     0.138 A 
HETATM   23  F1  UNL     1      27.665   7.736  47.660  1.00  0.00    -0.204 F 
HETATM   24  C11 UNL     1      27.721   5.478  48.505  1.00  0.00     0.074 A 
HETATM   25 CL1  UNL     1      29.444   5.417  48.180  1.00  0.00    -0.081 Cl
HETATM   26  C12 UNL     1      27.009   4.430  49.045  1.00  0.00     0.056 A 
ENDBRANCH  17  19
ENDBRANCH   1  17
TORSDOF 7
ENDMDL
MODEL 5
REMARK VINA RESULT:      -7.0      5.706      6.764
REMARK  7 active torsions:
REMARK  status: ('A' for Active; 'I' for Inactive)
REMARK    1  A    between atoms: O1_2  and  C2_3 
REMARK    2  A    between atoms: C5_6  and  C6_7 
REMARK    3  A    between atoms: C6_7  and  N1_8 
REMARK    4  A    between atoms: C6_7  and  N2_9 
REMARK    5  A    between atoms: N2_9  and  C7_10 
REMARK    6  A    between atoms: C14_19  and  O2_20 
REMARK    7  A    between atoms: O2_20  and  P1_21 
ROOT
HETATM    1  C6  UNL     1      24.291   3.731  52.230  1.00  0.00     0.084 C 
ENDROOT
BRANCH   1   2
HETATM    2  C5  UNL     1      24.740   2.528  52.596  1.00  0.00    -0.014 A 
HETATM    3  C4  UNL     1      24.045   1.339  52.072  1.00  0.00     0.072 A 
HETATM    4  C3  UNL     1      24.713   0.122  52.610  1.00  0.00     0.017 A 
HETATM    5  C2  UNL     1      25.748  -0.007  53.417  1.00  0.00     0.098 A 
HETATM    6  C14 UNL     1      26.352   1.242  53.870  1.00  0.00     0.106 A 
HETATM    7  C13 UNL     1      25.877   2.419  53.484  1.00  0.00     0.050 A 
BRANCH   5   8
HETATM    8  O1  UNL     1      26.166  -1.284  53.761  1.00  0.00    -0.353 OA
HETATM    9  C1  UNL     1      26.912  -1.976  52.750  1.00  0.00     0.210 C 
ENDBRANCH   5   8
BRANCH   6  10
HETATM   10  O2  UNL     1      27.449   1.138  54.727  1.00  0.00    -0.327 OA
BRANCH  10  11
HETATM   11  P1  UNL     1      29.105   0.998  54.178  1.00  0.00     0.009 P 
HETATM   12  H14 UNL     1      29.794   2.278  54.237  1.00  0.00     0.085 HD
HETATM   13  H15 UNL     1      29.213   0.385  52.864  1.00  0.00     0.085 HD
ENDBRANCH  10  11
ENDBRANCH   6  10
ENDBRANCH   1   2
BRANCH   1  14
HETATM   14  N1  UNL     1      24.024   4.409  53.451  1.00  0.00    -0.288 NA
HETATM   15  H7  UNL     1      24.203   5.377  53.743  1.00  0.00     0.125 HD
HETATM   16  H8  UNL     1      24.215   5.385  53.716  1.00  0.00     0.125 HD
ENDBRANCH   1  14
BRANCH   1  17
HETATM   17  N2  UNL     1      24.160   4.112  50.870  1.00  0.00    -0.347 N 
HETATM   18  H9  UNL     1      23.196   3.979  50.501  1.00  0.00     0.167 HD
BRANCH  17  19
HETATM   19  C7  UNL     1      25.228   4.622  50.084  1.00  0.00     0.035 A 
HETATM   20  C8  UNL     1      26.234   3.774  49.698  1.00  0.00     0.032 A 
HETATM   21  C9  UNL     1      27.256   4.324  48.929  1.00  0.00     0.046 A 
HETATM   22  C10 UNL     1      27.241   5.658  48.582  1.00  0.00     0.138 A 
HETATM   23  F1  UNL     1      28.287   6.102  47.826  1.00  0.00    -0.204 F 
HETATM   24  C11 UNL     1      26.208   6.492  48.986  1.00  0.00     0.074 A 
HETATM   25 CL1  UNL     1      26.272   8.175  48.498  1.00  0.00    -0.081 Cl
HETATM   26  C12 UNL     1      25.194   5.955  49.748  1.00  0.00     0.056 A 
ENDBRANCH  17  19
ENDBRANCH   1  17
TORSDOF 7
ENDMDL
MODEL 6
REMARK VINA RESULT:      -6.9      5.244      7.089
REMARK  7 active torsions:
REMARK  status: ('A' for Active; 'I' for Inactive)
REMARK    1  A    between atoms: O1_2  and  C2_3 
REMARK    2  A    between atoms: C5_6  and  C6_7 
REMARK    3  A    between atoms: C6_7  and  N1_8 
REMARK    4  A    between atoms: C6_7  and  N2_9 
REMARK    5  A    between atoms: N2_9  and  C7_10 
REMARK    6  A    between atoms: C14_19  and  O2_20 
REMARK    7  A    between atoms: O2_20  and  P1_21 
ROOT
HETATM    1  C6  UNL     1      25.023   3.052  51.157  1.00  0.00     0.084 C 
ENDROOT
BRANCH   1   2
HETATM    2  C5  UNL     1      25.615   3.953  50.369  1.00  0.00    -0.014 A 
HETATM    3  C4  UNL     1      26.783   3.522  49.580  1.00  0.00     0.072 A 
HETATM    4  C3  UNL     1      27.273   4.682  48.784  1.00  0.00     0.017 A 
HETATM    5  C2  UNL     1      26.833   5.922  48.708  1.00  0.00     0.098 A 
HETATM    6  C14 UNL     1      25.671   6.228  49.536  1.00  0.00     0.106 A 
HETATM    7  C13 UNL     1      25.109   5.307  50.307  1.00  0.00     0.050 A 
BRANCH   5   8
HETATM    8  O1  UNL     1      27.492   6.810  47.871  1.00  0.00    -0.353 OA
HETATM    9  C1  UNL     1      28.911   6.620  47.774  1.00  0.00     0.210 C 
ENDBRANCH   5   8
BRANCH   6  10
HETATM   10  O2  UNL     1      25.181   7.535  49.478  1.00  0.00    -0.327 OA
BRANCH  10  11
HETATM   11  P1  UNL     1      23.626   8.022  50.115  1.00  0.00     0.009 P 
HETATM   12  H14 UNL     1      22.717   8.419  49.050  1.00  0.00     0.085 HD
HETATM   13  H15 UNL     1      23.733   9.044  51.144  1.00  0.00     0.085 HD
ENDBRANCH  10  11
ENDBRANCH   6  10
ENDBRANCH   1   2
BRANCH   1  14
HETATM   14  N1  UNL     1      23.920   2.573  50.398  1.00  0.00    -0.288 NA
HETATM   15  H7  UNL     1      23.304   1.763  50.534  1.00  0.00     0.125 HD
HETATM   16  H8  UNL     1      23.318   1.754  50.560  1.00  0.00     0.125 HD
ENDBRANCH   1  14
BRANCH   1  17
HETATM   17  N2  UNL     1      25.504   2.743  52.454  1.00  0.00    -0.347 N 
HETATM   18  H9  UNL     1      25.057   3.314  53.201  1.00  0.00     0.167 HD
BRANCH  17  19
HETATM   19  C7  UNL     1      26.495   1.761  52.718  1.00  0.00     0.035 A 
HETATM   20  C8  UNL     1      27.695   2.152  53.255  1.00  0.00     0.032 A 
HETATM   21  C9  UNL     1      28.632   1.150  53.494  1.00  0.00     0.046 A 
HETATM   22  C10 UNL     1      28.349  -0.167  53.199  1.00  0.00     0.138 A 
HETATM   23  F1  UNL     1      29.331  -1.075  53.470  1.00  0.00    -0.204 F 
HETATM   24  C11 UNL     1      27.126  -0.534  52.657  1.00  0.00     0.074 A 
HETATM   25 CL1  UNL     1      26.854  -2.231  52.314  1.00  0.00    -0.081 Cl
HETATM   26  C12 UNL     1      26.194   0.453  52.417  1.00  0.00     0.056 A 
ENDBRANCH  17  19
ENDBRANCH   1  17
TORSDOF 7
ENDMDL
MODEL 7
REMARK VINA RESULT:      -6.8      2.566      3.316
REMARK  7 active torsions:
REMARK  status: ('A' for Active; 'I' for Inactive)
REMARK    1  A    between atoms: O1_2  and  C2_3 
REMARK    2  A    between atoms: C5_6  and  C6_7 
REMARK    3  A    between atoms: C6_7  and  N1_8 
REMARK    4  A    between atoms: C6_7  and  N2_9 
REMARK    5  A    between atoms: N2_9  and  C7_10 
REMARK    6  A    between atoms: C14_19  and  O2_20 
REMARK    7  A    between atoms: O2_20  and  P1_21 
ROOT
HETATM    1  C6  UNL     1      25.127   2.784  52.187  1.00  0.00     0.084 C 
ENDROOT
BRANCH   1   2
HETATM    2  C5  UNL     1      23.970   2.171  51.923  1.00  0.00    -0.014 A 
HETATM    3  C4  UNL     1      23.222   1.587  53.050  1.00  0.00     0.072 A 
HETATM    4  C3  UNL     1      21.977   0.962  52.522  1.00  0.00     0.017 A 
HETATM    5  C2  UNL     1      21.511   0.878  51.292  1.00  0.00     0.098 A 
HETATM    6  C14 UNL     1      22.341   1.494  50.262  1.00  0.00     0.106 A 
HETATM    7  C13 UNL     1      23.484   2.094  50.562  1.00  0.00     0.050 A 
BRANCH   5   8
HETATM    8  O1  UNL     1      20.304   0.229  51.084  1.00  0.00    -0.353 OA
HETATM    9  C1  UNL     1      19.133   0.996  51.400  1.00  0.00     0.210 C 
ENDBRANCH   5   8
BRANCH   6  10
HETATM   10  O2  UNL     1      21.873   1.420  48.948  1.00  0.00    -0.327 OA
BRANCH  10  11
HETATM   11  P1  UNL     1      20.875   2.647  48.198  1.00  0.00     0.009 P 
HETATM   12  H14 UNL     1      20.966   2.592  46.747  1.00  0.00     0.085 HD
HETATM   13  H15 UNL     1      21.146   3.982  48.707  1.00  0.00     0.085 HD
ENDBRANCH  10  11
ENDBRANCH   6  10
ENDBRANCH   1   2
BRANCH   1  14
HETATM   14  N1  UNL     1      25.304   3.705  51.118  1.00  0.00    -0.288 NA
HETATM   15  H7  UNL     1      25.338   4.731  51.105  1.00  0.00     0.125 HD
HETATM   16  H8  UNL     1      25.334   4.733  51.136  1.00  0.00     0.125 HD
ENDBRANCH   1  14
BRANCH   1  17
HETATM   17  N2  UNL     1      25.907   2.476  53.330  1.00  0.00    -0.347 N 
HETATM   18  H9  UNL     1      25.643   3.037  54.166  1.00  0.00     0.167 HD
BRANCH  17  19
HETATM   19  C7  UNL     1      26.945   1.507  53.344  1.00  0.00     0.035 A 
HETATM   20  C8  UNL     1      28.214   1.895  53.690  1.00  0.00     0.032 A 
HETATM   21  C9  UNL     1      29.195   0.906  53.687  1.00  0.00     0.046 A 
HETATM   22  C10 UNL     1      28.886  -0.395  53.350  1.00  0.00     0.138 A 
HETATM   23  F1  UNL     1      29.916  -1.290  53.377  1.00  0.00    -0.204 F 
HETATM   24  C11 UNL     1      27.593  -0.758  53.005  1.00  0.00     0.074 A 
HETATM   25 CL1  UNL     1      27.292  -2.435  52.590  1.00  0.00    -0.081 Cl
HETATM   26  C12 UNL     1      26.617   0.215  53.005  1.00  0.00     0.056 A 
ENDBRANCH  17  19
ENDBRANCH   1  17
TORSDOF 7
ENDMDL
MODEL 8
REMARK VINA RESULT:      -6.7      6.189      8.144
REMARK  7 active torsions:
REMARK  status: ('A' for Active; 'I' for Inactive)
REMARK    1  A    between atoms: O1_2  and  C2_3 
REMARK    2  A    between atoms: C5_6  and  C6_7 
REMARK    3  A    between atoms: C6_7  and  N1_8 
REMARK    4  A    between atoms: C6_7  and  N2_9 
REMARK    5  A    between atoms: N2_9  and  C7_10 
REMARK    6  A    between atoms: C14_19  and  O2_20 
REMARK    7  A    between atoms: O2_20  and  P1_21 
ROOT
HETATM    1  C6  UNL     1      24.754   4.129  50.739  1.00  0.00     0.084 C 
ENDROOT
BRANCH   1   2
HETATM    2  C5  UNL     1      25.688   4.724  49.993  1.00  0.00    -0.014 A 
HETATM    3  C4  UNL     1      26.752   3.884  49.415  1.00  0.00     0.072 A 
HETATM    4  C3  UNL     1      27.672   4.753  48.630  1.00  0.00     0.017 A 
HETATM    5  C2  UNL     1      27.651   6.053  48.412  1.00  0.00     0.098 A 
HETATM    6  C14 UNL     1      26.549   6.778  49.037  1.00  0.00     0.106 A 
HETATM    7  C13 UNL     1      25.639   6.153  49.772  1.00  0.00     0.050 A 
BRANCH   5   8
HETATM    8  O1  UNL     1      28.650   6.611  47.629  1.00  0.00    -0.353 OA
HETATM    9  C1  UNL     1      29.991   6.321  48.051  1.00  0.00     0.210 C 
ENDBRANCH   5   8
BRANCH   6  10
HETATM   10  O2  UNL     1      26.501   8.158  48.826  1.00  0.00    -0.327 OA
BRANCH  10  11
HETATM   11  P1  UNL     1      27.383   9.323  49.789  1.00  0.00     0.009 P 
HETATM   12  H14 UNL     1      28.694   9.597  49.220  1.00  0.00     0.085 HD
HETATM   13  H15 UNL     1      27.469   8.946  51.190  1.00  0.00     0.085 HD
ENDBRANCH  10  11
ENDBRANCH   6  10
ENDBRANCH   1   2
BRANCH   1  14
HETATM   14  N1  UNL     1      24.294   5.143  51.624  1.00  0.00    -0.288 NA
HETATM   15  H7  UNL     1      24.337   6.167  51.564  1.00  0.00     0.125 HD
HETATM   16  H8  UNL     1      24.351   6.166  51.536  1.00  0.00     0.125 HD
ENDBRANCH   1  14
BRANCH   1  17
HETATM   17  N2  UNL     1      24.399   2.767  50.571  1.00  0.00    -0.347 N 
HETATM   18  H9  UNL     1      23.960   2.571  49.648  1.00  0.00     0.167 HD
BRANCH  17  19
HETATM   19  C7  UNL     1      24.615   1.765  51.554  1.00  0.00     0.035 A 
HETATM   20  C8  UNL     1      25.890   1.309  51.771  1.00  0.00     0.032 A 
HETATM   21  C9  UNL     1      26.047   0.326  52.745  1.00  0.00     0.046 A 
HETATM   22  C10 UNL     1      24.961  -0.154  53.447  1.00  0.00     0.138 A 
HETATM   23  F1  UNL     1      25.217  -1.115  54.381  1.00  0.00    -0.204 F 
HETATM   24  C11 UNL     1      23.682   0.328  53.206  1.00  0.00     0.074 A 
HETATM   25 CL1  UNL     1      22.361  -0.340  54.145  1.00  0.00    -0.081 Cl
HETATM   26  C12 UNL     1      23.519   1.299  52.243  1.00  0.00     0.056 A 
ENDBRANCH  17  19
ENDBRANCH   1  17
TORSDOF 7
ENDMDL
MODEL 9
REMARK VINA RESULT:      -6.7      2.364      2.996
REMARK  7 active torsions:
REMARK  status: ('A' for Active; 'I' for Inactive)
REMARK    1  A    between atoms: O1_2  and  C2_3 
REMARK    2  A    between atoms: C5_6  and  C6_7 
REMARK    3  A    between atoms: C6_7  and  N1_8 
REMARK    4  A    between atoms: C6_7  and  N2_9 
REMARK    5  A    between atoms: N2_9  and  C7_10 
REMARK    6  A    between atoms: C14_19  and  O2_20 
REMARK    7  A    between atoms: O2_20  and  P1_21 
ROOT
HETATM    1  C6  UNL     1      23.916   0.592  52.788  1.00  0.00     0.084 C 
ENDROOT
BRANCH   1   2
HETATM    2  C5  UNL     1      22.803   1.318  52.654  1.00  0.00    -0.014 A 
HETATM    3  C4  UNL     1      21.509   0.652  52.885  1.00  0.00     0.072 A 
HETATM    4  C3  UNL     1      20.419   1.647  52.681  1.00  0.00     0.017 A 
HETATM    5  C2  UNL     1      20.468   2.923  52.353  1.00  0.00     0.098 A 
HETATM    6  C14 UNL     1      21.806   3.469  52.151  1.00  0.00     0.106 A 
HETATM    7  C13 UNL     1      22.889   2.716  52.292  1.00  0.00     0.050 A 
BRANCH   5   8
HETATM    8  O1  UNL     1      19.277   3.622  52.230  1.00  0.00    -0.353 OA
HETATM    9  C1  UNL     1      18.225   2.923  51.548  1.00  0.00     0.210 C 
ENDBRANCH   5   8
BRANCH   6  10
HETATM   10  O2  UNL     1      21.890   4.818  51.801  1.00  0.00    -0.327 OA
BRANCH  10  11
HETATM   11  P1  UNL     1      23.361   5.593  51.252  1.00  0.00     0.009 P 
HETATM   12  H14 UNL     1      23.387   5.716  49.803  1.00  0.00     0.085 HD
HETATM   13  H15 UNL     1      24.560   4.949  51.762  1.00  0.00     0.085 HD
ENDBRANCH  10  11
ENDBRANCH   6  10
ENDBRANCH   1   2
BRANCH   1  14
HETATM   14  N1  UNL     1      23.603  -0.375  53.782  1.00  0.00    -0.288 NA
HETATM   15  H7  UNL     1      23.191  -0.278  54.717  1.00  0.00     0.125 HD
HETATM   16  H8  UNL     1      23.188  -0.247  54.715  1.00  0.00     0.125 HD
ENDBRANCH   1  14
BRANCH   1  17
HETATM   17  N2  UNL     1      25.086   0.848  52.030  1.00  0.00    -0.347 N 
HETATM   18  H9  UNL     1      24.888   1.036  51.025  1.00  0.00     0.167 HD
BRANCH  17  19
HETATM   19  C7  UNL     1      26.398   0.847  52.573  1.00  0.00     0.035 A 
HETATM   20  C8  UNL     1      26.945   2.031  52.995  1.00  0.00     0.032 A 
HETATM   21  C9  UNL     1      28.234   1.975  53.519  1.00  0.00     0.046 A 
HETATM   22  C10 UNL     1      28.912   0.777  53.602  1.00  0.00     0.138 A 
HETATM   23  F1  UNL     1      30.169   0.826  54.131  1.00  0.00    -0.204 F 
HETATM   24  C11 UNL     1      28.333  -0.406  53.168  1.00  0.00     0.074 A 
HETATM   25 CL1  UNL     1      29.269  -1.881  53.311  1.00  0.00    -0.081 Cl
HETATM   26  C12 UNL     1      27.058  -0.358  52.647  1.00  0.00     0.056 A 
ENDBRANCH  17  19
ENDBRANCH   1  17
TORSDOF 7
ENDMDL
