MODEL 1
REMARK VINA RESULT:      -8.2      0.000      0.000
REMARK  8 active torsions:
REMARK  status: ('A' for Active; 'I' for Inactive)
REMARK    1  A    between atoms: C2_2  and  C3_3 
REMARK    2  A    between atoms: C3_3  and  C4_4 
REMARK    3  A    between atoms: C5_6  and  N1_8 
REMARK    4  A    between atoms: N1_8  and  C7_9 
REMARK    5  A    between atoms: C10_12  and  N2_13 
REMARK    6  A    between atoms: O2_16  and  C12_17 
REMARK    7  A    between atoms: C16_23  and  O3_24 
REMARK    8  A    between atoms: C18_26  and  O4_27 
ROOT
HETATM    1  C1  UNL     1      21.464   2.700  49.077  1.00  0.00     0.039 A 
HETATM    2  C2  UNL     1      22.638   2.776  49.645  1.00  0.00    -0.074 A 
HETATM    3  O2  UNL     1      22.145   1.553  50.016  1.00  0.00     0.000 OA
ENDROOT
BRANCH   2   4
HETATM    4  C3  UNL     1      23.369   4.017  49.384  1.00  0.00     0.080 C 
BRANCH   4   5
HETATM    5  C4  UNL     1      24.827   3.733  49.413  1.00  0.00     0.141 A 
HETATM    6  O1  UNL     1      25.004   3.574  50.586  1.00  0.00    -0.349 OA
HETATM    7  C5  UNL     1      26.265   3.426  49.667  1.00  0.00     0.214 A 
HETATM    8  C6  UNL     1      27.134   4.508  49.098  1.00  0.00     0.062 C 
BRANCH   7   9
HETATM    9  N1  UNL     1      26.481   3.277  51.080  1.00  0.00    -0.351 N 
HETATM   10  H9  UNL     1      26.359   3.775  52.012  1.00  0.00     0.163 HD
BRANCH   9  11
HETATM   11  C7  UNL     1      27.039   2.201  51.879  1.00  0.00     0.099 A 
HETATM   12  C8  UNL     1      27.972   2.325  52.860  1.00  0.00     0.050 A 
HETATM   13  C9  UNL     1      28.488   1.168  53.628  1.00  0.00     0.030 A 
HETATM   14  C10 UNL     1      28.054  -0.041  53.386  1.00  0.00     0.020 A 
HETATM   15  C11 UNL     1      27.011  -0.363  52.377  1.00  0.00     0.177 A 
HETATM   16  N3  UNL     1      26.642   0.839  51.677  1.00  0.00    -0.371 N 
HETATM   17  H16 UNL     1      25.968   0.575  50.900  1.00  0.00     0.161 HD
BRANCH  14  18
HETATM   18  N2  UNL     1      28.662  -1.012  54.214  1.00  0.00    -0.401 N 
HETATM   19  H12 UNL     1      28.703  -1.025  55.254  1.00  0.00     0.156 HD
HETATM   20  H13 UNL     1      29.144  -1.852  53.767  1.00  0.00     0.156 HD
ENDBRANCH  14  18
ENDBRANCH   9  11
ENDBRANCH   7   9
ENDBRANCH   4   5
ENDBRANCH   2   4
BRANCH   3  21
HETATM   21  C12 UNL     1      22.305   1.061  51.306  1.00  0.00     0.100 A 
HETATM   22  N4  UNL     1      23.486   1.086  52.034  1.00  0.00    -0.239 NA
HETATM   23  C13 UNL     1      23.494   0.550  53.308  1.00  0.00     0.234 A 
HETATM   24  N5  UNL     1      22.420  -0.018  53.926  1.00  0.00    -0.241 NA
HETATM   25  C14 UNL     1      21.210  -0.093  53.292  1.00  0.00     0.073 A 
HETATM   26  C15 UNL     1      20.076  -0.667  53.776  1.00  0.00     0.072 A 
HETATM   27  C21 UNL     1      21.391   0.464  52.106  1.00  0.00     0.027 A 
HETATM   28  C16 UNL     1      18.929  -0.735  53.039  1.00  0.00     0.103 A 
HETATM   29  C18 UNL     1      18.982  -0.178  51.758  1.00  0.00     0.102 A 
HETATM   30  C20 UNL     1      20.190   0.400  51.322  1.00  0.00     0.055 A 
BRANCH  28  31
HETATM   31  O3  UNL     1      17.777  -1.303  53.495  1.00  0.00    -0.353 OA
HETATM   32  C17 UNL     1      17.583  -2.693  53.535  1.00  0.00     0.210 C 
ENDBRANCH  28  31
BRANCH  29  33
HETATM   33  O4  UNL     1      17.817  -0.251  51.024  1.00  0.00    -0.353 OA
HETATM   34  C19 UNL     1      17.017   0.890  50.857  1.00  0.00     0.210 C 
ENDBRANCH  29  33
ENDBRANCH   3  21
TORSDOF 8
ENDMDL
MODEL 2
REMARK VINA RESULT:      -8.0      2.885      6.624
REMARK  8 active torsions:
REMARK  status: ('A' for Active; 'I' for Inactive)
REMARK    1  A    between atoms: C2_2  and  C3_3 
REMARK    2  A    between atoms: C3_3  and  C4_4 
REMARK    3  A    between atoms: C5_6  and  N1_8 
REMARK    4  A    between atoms: N1_8  and  C7_9 
REMARK    5  A    between atoms: C10_12  and  N2_13 
REMARK    6  A    between atoms: O2_16  and  C12_17 
REMARK    7  A    between atoms: C16_23  and  O3_24 
REMARK    8  A    between atoms: C18_26  and  O4_27 
ROOT
HETATM    1  C1  UNL     1      21.547   1.174  51.569  1.00  0.00     0.039 A 
HETATM    2  C2  UNL     1      22.477   1.825  52.216  1.00  0.00    -0.074 A 
HETATM    3  O2  UNL     1      22.902   0.523  52.202  1.00  0.00     0.000 OA
ENDROOT
BRANCH   2   4
HETATM    4  C3  UNL     1      22.237   3.262  52.358  1.00  0.00     0.080 C 
BRANCH   4   5
HETATM    5  C4  UNL     1      22.756   3.958  51.151  1.00  0.00     0.141 A 
HETATM    6  O1  UNL     1      23.769   4.431  51.581  1.00  0.00    -0.349 OA
HETATM    7  C5  UNL     1      23.451   4.719  50.072  1.00  0.00     0.214 A 
HETATM    8  C6  UNL     1      22.535   5.755  49.496  1.00  0.00     0.062 C 
BRANCH   7   9
HETATM    9  N1  UNL     1      24.646   5.318  50.602  1.00  0.00    -0.351 N 
HETATM   10  H9  UNL     1      25.234   5.395  51.485  1.00  0.00     0.163 HD
BRANCH   9  11
HETATM   11  C7  UNL     1      25.652   6.183  50.014  1.00  0.00     0.099 A 
HETATM   12  C8  UNL     1      26.388   5.923  48.902  1.00  0.00     0.050 A 
HETATM   13  C9  UNL     1      27.398   6.867  48.369  1.00  0.00     0.030 A 
HETATM   14  C10 UNL     1      27.623   8.010  48.962  1.00  0.00     0.020 A 
HETATM   15  C11 UNL     1      26.889   8.479  50.167  1.00  0.00     0.177 A 
HETATM   16  N3  UNL     1      25.983   7.447  50.601  1.00  0.00    -0.371 N 
HETATM   17  H16 UNL     1      25.538   7.762  51.513  1.00  0.00     0.161 HD
BRANCH  14  18
HETATM   18  N2  UNL     1      28.620   8.773  48.313  1.00  0.00    -0.401 N 
HETATM   19  H12 UNL     1      29.367   9.349  48.754  1.00  0.00     0.156 HD
HETATM   20  H13 UNL     1      28.655   8.788  47.247  1.00  0.00     0.156 HD
ENDBRANCH  14  18
ENDBRANCH   9  11
ENDBRANCH   7   9
ENDBRANCH   4   5
ENDBRANCH   2   4
BRANCH   3  21
HETATM   21  C12 UNL     1      23.491  -0.066  53.315  1.00  0.00     0.100 A 
HETATM   22  N4  UNL     1      22.828  -0.828  54.265  1.00  0.00    -0.239 NA
HETATM   23  C13 UNL     1      23.548  -1.345  55.325  1.00  0.00     0.234 A 
HETATM   24  N5  UNL     1      24.885  -1.164  55.527  1.00  0.00    -0.241 NA
HETATM   25  C14 UNL     1      25.629  -0.426  54.647  1.00  0.00     0.073 A 
HETATM   26  C15 UNL     1      26.953  -0.135  54.751  1.00  0.00     0.072 A 
HETATM   27  C21 UNL     1      24.784  -0.023  53.712  1.00  0.00     0.027 A 
HETATM   28  C16 UNL     1      27.593   0.656  53.841  1.00  0.00     0.103 A 
HETATM   29  C18 UNL     1      26.812   1.150  52.793  1.00  0.00     0.102 A 
HETATM   30  C20 UNL     1      25.447   0.808  52.749  1.00  0.00     0.055 A 
BRANCH  28  31
HETATM   31  O3  UNL     1      28.919   0.965  53.917  1.00  0.00    -0.353 OA
HETATM   32  C17 UNL     1      29.930   0.035  53.629  1.00  0.00     0.210 C 
ENDBRANCH  28  31
BRANCH  29  33
HETATM   33  O4  UNL     1      27.470   1.946  51.879  1.00  0.00    -0.353 OA
HETATM   34  C19 UNL     1      26.745   2.639  50.897  1.00  0.00     0.210 C 
ENDBRANCH  29  33
ENDBRANCH   3  21
TORSDOF 8
ENDMDL
MODEL 3
REMARK VINA RESULT:      -8.0      2.992      6.544
REMARK  8 active torsions:
REMARK  status: ('A' for Active; 'I' for Inactive)
REMARK    1  A    between atoms: C2_2  and  C3_3 
REMARK    2  A    between atoms: C3_3  and  C4_4 
REMARK    3  A    between atoms: C5_6  and  N1_8 
REMARK    4  A    between atoms: N1_8  and  C7_9 
REMARK    5  A    between atoms: C10_12  and  N2_13 
REMARK    6  A    between atoms: O2_16  and  C12_17 
REMARK    7  A    between atoms: C16_23  and  O3_24 
REMARK    8  A    between atoms: C18_26  and  O4_27 
ROOT
HETATM    1  C1  UNL     1      21.440   1.589  51.638  1.00  0.00     0.039 A 
HETATM    2  C2  UNL     1      22.103   1.339  50.541  1.00  0.00    -0.074 A 
HETATM    3  O2  UNL     1      23.039   1.279  51.539  1.00  0.00     0.000 OA
ENDROOT
BRANCH   2   4
HETATM    4  C3  UNL     1      21.295   1.347  49.319  1.00  0.00     0.080 C 
BRANCH   4   5
HETATM    5  C4  UNL     1      21.874   2.329  48.366  1.00  0.00     0.141 A 
HETATM    6  O1  UNL     1      21.852   3.327  49.027  1.00  0.00    -0.349 OA
HETATM    7  C5  UNL     1      22.428   3.467  47.576  1.00  0.00     0.214 A 
HETATM    8  C6  UNL     1      21.678   3.617  46.287  1.00  0.00     0.062 C 
BRANCH   7   9
HETATM    9  N1  UNL     1      22.362   4.671  48.358  1.00  0.00    -0.351 N 
HETATM   10  H9  UNL     1      21.680   5.374  48.772  1.00  0.00     0.163 HD
BRANCH   9  11
HETATM   11  C7  UNL     1      23.384   5.499  48.973  1.00  0.00     0.099 A 
HETATM   12  C8  UNL     1      24.430   6.090  48.338  1.00  0.00     0.050 A 
HETATM   13  C9  UNL     1      25.431   6.923  49.047  1.00  0.00     0.030 A 
HETATM   14  C10 UNL     1      25.340   7.124  50.335  1.00  0.00     0.020 A 
HETATM   15  C11 UNL     1      24.245   6.589  51.185  1.00  0.00     0.177 A 
HETATM   16  N3  UNL     1      23.382   5.763  50.380  1.00  0.00    -0.371 N 
HETATM   17  H16 UNL     1      22.663   5.315  51.021  1.00  0.00     0.161 HD
BRANCH  14  18
HETATM   18  N2  UNL     1      26.383   7.939  50.832  1.00  0.00    -0.401 N 
HETATM   19  H12 UNL     1      26.599   8.924  50.572  1.00  0.00     0.156 HD
HETATM   20  H13 UNL     1      27.050   7.544  51.565  1.00  0.00     0.156 HD
ENDBRANCH  14  18
ENDBRANCH   9  11
ENDBRANCH   7   9
ENDBRANCH   4   5
ENDBRANCH   2   4
BRANCH   3  21
HETATM   21  C12 UNL     1      24.312   1.813  51.380  1.00  0.00     0.100 A 
HETATM   22  N4  UNL     1      24.658   2.812  50.481  1.00  0.00    -0.239 NA
HETATM   23  C13 UNL     1      25.971   3.238  50.431  1.00  0.00     0.234 A 
HETATM   24  N5  UNL     1      26.983   2.750  51.204  1.00  0.00    -0.241 NA
HETATM   25  C14 UNL     1      26.746   1.762  52.121  1.00  0.00     0.073 A 
HETATM   26  C15 UNL     1      27.667   1.161  52.921  1.00  0.00     0.072 A 
HETATM   27  C21 UNL     1      25.455   1.489  52.029  1.00  0.00     0.027 A 
HETATM   28  C16 UNL     1      27.334   0.145  53.769  1.00  0.00     0.103 A 
HETATM   29  C18 UNL     1      25.992  -0.244  53.773  1.00  0.00     0.102 A 
HETATM   30  C20 UNL     1      25.093   0.422  52.918  1.00  0.00     0.055 A 
BRANCH  28  31
HETATM   31  O3  UNL     1      28.234  -0.477  54.583  1.00  0.00    -0.353 OA
HETATM   32  C17 UNL     1      29.541  -0.782  54.172  1.00  0.00     0.210 C 
ENDBRANCH  28  31
BRANCH  29  33
HETATM   33  O4  UNL     1      25.668  -1.270  54.636  1.00  0.00    -0.353 OA
HETATM   34  C19 UNL     1      24.449  -1.247  55.331  1.00  0.00     0.210 C 
ENDBRANCH  29  33
ENDBRANCH   3  21
TORSDOF 8
ENDMDL
MODEL 4
REMARK VINA RESULT:      -7.9      3.743      8.192
REMARK  8 active torsions:
REMARK  status: ('A' for Active; 'I' for Inactive)
REMARK    1  A    between atoms: C2_2  and  C3_3 
REMARK    2  A    between atoms: C3_3  and  C4_4 
REMARK    3  A    between atoms: C5_6  and  N1_8 
REMARK    4  A    between atoms: N1_8  and  C7_9 
REMARK    5  A    between atoms: C10_12  and  N2_13 
REMARK    6  A    between atoms: O2_16  and  C12_17 
REMARK    7  A    between atoms: C16_23  and  O3_24 
REMARK    8  A    between atoms: C18_26  and  O4_27 
ROOT
HETATM    1  C1  UNL     1      22.597   6.624  49.766  1.00  0.00     0.039 A 
HETATM    2  C2  UNL     1      23.170   5.956  50.731  1.00  0.00    -0.074 A 
HETATM    3  O2  UNL     1      24.199   6.357  49.920  1.00  0.00     0.000 OA
ENDROOT
BRANCH   2   4
HETATM    4  C3  UNL     1      22.253   5.422  51.740  1.00  0.00     0.080 C 
BRANCH   4   5
HETATM    5  C4  UNL     1      22.689   4.050  52.110  1.00  0.00     0.141 A 
HETATM    6  O1  UNL     1      23.795   4.266  52.514  1.00  0.00    -0.349 OA
HETATM    7  C5  UNL     1      23.323   2.772  52.545  1.00  0.00     0.214 A 
HETATM    8  C6  UNL     1      23.307   1.777  51.424  1.00  0.00     0.062 C 
BRANCH   7   9
HETATM    9  N1  UNL     1      24.665   3.029  52.992  1.00  0.00    -0.351 N 
HETATM   10  H9  UNL     1      25.358   3.814  53.180  1.00  0.00     0.163 HD
BRANCH   9  11
HETATM   11  C7  UNL     1      25.740   2.154  53.424  1.00  0.00     0.099 A 
HETATM   12  C8  UNL     1      25.600   0.940  54.018  1.00  0.00     0.050 A 
HETATM   13  C9  UNL     1      26.758   0.110  54.428  1.00  0.00     0.030 A 
HETATM   14  C10 UNL     1      27.981   0.524  54.225  1.00  0.00     0.020 A 
HETATM   15  C11 UNL     1      28.325   1.806  53.557  1.00  0.00     0.177 A 
HETATM   16  N3  UNL     1      27.113   2.527  53.263  1.00  0.00    -0.371 N 
HETATM   17  H16 UNL     1      27.382   3.477  52.872  1.00  0.00     0.161 HD
BRANCH  14  18
HETATM   18  N2  UNL     1      28.949  -0.398  54.683  1.00  0.00    -0.401 N 
HETATM   19  H12 UNL     1      29.631  -0.940  54.113  1.00  0.00     0.156 HD
HETATM   20  H13 UNL     1      29.032  -0.593  55.729  1.00  0.00     0.156 HD
ENDBRANCH  14  18
ENDBRANCH   9  11
ENDBRANCH   7   9
ENDBRANCH   4   5
ENDBRANCH   2   4
BRANCH   3  21
HETATM   21  C12 UNL     1      25.264   5.515  49.621  1.00  0.00     0.100 A 
HETATM   22  N4  UNL     1      25.311   4.154  49.886  1.00  0.00    -0.239 NA
HETATM   23  C13 UNL     1      26.445   3.447  49.536  1.00  0.00     0.234 A 
HETATM   24  N5  UNL     1      27.550   3.981  48.942  1.00  0.00    -0.241 NA
HETATM   25  C14 UNL     1      27.604   5.315  48.640  1.00  0.00     0.073 A 
HETATM   26  C15 UNL     1      28.655   5.980  48.090  1.00  0.00     0.072 A 
HETATM   27  C21 UNL     1      26.448   5.819  49.039  1.00  0.00     0.027 A 
HETATM   28  C16 UNL     1      28.624   7.328  47.876  1.00  0.00     0.103 A 
HETATM   29  C18 UNL     1      27.452   7.989  48.251  1.00  0.00     0.102 A 
HETATM   30  C20 UNL     1      26.405   7.237  48.817  1.00  0.00     0.055 A 
BRANCH  28  31
HETATM   31  O3  UNL     1      29.660   8.022  47.325  1.00  0.00    -0.353 OA
HETATM   32  C17 UNL     1      30.867   8.248  48.007  1.00  0.00     0.210 C 
ENDBRANCH  28  31
BRANCH  29  33
HETATM   33  O4  UNL     1      27.433   9.349  48.028  1.00  0.00    -0.353 OA
HETATM   34  C19 UNL     1      26.382  10.132  48.532  1.00  0.00     0.210 C 
ENDBRANCH  29  33
ENDBRANCH   3  21
TORSDOF 8
ENDMDL
MODEL 5
REMARK VINA RESULT:      -7.8      3.170      6.798
REMARK  8 active torsions:
REMARK  status: ('A' for Active; 'I' for Inactive)
REMARK    1  A    between atoms: C2_2  and  C3_3 
REMARK    2  A    between atoms: C3_3  and  C4_4 
REMARK    3  A    between atoms: C5_6  and  N1_8 
REMARK    4  A    between atoms: N1_8  and  C7_9 
REMARK    5  A    between atoms: C10_12  and  N2_13 
REMARK    6  A    between atoms: O2_16  and  C12_17 
REMARK    7  A    between atoms: C16_23  and  O3_24 
REMARK    8  A    between atoms: C18_26  and  O4_27 
ROOT
HETATM    1  C1  UNL     1      21.938   1.521  52.851  1.00  0.00     0.039 A 
HETATM    2  C2  UNL     1      22.149   2.547  52.070  1.00  0.00    -0.074 A 
HETATM    3  O2  UNL     1      23.118   1.640  51.731  1.00  0.00     0.000 OA
ENDROOT
BRANCH   2   4
HETATM    4  C3  UNL     1      21.218   3.662  52.252  1.00  0.00     0.080 C 
BRANCH   4   5
HETATM    5  C4  UNL     1      21.575   4.748  51.303  1.00  0.00     0.141 A 
HETATM    6  O1  UNL     1      22.724   4.928  51.589  1.00  0.00    -0.349 OA
HETATM    7  C5  UNL     1      22.142   5.828  50.444  1.00  0.00     0.214 A 
HETATM    8  C6  UNL     1      21.319   7.075  50.568  1.00  0.00     0.062 C 
BRANCH   7   9
HETATM    9  N1  UNL     1      23.509   6.070  50.817  1.00  0.00    -0.351 N 
HETATM   10  H9  UNL     1      24.199   5.960  51.619  1.00  0.00     0.163 HD
BRANCH   9  11
HETATM   11  C7  UNL     1      24.633   6.650  50.104  1.00  0.00     0.099 A 
HETATM   12  C8  UNL     1      25.028   6.345  48.840  1.00  0.00     0.050 A 
HETATM   13  C9  UNL     1      26.192   6.989  48.186  1.00  0.00     0.030 A 
HETATM   14  C10 UNL     1      26.894   7.895  48.815  1.00  0.00     0.020 A 
HETATM   15  C11 UNL     1      26.588   8.380  50.186  1.00  0.00     0.177 A 
HETATM   16  N3  UNL     1      25.473   7.636  50.713  1.00  0.00    -0.371 N 
HETATM   17  H16 UNL     1      25.330   7.930  51.724  1.00  0.00     0.161 HD
BRANCH  14  18
HETATM   18  N2  UNL     1      27.963   8.391  48.035  1.00  0.00    -0.401 N 
HETATM   19  H12 UNL     1      28.785   8.943  48.360  1.00  0.00     0.156 HD
HETATM   20  H13 UNL     1      27.976   8.202  46.985  1.00  0.00     0.156 HD
ENDBRANCH  14  18
ENDBRANCH   9  11
ENDBRANCH   7   9
ENDBRANCH   4   5
ENDBRANCH   2   4
BRANCH   3  21
HETATM   21  C12 UNL     1      24.426   2.031  51.467  1.00  0.00     0.100 A 
HETATM   22  N4  UNL     1      24.804   3.000  50.549  1.00  0.00    -0.239 NA
HETATM   23  C13 UNL     1      26.148   3.277  50.391  1.00  0.00     0.234 A 
HETATM   24  N5  UNL     1      27.161   2.667  51.070  1.00  0.00    -0.241 NA
HETATM   25  C14 UNL     1      26.892   1.696  51.997  1.00  0.00     0.073 A 
HETATM   26  C15 UNL     1      27.804   0.982  52.710  1.00  0.00     0.072 A 
HETATM   27  C21 UNL     1      25.575   1.571  52.014  1.00  0.00     0.027 A 
HETATM   28  C16 UNL     1      27.431  -0.004  53.577  1.00  0.00     0.103 A 
HETATM   29  C18 UNL     1      26.059  -0.241  53.693  1.00  0.00     0.102 A 
HETATM   30  C20 UNL     1      25.172   0.536  52.923  1.00  0.00     0.055 A 
BRANCH  28  31
HETATM   31  O3  UNL     1      28.320  -0.736  54.306  1.00  0.00    -0.353 OA
HETATM   32  C17 UNL     1      29.543  -1.183  53.781  1.00  0.00     0.210 C 
ENDBRANCH  28  31
BRANCH  29  33
HETATM   33  O4  UNL     1      25.695  -1.238  54.573  1.00  0.00    -0.353 OA
HETATM   34  C19 UNL     1      24.513  -1.121  55.322  1.00  0.00     0.210 C 
ENDBRANCH  29  33
ENDBRANCH   3  21
TORSDOF 8
ENDMDL
MODEL 6
REMARK VINA RESULT:      -7.6      4.332      6.756
REMARK  8 active torsions:
REMARK  status: ('A' for Active; 'I' for Inactive)
REMARK    1  A    between atoms: C2_2  and  C3_3 
REMARK    2  A    between atoms: C3_3  and  C4_4 
REMARK    3  A    between atoms: C5_6  and  N1_8 
REMARK    4  A    between atoms: N1_8  and  C7_9 
REMARK    5  A    between atoms: C10_12  and  N2_13 
REMARK    6  A    between atoms: O2_16  and  C12_17 
REMARK    7  A    between atoms: C16_23  and  O3_24 
REMARK    8  A    between atoms: C18_26  and  O4_27 
ROOT
HETATM    1  C1  UNL     1      25.368   4.694  49.912  1.00  0.00     0.039 A 
HETATM    2  C2  UNL     1      26.383   3.913  49.658  1.00  0.00    -0.074 A 
HETATM    3  O2  UNL     1      25.562   3.172  50.467  1.00  0.00     0.000 OA
ENDROOT
BRANCH   2   4
HETATM    4  C3  UNL     1      27.411   4.499  48.795  1.00  0.00     0.080 C 
BRANCH   4   5
HETATM    5  C4  UNL     1      27.199   5.968  48.723  1.00  0.00     0.141 A 
HETATM    6  O1  UNL     1      28.325   6.352  48.584  1.00  0.00    -0.349 OA
HETATM    7  C5  UNL     1      27.213   7.457  48.626  1.00  0.00     0.214 A 
HETATM    8  C6  UNL     1      26.546   8.060  49.825  1.00  0.00     0.062 C 
BRANCH   7   9
HETATM    9  N1  UNL     1      28.569   7.916  48.500  1.00  0.00    -0.351 N 
HETATM   10  H9  UNL     1      29.565   7.579  48.336  1.00  0.00     0.163 HD
BRANCH   9  11
HETATM   11  C7  UNL     1      29.166   9.238  48.560  1.00  0.00     0.099 A 
HETATM   12  C8  UNL     1      30.296   9.582  49.233  1.00  0.00     0.050 A 
HETATM   13  C9  UNL     1      30.837  10.961  49.240  1.00  0.00     0.030 A 
HETATM   14  C10 UNL     1      30.235  11.918  48.584  1.00  0.00     0.020 A 
HETATM   15  C11 UNL     1      29.011  11.721  47.764  1.00  0.00     0.177 A 
HETATM   16  N3  UNL     1      28.572  10.356  47.890  1.00  0.00    -0.371 N 
HETATM   17  H16 UNL     1      27.647  10.258  47.376  1.00  0.00     0.161 HD
BRANCH  14  18
HETATM   18  N2  UNL     1      30.895  13.162  48.710  1.00  0.00    -0.401 N 
HETATM   19  H12 UNL     1      31.921  13.340  48.709  1.00  0.00     0.156 HD
HETATM   20  H13 UNL     1      30.317  14.052  48.818  1.00  0.00     0.156 HD
ENDBRANCH  14  18
ENDBRANCH   9  11
ENDBRANCH   7   9
ENDBRANCH   4   5
ENDBRANCH   2   4
BRANCH   3  21
HETATM   21  C12 UNL     1      26.067   2.368  51.481  1.00  0.00     0.100 A 
HETATM   22  N4  UNL     1      27.384   2.356  51.917  1.00  0.00    -0.239 NA
HETATM   23  C13 UNL     1      27.741   1.493  52.935  1.00  0.00     0.234 A 
HETATM   24  N5  UNL     1      26.894   0.629  53.563  1.00  0.00    -0.241 NA
HETATM   25  C14 UNL     1      25.574   0.563  53.206  1.00  0.00     0.073 A 
HETATM   26  C15 UNL     1      24.637  -0.278  53.719  1.00  0.00     0.072 A 
HETATM   27  C21 UNL     1      25.421   1.448  52.235  1.00  0.00     0.027 A 
HETATM   28  C16 UNL     1      23.353  -0.299  53.256  1.00  0.00     0.103 A 
HETATM   29  C18 UNL     1      23.053   0.594  52.224  1.00  0.00     0.102 A 
HETATM   30  C20 UNL     1      24.073   1.435  51.741  1.00  0.00     0.055 A 
BRANCH  28  31
HETATM   31  O3  UNL     1      22.391  -1.129  53.750  1.00  0.00    -0.353 OA
HETATM   32  C17 UNL     1      21.678  -0.846  54.925  1.00  0.00     0.210 C 
ENDBRANCH  28  31
BRANCH  29  33
HETATM   33  O4  UNL     1      21.753   0.565  51.766  1.00  0.00    -0.353 OA
HETATM   34  C19 UNL     1      20.875   1.618  52.067  1.00  0.00     0.210 C 
ENDBRANCH  29  33
ENDBRANCH   3  21
TORSDOF 8
ENDMDL
MODEL 7
REMARK VINA RESULT:      -7.3      3.923      9.734
REMARK  8 active torsions:
REMARK  status: ('A' for Active; 'I' for Inactive)
REMARK    1  A    between atoms: C2_2  and  C3_3 
REMARK    2  A    between atoms: C3_3  and  C4_4 
REMARK    3  A    between atoms: C5_6  and  N1_8 
REMARK    4  A    between atoms: N1_8  and  C7_9 
REMARK    5  A    between atoms: C10_12  and  N2_13 
REMARK    6  A    between atoms: O2_16  and  C12_17 
REMARK    7  A    between atoms: C16_23  and  O3_24 
REMARK    8  A    between atoms: C18_26  and  O4_27 
ROOT
HETATM    1  C1  UNL     1      18.973  -0.055  51.846  1.00  0.00     0.039 A 
HETATM    2  C2  UNL     1      18.924  -0.602  53.031  1.00  0.00    -0.074 A 
HETATM    3  O2  UNL     1      20.053   0.174  53.047  1.00  0.00     0.000 OA
ENDROOT
BRANCH   2   4
HETATM    4  C3  UNL     1      17.781  -1.488  53.254  1.00  0.00     0.080 C 
BRANCH   4   5
HETATM    5  C4  UNL     1      16.628  -0.999  52.454  1.00  0.00     0.141 A 
HETATM    6  O1  UNL     1      16.143  -0.212  53.215  1.00  0.00    -0.349 OA
HETATM    7  C5  UNL     1      15.426  -0.374  51.830  1.00  0.00     0.214 A 
HETATM    8  C6  UNL     1      14.455  -1.433  51.403  1.00  0.00     0.062 C 
BRANCH   7   9
HETATM    9  N1  UNL     1      14.822   0.539  52.761  1.00  0.00    -0.351 N 
HETATM   10  H9  UNL     1      14.655   0.701  53.799  1.00  0.00     0.163 HD
BRANCH   9  11
HETATM   11  C7  UNL     1      14.099   1.786  52.584  1.00  0.00     0.099 A 
HETATM   12  C8  UNL     1      13.218   2.072  51.590  1.00  0.00     0.050 A 
HETATM   13  C9  UNL     1      12.522   3.376  51.486  1.00  0.00     0.030 A 
HETATM   14  C10 UNL     1      12.734   4.319  52.367  1.00  0.00     0.020 A 
HETATM   15  C11 UNL     1      13.635   4.172  53.540  1.00  0.00     0.177 A 
HETATM   16  N3  UNL     1      14.277   2.884  53.486  1.00  0.00    -0.371 N 
HETATM   17  H16 UNL     1      14.984   2.835  54.277  1.00  0.00     0.161 HD
BRANCH  14  18
HETATM   18  N2  UNL     1      11.986   5.488  52.102  1.00  0.00    -0.401 N 
HETATM   19  H12 UNL     1      11.181   5.865  52.644  1.00  0.00     0.156 HD
HETATM   20  H13 UNL     1      12.241   6.091  51.259  1.00  0.00     0.156 HD
ENDBRANCH  14  18
ENDBRANCH   9  11
ENDBRANCH   7   9
ENDBRANCH   4   5
ENDBRANCH   2   4
BRANCH   3  21
HETATM   21  C12 UNL     1      21.233  -0.263  53.639  1.00  0.00     0.100 A 
HETATM   22  N4  UNL     1      21.320  -1.199  54.659  1.00  0.00    -0.239 NA
HETATM   23  C13 UNL     1      22.567  -1.530  55.154  1.00  0.00     0.234 A 
HETATM   24  N5  UNL     1      23.747  -1.002  54.721  1.00  0.00    -0.241 NA
HETATM   25  C14 UNL     1      23.769  -0.070  53.719  1.00  0.00     0.073 A 
HETATM   26  C15 UNL     1      24.866   0.564  53.225  1.00  0.00     0.072 A 
HETATM   27  C21 UNL     1      22.505   0.115  53.375  1.00  0.00     0.027 A 
HETATM   28  C16 UNL     1      24.772   1.520  52.256  1.00  0.00     0.103 A 
HETATM   29  C18 UNL     1      23.486   1.813  51.796  1.00  0.00     0.102 A 
HETATM   30  C20 UNL     1      22.395   1.119  52.354  1.00  0.00     0.055 A 
BRANCH  28  31
HETATM   31  O3  UNL     1      25.853   2.172  51.740  1.00  0.00    -0.353 OA
HETATM   32  C17 UNL     1      27.170   1.879  52.129  1.00  0.00     0.210 C 
ENDBRANCH  28  31
BRANCH  29  33
HETATM   33  O4  UNL     1      23.405   2.780  50.816  1.00  0.00    -0.353 OA
HETATM   34  C19 UNL     1      22.941   2.446  49.534  1.00  0.00     0.210 C 
ENDBRANCH  29  33
ENDBRANCH   3  21
TORSDOF 8
ENDMDL
MODEL 8
REMARK VINA RESULT:      -7.2      4.602     10.658
REMARK  8 active torsions:
REMARK  status: ('A' for Active; 'I' for Inactive)
REMARK    1  A    between atoms: C2_2  and  C3_3 
REMARK    2  A    between atoms: C3_3  and  C4_4 
REMARK    3  A    between atoms: C5_6  and  N1_8 
REMARK    4  A    between atoms: N1_8  and  C7_9 
REMARK    5  A    between atoms: C10_12  and  N2_13 
REMARK    6  A    between atoms: O2_16  and  C12_17 
REMARK    7  A    between atoms: C16_23  and  O3_24 
REMARK    8  A    between atoms: C18_26  and  O4_27 
ROOT
HETATM    1  C1  UNL     1      27.518   4.649  48.669  1.00  0.00     0.039 A 
HETATM    2  C2  UNL     1      26.811   5.714  48.939  1.00  0.00    -0.074 A 
HETATM    3  O2  UNL     1      27.893   6.177  48.239  1.00  0.00     0.000 OA
ENDROOT
BRANCH   2   4
HETATM    4  C3  UNL     1      25.582   5.462  49.694  1.00  0.00     0.080 C 
BRANCH   4   5
HETATM    5  C4  UNL     1      25.617   4.073  50.222  1.00  0.00     0.141 A 
HETATM    6  O1  UNL     1      24.652   4.076  50.931  1.00  0.00    -0.349 OA
HETATM    7  C5  UNL     1      25.464   2.736  50.867  1.00  0.00     0.214 A 
HETATM    8  C6  UNL     1      26.716   2.371  51.606  1.00  0.00     0.062 C 
BRANCH   7   9
HETATM    9  N1  UNL     1      24.329   2.756  51.748  1.00  0.00    -0.351 N 
HETATM   10  H9  UNL     1      23.613   3.407  52.190  1.00  0.00     0.163 HD
BRANCH   9  11
HETATM   11  C7  UNL     1      23.632   1.710  52.473  1.00  0.00     0.099 A 
HETATM   12  C8  UNL     1      22.292   1.633  52.686  1.00  0.00     0.050 A 
HETATM   13  C9  UNL     1      21.662   0.524  53.441  1.00  0.00     0.030 A 
HETATM   14  C10 UNL     1      22.388  -0.443  53.939  1.00  0.00     0.020 A 
HETATM   15  C11 UNL     1      23.862  -0.543  53.775  1.00  0.00     0.177 A 
HETATM   16  N3  UNL     1      24.341   0.619  53.072  1.00  0.00    -0.371 N 
HETATM   17  H16 UNL     1      25.402   0.575  53.047  1.00  0.00     0.161 HD
BRANCH  14  18
HETATM   18  N2  UNL     1      21.614  -1.405  54.626  1.00  0.00    -0.401 N 
HETATM   19  H12 UNL     1      21.955  -2.176  55.237  1.00  0.00     0.156 HD
HETATM   20  H13 UNL     1      20.551  -1.378  54.542  1.00  0.00     0.156 HD
ENDBRANCH  14  18
ENDBRANCH   9  11
ENDBRANCH   7   9
ENDBRANCH   4   5
ENDBRANCH   2   4
BRANCH   3  21
HETATM   21  C12 UNL     1      28.547   7.351  48.597  1.00  0.00     0.100 A 
HETATM   22  N4  UNL     1      27.943   8.471  49.147  1.00  0.00    -0.239 NA
HETATM   23  C13 UNL     1      28.724   9.571  49.446  1.00  0.00     0.234 A 
HETATM   24  N5  UNL     1      30.069   9.656  49.239  1.00  0.00    -0.241 NA
HETATM   25  C14 UNL     1      30.760   8.604  48.699  1.00  0.00     0.073 A 
HETATM   26  C15 UNL     1      32.087   8.572  48.404  1.00  0.00     0.072 A 
HETATM   27  C21 UNL     1      29.861   7.657  48.485  1.00  0.00     0.027 A 
HETATM   28  C16 UNL     1      32.670   7.487  47.817  1.00  0.00     0.103 A 
HETATM   29  C18 UNL     1      31.829   6.407  47.537  1.00  0.00     0.102 A 
HETATM   30  C20 UNL     1      30.464   6.510  47.869  1.00  0.00     0.055 A 
BRANCH  28  31
HETATM   31  O3  UNL     1      33.997   7.424  47.509  1.00  0.00    -0.353 OA
HETATM   32  C17 UNL     1      34.982   8.064  48.277  1.00  0.00     0.210 C 
ENDBRANCH  28  31
BRANCH  29  33
HETATM   33  O4  UNL     1      32.430   5.316  46.946  1.00  0.00    -0.353 OA
HETATM   34  C19 UNL     1      32.651   4.145  47.688  1.00  0.00     0.210 C 
ENDBRANCH  29  33
ENDBRANCH   3  21
TORSDOF 8
ENDMDL
MODEL 9
REMARK VINA RESULT:      -7.1      3.252      5.024
REMARK  8 active torsions:
REMARK  status: ('A' for Active; 'I' for Inactive)
REMARK    1  A    between atoms: C2_2  and  C3_3 
REMARK    2  A    between atoms: C3_3  and  C4_4 
REMARK    3  A    between atoms: C5_6  and  N1_8 
REMARK    4  A    between atoms: N1_8  and  C7_9 
REMARK    5  A    between atoms: C10_12  and  N2_13 
REMARK    6  A    between atoms: O2_16  and  C12_17 
REMARK    7  A    between atoms: C16_23  and  O3_24 
REMARK    8  A    between atoms: C18_26  and  O4_27 
ROOT
HETATM    1  C1  UNL     1      23.393   4.780  48.875  1.00  0.00     0.039 A 
HETATM    2  C2  UNL     1      24.620   5.068  49.218  1.00  0.00    -0.074 A 
HETATM    3  O2  UNL     1      24.536   3.704  49.320  1.00  0.00     0.000 OA
ENDROOT
BRANCH   2   4
HETATM    4  C3  UNL     1      24.951   6.494  49.182  1.00  0.00     0.080 C 
BRANCH   4   5
HETATM    5  C4  UNL     1      26.155   6.688  48.333  1.00  0.00     0.141 A 
HETATM    6  O1  UNL     1      27.027   6.526  49.137  1.00  0.00    -0.349 OA
HETATM    7  C5  UNL     1      27.482   6.842  47.670  1.00  0.00     0.214 A 
HETATM    8  C6  UNL     1      27.570   8.175  46.990  1.00  0.00     0.062 C 
BRANCH   7   9
HETATM    9  N1  UNL     1      28.526   6.688  48.646  1.00  0.00    -0.351 N 
HETATM   10  H9  UNL     1      28.762   6.868  49.668  1.00  0.00     0.163 HD
BRANCH   9  11
HETATM   11  C7  UNL     1      29.865   6.132  48.571  1.00  0.00     0.099 A 
HETATM   12  C8  UNL     1      30.341   5.305  47.603  1.00  0.00     0.050 A 
HETATM   13  C9  UNL     1      31.727   4.783  47.604  1.00  0.00     0.030 A 
HETATM   14  C10 UNL     1      32.562   5.107  48.557  1.00  0.00     0.020 A 
HETATM   15  C11 UNL     1      32.230   6.027  49.675  1.00  0.00     0.177 A 
HETATM   16  N3  UNL     1      30.846   6.413  49.576  1.00  0.00    -0.371 N 
HETATM   17  H16 UNL     1      30.603   6.992  50.432  1.00  0.00     0.161 HD
BRANCH  14  18
HETATM   18  N2  UNL     1      33.833   4.512  48.390  1.00  0.00    -0.401 N 
HETATM   19  H12 UNL     1      34.762   4.983  48.397  1.00  0.00     0.156 HD
HETATM   20  H13 UNL     1      33.901   3.458  48.241  1.00  0.00     0.156 HD
ENDBRANCH  14  18
ENDBRANCH   9  11
ENDBRANCH   7   9
ENDBRANCH   4   5
ENDBRANCH   2   4
BRANCH   3  21
HETATM   21  C12 UNL     1      25.126   3.012  50.371  1.00  0.00     0.100 A 
HETATM   22  N4  UNL     1      26.459   3.100  50.743  1.00  0.00    -0.239 NA
HETATM   23  C13 UNL     1      26.904   2.343  51.810  1.00  0.00     0.234 A 
HETATM   24  N5  UNL     1      26.130   1.495  52.546  1.00  0.00    -0.241 NA
HETATM   25  C14 UNL     1      24.802   1.336  52.258  1.00  0.00     0.073 A 
HETATM   26  C15 UNL     1      23.933   0.496  52.882  1.00  0.00     0.072 A 
HETATM   27  C21 UNL     1      24.561   2.129  51.227  1.00  0.00     0.027 A 
HETATM   28  C16 UNL     1      22.633   0.376  52.483  1.00  0.00     0.103 A 
HETATM   29  C18 UNL     1      22.242   1.164  51.398  1.00  0.00     0.102 A 
HETATM   30  C20 UNL     1      23.196   2.010  50.800  1.00  0.00     0.055 A 
BRANCH  28  31
HETATM   31  O3  UNL     1      21.737  -0.456  53.087  1.00  0.00    -0.353 OA
HETATM   32  C17 UNL     1      21.246  -0.226  54.382  1.00  0.00     0.210 C 
ENDBRANCH  28  31
BRANCH  29  33
HETATM   33  O4  UNL     1      20.927   1.035  51.005  1.00  0.00    -0.353 OA
HETATM   34  C19 UNL     1      20.508   1.542  49.765  1.00  0.00     0.210 C 
ENDBRANCH  29  33
ENDBRANCH   3  21
TORSDOF 8
ENDMDL
