MODEL 1
REMARK VINA RESULT:      -8.7      0.000      0.000
REMARK  6 active torsions:
REMARK  status: ('A' for Active; 'I' for Inactive)
REMARK    1  A    between atoms: O1_1  and  C1_2 
REMARK    2  A    between atoms: C2_3  and  C3_4 
REMARK    3  A    between atoms: C4_5  and  C5_6 
REMARK    4  A    between atoms: C5_6  and  N1_7 
REMARK    5  A    between atoms: C15_19  and  N3_20 
REMARK    6  A    between atoms: N3_20  and  C16_21 
ROOT
HETATM    1  C1  UNL     1      22.774   2.067  50.066  1.00  0.00     0.167 C 
HETATM    2  C2  UNL     1      23.747   2.817  50.505  1.00  0.00     0.079 C 
HETATM    3  N2  UNL     1      23.838   2.400  51.846  1.00  0.00    -0.383 N 
HETATM    4  C10 UNL     1      24.390   1.077  52.049  1.00  0.00     0.147 C 
HETATM    5  C11 UNL     1      24.023   0.661  53.459  1.00  0.00    -0.011 C 
HETATM    6  C12 UNL     1      23.196  -0.415  53.557  1.00  0.00    -0.025 C 
HETATM    7  C13 UNL     1      22.468  -1.316  54.549  1.00  0.00     0.056 C 
HETATM    8  C14 UNL     1      21.021  -1.082  54.153  1.00  0.00     0.006 C 
HETATM    9  C15 UNL     1      20.052  -0.576  53.359  1.00  0.00     0.030 C 
HETATM   10  C22 UNL     1      20.326   0.146  52.134  1.00  0.00     0.046 C 
HETATM   11  C23 UNL     1      20.630   0.784  51.047  1.00  0.00     0.092 C 
HETATM   12  N4  UNL     1      21.870   1.073  50.446  1.00  0.00    -0.345 N 
HETATM   13  H14 UNL     1      23.465   3.292  52.232  1.00  0.00     0.160 HD
HETATM   14  H28 UNL     1      22.118   0.052  50.229  1.00  0.00     0.167 HD
ENDROOT
BRANCH   9  15
HETATM   15  N3  UNL     1      18.686  -0.870  53.780  1.00  0.00    -0.356 N 
HETATM   16  H22 UNL     1      18.140  -0.376  54.506  1.00  0.00     0.166 HD
BRANCH  15  17
HETATM   17  C16 UNL     1      17.689  -1.828  53.408  1.00  0.00     0.034 A 
HETATM   18  C17 UNL     1      17.790  -3.142  53.816  1.00  0.00     0.032 A 
HETATM   19  C18 UNL     1      16.806  -4.026  53.430  1.00  0.00     0.046 A 
HETATM   20  C19 UNL     1      15.763  -3.569  52.654  1.00  0.00     0.138 A 
HETATM   21  F1  UNL     1      14.822  -4.481  52.303  1.00  0.00    -0.204 F 
HETATM   22  C20 UNL     1      15.639  -2.256  52.231  1.00  0.00     0.074 A 
HETATM   23 CL1  UNL     1      14.282  -1.716  51.234  1.00  0.00    -0.081 Cl
HETATM   24  C21 UNL     1      16.635  -1.361  52.622  1.00  0.00     0.056 A 
ENDBRANCH  15  17
ENDBRANCH   9  15
BRANCH   1  25
HETATM   25  O1  UNL     1      22.340   2.158  48.734  1.00  0.00    -0.344 OA
HETATM   26  H1  UNL     1      22.607   1.459  48.050  1.00  0.00     0.219 HD
ENDBRANCH   1  25
BRANCH   2  27
HETATM   27  C3  UNL     1      24.458   3.771  49.739  1.00  0.00     0.031 C 
HETATM   28  C4  UNL     1      24.191   5.020  49.506  1.00  0.00     0.005 C 
BRANCH  28  29
HETATM   29  C5  UNL     1      25.064   5.858  48.671  1.00  0.00     0.300 C 
BRANCH  29  30
HETATM   30  N1  UNL     1      26.351   6.154  49.260  1.00  0.00     0.096 N 
HETATM   31  C6  UNL     1      27.465   5.692  48.513  1.00  0.00     0.299 C 
HETATM   32  C7  UNL     1      28.353   6.748  47.925  1.00  0.00     0.198 C 
HETATM   33  O2  UNL     1      28.426   7.896  48.712  1.00  0.00    -0.388 OA
HETATM   34  C8  UNL     1      27.132   8.421  48.766  1.00  0.00     0.198 C 
HETATM   35  C9  UNL     1      26.368   7.508  49.693  1.00  0.00     0.299 C 
ENDBRANCH  29  30
ENDBRANCH  28  29
ENDBRANCH   2  27
TORSDOF 6
ENDMDL
MODEL 2
REMARK VINA RESULT:      -8.7      3.196      5.810
REMARK  6 active torsions:
REMARK  status: ('A' for Active; 'I' for Inactive)
REMARK    1  A    between atoms: O1_1  and  C1_2 
REMARK    2  A    between atoms: C2_3  and  C3_4 
REMARK    3  A    between atoms: C4_5  and  C5_6 
REMARK    4  A    between atoms: C5_6  and  N1_7 
REMARK    5  A    between atoms: C15_19  and  N3_20 
REMARK    6  A    between atoms: N3_20  and  C16_21 
ROOT
HETATM    1  C1  UNL     1      27.238   5.474  48.938  1.00  0.00     0.167 C 
HETATM    2  C2  UNL     1      26.956   6.619  48.379  1.00  0.00     0.079 C 
HETATM    3  N2  UNL     1      25.623   6.810  48.791  1.00  0.00    -0.383 N 
HETATM    4  C10 UNL     1      25.447   7.131  50.192  1.00  0.00     0.147 C 
HETATM    5  C11 UNL     1      23.988   6.886  50.518  1.00  0.00    -0.011 C 
HETATM    6  C12 UNL     1      23.745   5.895  51.418  1.00  0.00    -0.025 C 
HETATM    7  C13 UNL     1      22.635   5.154  52.156  1.00  0.00     0.056 C 
HETATM    8  C14 UNL     1      22.848   3.735  51.659  1.00  0.00     0.006 C 
HETATM    9  C15 UNL     1      23.526   2.778  50.989  1.00  0.00     0.030 C 
HETATM   10  C22 UNL     1      24.802   3.014  50.344  1.00  0.00     0.046 C 
HETATM   11  C23 UNL     1      25.941   3.281  49.786  1.00  0.00     0.092 C 
HETATM   12  N4  UNL     1      26.708   4.461  49.741  1.00  0.00    -0.345 N 
HETATM   13  H14 UNL     1      25.224   6.663  47.841  1.00  0.00     0.160 HD
HETATM   14  H28 UNL     1      26.919   4.485  50.792  1.00  0.00     0.167 HD
ENDROOT
BRANCH   9  15
HETATM   15  N3  UNL     1      22.922   1.450  51.017  1.00  0.00    -0.356 N 
HETATM   16  H22 UNL     1      22.738   0.834  50.206  1.00  0.00     0.166 HD
BRANCH  15  17
HETATM   17  C16 UNL     1      22.410   0.586  52.036  1.00  0.00     0.034 A 
HETATM   18  C17 UNL     1      23.259   0.000  52.952  1.00  0.00     0.032 A 
HETATM   19  C18 UNL     1      22.718  -0.827  53.913  1.00  0.00     0.046 A 
HETATM   20  C19 UNL     1      21.356  -1.038  53.923  1.00  0.00     0.138 A 
HETATM   21  F1  UNL     1      20.876  -1.859  54.890  1.00  0.00    -0.204 F 
HETATM   22  C20 UNL     1      20.483  -0.463  53.015  1.00  0.00     0.074 A 
HETATM   23 CL1  UNL     1      18.742  -0.765  53.068  1.00  0.00    -0.081 Cl
HETATM   24  C21 UNL     1      21.031   0.374  52.043  1.00  0.00     0.056 A 
ENDBRANCH  15  17
ENDBRANCH   9  15
BRANCH   1  25
HETATM   25  O1  UNL     1      28.503   4.889  48.781  1.00  0.00    -0.344 OA
HETATM   26  H1  UNL     1      29.339   5.460  48.732  1.00  0.00     0.219 HD
ENDBRANCH   1  25
BRANCH   2  27
HETATM   27  C3  UNL     1      27.841   7.384  47.584  1.00  0.00     0.031 C 
HETATM   28  C4  UNL     1      28.601   8.384  47.908  1.00  0.00     0.005 C 
BRANCH  28  29
HETATM   29  C5  UNL     1      29.461   9.058  46.923  1.00  0.00     0.300 C 
BRANCH  29  30
HETATM   30  N1  UNL     1      30.855   9.133  47.299  1.00  0.00     0.096 N 
HETATM   31  C6  UNL     1      31.086   9.362  48.679  1.00  0.00     0.299 C 
HETATM   32  C7  UNL     1      31.737   8.244  49.437  1.00  0.00     0.198 C 
HETATM   33  O2  UNL     1      32.629   7.508  48.660  1.00  0.00    -0.388 OA
HETATM   34  C8  UNL     1      31.877   6.933  47.632  1.00  0.00     0.198 C 
HETATM   35  C9  UNL     1      31.565   8.065  46.684  1.00  0.00     0.299 C 
ENDBRANCH  29  30
ENDBRANCH  28  29
ENDBRANCH   2  27
TORSDOF 6
ENDMDL
MODEL 3
REMARK VINA RESULT:      -8.6      3.965      6.519
REMARK  6 active torsions:
REMARK  status: ('A' for Active; 'I' for Inactive)
REMARK    1  A    between atoms: O1_1  and  C1_2 
REMARK    2  A    between atoms: C2_3  and  C3_4 
REMARK    3  A    between atoms: C4_5  and  C5_6 
REMARK    4  A    between atoms: C5_6  and  N1_7 
REMARK    5  A    between atoms: C15_19  and  N3_20 
REMARK    6  A    between atoms: N3_20  and  C16_21 
ROOT
HETATM    1  C1  UNL     1      27.415   5.640  48.874  1.00  0.00     0.167 C 
HETATM    2  C2  UNL     1      27.171   6.692  48.143  1.00  0.00     0.079 C 
HETATM    3  N2  UNL     1      25.791   6.868  48.357  1.00  0.00    -0.383 N 
HETATM    4  C10 UNL     1      25.424   7.349  49.673  1.00  0.00     0.147 C 
HETATM    5  C11 UNL     1      23.944   7.075  49.842  1.00  0.00    -0.011 C 
HETATM    6  C12 UNL     1      23.618   6.192  50.825  1.00  0.00    -0.025 C 
HETATM    7  C13 UNL     1      22.447   5.494  51.507  1.00  0.00     0.056 C 
HETATM    8  C14 UNL     1      22.768   4.037  51.226  1.00  0.00     0.006 C 
HETATM    9  C15 UNL     1      23.559   3.039  50.774  1.00  0.00     0.030 C 
HETATM   10  C22 UNL     1      24.898   3.256  50.268  1.00  0.00     0.046 C 
HETATM   11  C23 UNL     1      26.091   3.507  49.827  1.00  0.00     0.092 C 
HETATM   12  N4  UNL     1      26.819   4.708  49.727  1.00  0.00    -0.345 N 
HETATM   13  H14 UNL     1      25.524   6.587  47.391  1.00  0.00     0.160 HD
HETATM   14  H28 UNL     1      26.891   4.871  50.784  1.00  0.00     0.167 HD
ENDROOT
BRANCH   9  15
HETATM   15  N3  UNL     1      22.999   1.697  50.895  1.00  0.00    -0.356 N 
HETATM   16  H22 UNL     1      22.622   1.109  50.132  1.00  0.00     0.166 HD
BRANCH  15  17
HETATM   17  C16 UNL     1      22.777   0.780  51.972  1.00  0.00     0.034 A 
HETATM   18  C17 UNL     1      21.522   0.255  52.200  1.00  0.00     0.032 A 
HETATM   19  C18 UNL     1      21.359  -0.623  53.250  1.00  0.00     0.046 A 
HETATM   20  C19 UNL     1      22.449  -0.942  54.030  1.00  0.00     0.138 A 
HETATM   21  F1  UNL     1      22.234  -1.811  55.049  1.00  0.00    -0.204 F 
HETATM   22  C20 UNL     1      23.718  -0.429  53.822  1.00  0.00     0.074 A 
HETATM   23 CL1  UNL     1      25.088  -0.868  54.851  1.00  0.00    -0.081 Cl
HETATM   24  C21 UNL     1      23.884   0.459  52.759  1.00  0.00     0.056 A 
ENDBRANCH  15  17
ENDBRANCH   9  15
BRANCH   1  25
HETATM   25  O1  UNL     1      28.709   5.102  48.952  1.00  0.00    -0.344 OA
HETATM   26  H1  UNL     1      29.084   4.535  48.200  1.00  0.00     0.219 HD
ENDBRANCH   1  25
BRANCH   2  27
HETATM   27  C3  UNL     1      28.126   7.396  47.372  1.00  0.00     0.031 C 
HETATM   28  C4  UNL     1      28.681   8.551  47.582  1.00  0.00     0.005 C 
BRANCH  28  29
HETATM   29  C5  UNL     1      29.665   9.121  46.650  1.00  0.00     0.300 C 
BRANCH  29  30
HETATM   30  N1  UNL     1      31.006   9.220  47.182  1.00  0.00     0.096 N 
HETATM   31  C6  UNL     1      31.073   9.445  48.581  1.00  0.00     0.299 C 
HETATM   32  C7  UNL     1      31.655   8.335  49.404  1.00  0.00     0.198 C 
HETATM   33  O2  UNL     1      32.644   7.620  48.731  1.00  0.00    -0.388 OA
HETATM   34  C8  UNL     1      32.025   7.038  47.621  1.00  0.00     0.198 C 
HETATM   35  C9  UNL     1      31.801   8.169  46.648  1.00  0.00     0.299 C 
ENDBRANCH  29  30
ENDBRANCH  28  29
ENDBRANCH   2  27
TORSDOF 6
ENDMDL
MODEL 4
REMARK VINA RESULT:      -8.6      4.156      5.424
REMARK  6 active torsions:
REMARK  status: ('A' for Active; 'I' for Inactive)
REMARK    1  A    between atoms: O1_1  and  C1_2 
REMARK    2  A    between atoms: C2_3  and  C3_4 
REMARK    3  A    between atoms: C4_5  and  C5_6 
REMARK    4  A    between atoms: C5_6  and  N1_7 
REMARK    5  A    between atoms: C15_19  and  N3_20 
REMARK    6  A    between atoms: N3_20  and  C16_21 
ROOT
HETATM    1  C1  UNL     1      21.401  -0.738  53.929  1.00  0.00     0.167 C 
HETATM    2  C2  UNL     1      22.435  -0.302  53.264  1.00  0.00     0.079 C 
HETATM    3  N2  UNL     1      21.818   0.421  52.226  1.00  0.00    -0.383 N 
HETATM    4  C10 UNL     1      21.194   1.666  52.623  1.00  0.00     0.147 C 
HETATM    5  C11 UNL     1      20.257   2.064  51.501  1.00  0.00    -0.011 C 
HETATM    6  C12 UNL     1      18.935   2.092  51.821  1.00  0.00    -0.025 C 
HETATM    7  C13 UNL     1      17.543   2.370  51.263  1.00  0.00     0.056 C 
HETATM    8  C14 UNL     1      16.875   1.020  51.453  1.00  0.00     0.006 C 
HETATM    9  C15 UNL     1      16.823  -0.250  51.913  1.00  0.00     0.030 C 
HETATM   10  C22 UNL     1      17.861  -0.837  52.736  1.00  0.00     0.046 C 
HETATM   11  C23 UNL     1      18.818  -1.312  53.470  1.00  0.00     0.092 C 
HETATM   12  N4  UNL     1      20.004  -0.729  53.955  1.00  0.00    -0.345 N 
HETATM   13  H14 UNL     1      22.087  -0.259  51.485  1.00  0.00     0.160 HD
HETATM   14  H28 UNL     1      19.514  -0.017  54.591  1.00  0.00     0.167 HD
ENDROOT
BRANCH   9  15
HETATM   15  N3  UNL     1      15.604  -0.982  51.588  1.00  0.00    -0.356 N 
HETATM   16  H22 UNL     1      14.705  -0.581  51.271  1.00  0.00     0.166 HD
BRANCH  15  17
HETATM   17  C16 UNL     1      15.215  -2.359  51.577  1.00  0.00     0.034 A 
HETATM   18  C17 UNL     1      14.388  -2.847  50.587  1.00  0.00     0.032 A 
HETATM   19  C18 UNL     1      14.040  -4.181  50.621  1.00  0.00     0.046 A 
HETATM   20  C19 UNL     1      14.529  -4.973  51.637  1.00  0.00     0.138 A 
HETATM   21  F1  UNL     1      14.157  -6.278  51.623  1.00  0.00    -0.204 F 
HETATM   22  C20 UNL     1      15.360  -4.507  52.642  1.00  0.00     0.074 A 
HETATM   23 CL1  UNL     1      15.962  -5.563  53.926  1.00  0.00    -0.081 Cl
HETATM   24  C21 UNL     1      15.713  -3.158  52.607  1.00  0.00     0.056 A 
ENDBRANCH  15  17
ENDBRANCH   9  15
BRANCH   1  25
HETATM   25  O1  UNL     1      21.563  -1.529  55.076  1.00  0.00    -0.344 OA
HETATM   26  H1  UNL     1      22.061  -1.176  55.886  1.00  0.00     0.219 HD
ENDBRANCH   1  25
BRANCH   2  27
HETATM   27  C3  UNL     1      23.788  -0.553  53.595  1.00  0.00     0.031 C 
HETATM   28  C4  UNL     1      24.876  -0.047  53.099  1.00  0.00     0.005 C 
BRANCH  28  29
HETATM   29  C5  UNL     1      26.207  -0.444  53.582  1.00  0.00     0.300 C 
BRANCH  29  30
HETATM   30  N1  UNL     1      26.832   0.514  54.467  1.00  0.00     0.096 N 
HETATM   31  C6  UNL     1      28.145   0.169  54.880  1.00  0.00     0.299 C 
HETATM   32  C7  UNL     1      29.249   1.058  54.390  1.00  0.00     0.198 C 
HETATM   33  O2  UNL     1      28.854   2.386  54.245  1.00  0.00    -0.388 OA
HETATM   34  C8  UNL     1      27.848   2.396  53.275  1.00  0.00     0.198 C 
HETATM   35  C9  UNL     1      26.629   1.826  53.956  1.00  0.00     0.299 C 
ENDBRANCH  29  30
ENDBRANCH  28  29
ENDBRANCH   2  27
TORSDOF 6
ENDMDL
MODEL 5
REMARK VINA RESULT:      -8.5      2.085      3.236
REMARK  6 active torsions:
REMARK  status: ('A' for Active; 'I' for Inactive)
REMARK    1  A    between atoms: O1_1  and  C1_2 
REMARK    2  A    between atoms: C2_3  and  C3_4 
REMARK    3  A    between atoms: C4_5  and  C5_6 
REMARK    4  A    between atoms: C5_6  and  N1_7 
REMARK    5  A    between atoms: C15_19  and  N3_20 
REMARK    6  A    between atoms: N3_20  and  C16_21 
ROOT
HETATM    1  C1  UNL     1      24.538   4.126  49.429  1.00  0.00     0.167 C 
HETATM    2  C2  UNL     1      25.652   4.729  49.741  1.00  0.00     0.079 C 
HETATM    3  N2  UNL     1      26.045   4.015  50.888  1.00  0.00    -0.383 N 
HETATM    4  C10 UNL     1      26.514   2.667  50.650  1.00  0.00     0.147 C 
HETATM    5  C11 UNL     1      26.484   1.949  51.984  1.00  0.00    -0.011 C 
HETATM    6  C12 UNL     1      25.619   0.902  52.068  1.00  0.00    -0.025 C 
HETATM    7  C13 UNL     1      25.094  -0.182  53.004  1.00  0.00     0.056 C 
HETATM    8  C14 UNL     1      23.620   0.176  53.069  1.00  0.00     0.006 C 
HETATM    9  C15 UNL     1      22.527   0.875  52.691  1.00  0.00     0.030 C 
HETATM   10  C22 UNL     1      22.542   1.850  51.620  1.00  0.00     0.046 C 
HETATM   11  C23 UNL     1      22.612   2.711  50.653  1.00  0.00     0.092 C 
HETATM   12  N4  UNL     1      23.677   3.096  49.818  1.00  0.00    -0.345 N 
HETATM   13  H14 UNL     1      25.861   4.806  51.541  1.00  0.00     0.160 HD
HETATM   14  H28 UNL     1      23.773   2.146  49.330  1.00  0.00     0.167 HD
ENDROOT
BRANCH   9  15
HETATM   15  N3  UNL     1      21.294   0.530  53.389  1.00  0.00    -0.356 N 
HETATM   16  H22 UNL     1      21.124   0.573  54.409  1.00  0.00     0.166 HD
BRANCH  15  17
HETATM   17  C16 UNL     1      20.000   0.058  52.999  1.00  0.00     0.034 A 
HETATM   18  C17 UNL     1      19.247   0.755  52.076  1.00  0.00     0.032 A 
HETATM   19  C18 UNL     1      18.007   0.260  51.734  1.00  0.00     0.046 A 
HETATM   20  C19 UNL     1      17.565  -0.904  52.324  1.00  0.00     0.138 A 
HETATM   21  F1  UNL     1      16.338  -1.346  51.952  1.00  0.00    -0.204 F 
HETATM   22  C20 UNL     1      18.301  -1.621  53.253  1.00  0.00     0.074 A 
HETATM   23 CL1  UNL     1      17.691  -3.111  53.984  1.00  0.00    -0.081 Cl
HETATM   24  C21 UNL     1      19.557  -1.121  53.599  1.00  0.00     0.056 A 
ENDBRANCH  15  17
ENDBRANCH   9  15
BRANCH   1  25
HETATM   25  O1  UNL     1      23.787   4.530  48.314  1.00  0.00    -0.344 OA
HETATM   26  H1  UNL     1      23.854   5.476  47.957  1.00  0.00     0.219 HD
ENDBRANCH   1  25
BRANCH   2  27
HETATM   27  C3  UNL     1      26.223   5.814  49.034  1.00  0.00     0.031 C 
HETATM   28  C4  UNL     1      27.426   5.966  48.569  1.00  0.00     0.005 C 
BRANCH  28  29
HETATM   29  C5  UNL     1      27.833   7.184  47.854  1.00  0.00     0.300 C 
BRANCH  29  30
HETATM   30  N1  UNL     1      27.484   8.416  48.524  1.00  0.00     0.096 N 
HETATM   31  C6  UNL     1      28.511   8.961  49.337  1.00  0.00     0.299 C 
HETATM   32  C7  UNL     1      29.090  10.269  48.886  1.00  0.00     0.198 C 
HETATM   33  O2  UNL     1      28.160  11.083  48.243  1.00  0.00    -0.388 OA
HETATM   34  C8  UNL     1      27.753  10.390  47.099  1.00  0.00     0.198 C 
HETATM   35  C9  UNL     1      26.849   9.289  47.598  1.00  0.00     0.299 C 
ENDBRANCH  29  30
ENDBRANCH  28  29
ENDBRANCH   2  27
TORSDOF 6
ENDMDL
MODEL 6
REMARK VINA RESULT:      -8.5      6.124     11.370
REMARK  6 active torsions:
REMARK  status: ('A' for Active; 'I' for Inactive)
REMARK    1  A    between atoms: O1_1  and  C1_2 
REMARK    2  A    between atoms: C2_3  and  C3_4 
REMARK    3  A    between atoms: C4_5  and  C5_6 
REMARK    4  A    between atoms: C5_6  and  N1_7 
REMARK    5  A    between atoms: C15_19  and  N3_20 
REMARK    6  A    between atoms: N3_20  and  C16_21 
ROOT
HETATM    1  C1  UNL     1      17.787  -0.810  53.076  1.00  0.00     0.167 C 
HETATM    2  C2  UNL     1      16.819  -0.125  52.533  1.00  0.00     0.079 C 
HETATM    3  N2  UNL     1      17.536   0.793  51.742  1.00  0.00    -0.383 N 
HETATM    4  C10 UNL     1      18.177   0.234  50.570  1.00  0.00     0.147 C 
HETATM    5  C11 UNL     1      19.206   1.246  50.108  1.00  0.00    -0.011 C 
HETATM    6  C12 UNL     1      20.501   0.836  50.170  1.00  0.00    -0.025 C 
HETATM    7  C13 UNL     1      21.939   1.270  49.903  1.00  0.00     0.056 C 
HETATM    8  C14 UNL     1      22.540   1.170  51.293  1.00  0.00     0.006 C 
HETATM    9  C15 UNL     1      22.511   0.835  52.602  1.00  0.00     0.030 C 
HETATM   10  C22 UNL     1      21.396   0.146  53.219  1.00  0.00     0.046 C 
HETATM   11  C23 UNL     1      20.371  -0.471  53.719  1.00  0.00     0.092 C 
HETATM   12  N4  UNL     1      19.177  -0.931  53.132  1.00  0.00    -0.345 N 
HETATM   13  H14 UNL     1      17.294   1.614  52.334  1.00  0.00     0.160 HD
HETATM   14  H28 UNL     1      19.647  -1.665  52.508  1.00  0.00     0.167 HD
ENDROOT
BRANCH   9  15
HETATM   15  N3  UNL     1      23.721   1.149  53.353  1.00  0.00    -0.356 N 
HETATM   16  H22 UNL     1      23.807   1.806  54.147  1.00  0.00     0.166 HD
BRANCH  15  17
HETATM   17  C16 UNL     1      25.089   0.731  53.301  1.00  0.00     0.034 A 
HETATM   18  C17 UNL     1      25.412  -0.595  53.098  1.00  0.00     0.032 A 
HETATM   19  C18 UNL     1      26.744  -0.947  53.058  1.00  0.00     0.046 A 
HETATM   20  C19 UNL     1      27.699   0.032  53.220  1.00  0.00     0.138 A 
HETATM   21  F1  UNL     1      28.995  -0.369  53.171  1.00  0.00    -0.204 F 
HETATM   22  C20 UNL     1      27.402   1.368  53.425  1.00  0.00     0.074 A 
HETATM   23 CL1  UNL     1      28.664   2.590  53.630  1.00  0.00    -0.081 Cl
HETATM   24  C21 UNL     1      26.054   1.726  53.466  1.00  0.00     0.056 A 
ENDBRANCH  15  17
ENDBRANCH   9  15
BRANCH   1  25
HETATM   25  O1  UNL     1      17.513  -1.861  53.965  1.00  0.00    -0.344 OA
HETATM   26  H1  UNL     1      17.387  -2.809  53.629  1.00  0.00     0.219 HD
ENDBRANCH   1  25
BRANCH   2  27
HETATM   27  C3  UNL     1      15.438  -0.337  52.754  1.00  0.00     0.031 C 
HETATM   28  C4  UNL     1      14.434   0.473  52.602  1.00  0.00     0.005 C 
BRANCH  28  29
HETATM   29  C5  UNL     1      13.053   0.059  52.890  1.00  0.00     0.300 C 
BRANCH  29  30
HETATM   30  N1  UNL     1      12.670   0.179  54.280  1.00  0.00     0.096 N 
HETATM   31  C6  UNL     1      12.147   1.446  54.643  1.00  0.00     0.299 C 
HETATM   32  C7  UNL     1      10.702   1.478  55.040  1.00  0.00     0.198 C 
HETATM   33  O2  UNL     1      10.285   0.308  55.672  1.00  0.00    -0.388 OA
HETATM   34  C8  UNL     1      10.440  -0.722  54.739  1.00  0.00     0.198 C 
HETATM   35  C9  UNL     1      11.926  -0.972  54.661  1.00  0.00     0.299 C 
ENDBRANCH  29  30
ENDBRANCH  28  29
ENDBRANCH   2  27
TORSDOF 6
ENDMDL
MODEL 7
REMARK VINA RESULT:      -8.5      5.346      7.240
REMARK  6 active torsions:
REMARK  status: ('A' for Active; 'I' for Inactive)
REMARK    1  A    between atoms: O1_1  and  C1_2 
REMARK    2  A    between atoms: C2_3  and  C3_4 
REMARK    3  A    between atoms: C4_5  and  C5_6 
REMARK    4  A    between atoms: C5_6  and  N1_7 
REMARK    5  A    between atoms: C15_19  and  N3_20 
REMARK    6  A    between atoms: N3_20  and  C16_21 
ROOT
HETATM    1  C1  UNL     1      23.592   5.493  51.876  1.00  0.00     0.167 C 
HETATM    2  C2  UNL     1      23.071   5.875  50.742  1.00  0.00     0.079 C 
HETATM    3  N2  UNL     1      22.496   4.676  50.280  1.00  0.00    -0.383 N 
HETATM    4  C10 UNL     1      21.317   4.236  50.997  1.00  0.00     0.147 C 
HETATM    5  C11 UNL     1      21.109   2.777  50.646  1.00  0.00    -0.011 C 
HETATM    6  C12 UNL     1      21.228   1.901  51.680  1.00  0.00    -0.025 C 
HETATM    7  C13 UNL     1      21.161   0.423  52.049  1.00  0.00     0.056 C 
HETATM    8  C14 UNL     1      22.571   0.184  52.561  1.00  0.00     0.006 C 
HETATM    9  C15 UNL     1      23.806   0.585  52.934  1.00  0.00     0.030 C 
HETATM   10  C22 UNL     1      24.207   1.976  52.979  1.00  0.00     0.046 C 
HETATM   11  C23 UNL     1      24.513   3.236  53.002  1.00  0.00     0.092 C 
HETATM   12  N4  UNL     1      23.756   4.388  52.715  1.00  0.00    -0.345 N 
HETATM   13  H14 UNL     1      23.180   4.553  49.505  1.00  0.00     0.160 HD
HETATM   14  H28 UNL     1      23.075   4.269  53.534  1.00  0.00     0.167 HD
ENDROOT
BRANCH   9  15
HETATM   15  N3  UNL     1      24.703  -0.480  53.366  1.00  0.00    -0.356 N 
HETATM   16  H22 UNL     1      24.437  -1.373  53.816  1.00  0.00     0.166 HD
BRANCH  15  17
HETATM   17  C16 UNL     1      26.119  -0.691  53.344  1.00  0.00     0.034 A 
HETATM   18  C17 UNL     1      26.653  -1.813  52.744  1.00  0.00     0.032 A 
HETATM   19  C18 UNL     1      28.022  -1.971  52.751  1.00  0.00     0.046 A 
HETATM   20  C19 UNL     1      28.803  -1.010  53.353  1.00  0.00     0.138 A 
HETATM   21  F1  UNL     1      30.145  -1.215  53.331  1.00  0.00    -0.204 F 
HETATM   22  C20 UNL     1      28.292   0.124  53.962  1.00  0.00     0.074 A 
HETATM   23 CL1  UNL     1      29.336   1.331  54.724  1.00  0.00    -0.081 Cl
HETATM   24  C21 UNL     1      26.907   0.285  53.955  1.00  0.00     0.056 A 
ENDBRANCH  15  17
ENDBRANCH   9  15
BRANCH   1  25
HETATM   25  O1  UNL     1      24.284   6.400  52.692  1.00  0.00    -0.344 OA
HETATM   26  H1  UNL     1      25.262   6.256  52.919  1.00  0.00     0.219 HD
ENDBRANCH   1  25
BRANCH   2  27
HETATM   27  C3  UNL     1      23.130   7.185  50.212  1.00  0.00     0.031 C 
HETATM   28  C4  UNL     1      23.428   7.588  49.015  1.00  0.00     0.005 C 
BRANCH  28  29
HETATM   29  C5  UNL     1      23.436   9.014  48.654  1.00  0.00     0.300 C 
BRANCH  29  30
HETATM   30  N1  UNL     1      24.546   9.414  47.819  1.00  0.00     0.096 N 
HETATM   31  C6  UNL     1      24.624  10.808  47.566  1.00  0.00     0.299 C 
HETATM   32  C7  UNL     1      25.806  11.522  48.151  1.00  0.00     0.198 C 
HETATM   33  O2  UNL     1      26.948  10.725  48.212  1.00  0.00    -0.388 OA
HETATM   34  C8  UNL     1      26.640   9.659  49.062  1.00  0.00     0.198 C 
HETATM   35  C9  UNL     1      25.728   8.761  48.265  1.00  0.00     0.299 C 
ENDBRANCH  29  30
ENDBRANCH  28  29
ENDBRANCH   2  27
TORSDOF 6
ENDMDL
MODEL 8
REMARK VINA RESULT:      -8.5      5.793     10.505
REMARK  6 active torsions:
REMARK  status: ('A' for Active; 'I' for Inactive)
REMARK    1  A    between atoms: O1_1  and  C1_2 
REMARK    2  A    between atoms: C2_3  and  C3_4 
REMARK    3  A    between atoms: C4_5  and  C5_6 
REMARK    4  A    between atoms: C5_6  and  N1_7 
REMARK    5  A    between atoms: C15_19  and  N3_20 
REMARK    6  A    between atoms: N3_20  and  C16_21 
ROOT
HETATM    1  C1  UNL     1      19.226   1.596  51.823  1.00  0.00     0.167 C 
HETATM    2  C2  UNL     1      18.402   0.588  51.737  1.00  0.00     0.079 C 
HETATM    3  N2  UNL     1      19.200  -0.467  52.220  1.00  0.00    -0.383 N 
HETATM    4  C10 UNL     1      19.467  -0.443  53.642  1.00  0.00     0.147 C 
HETATM    5  C11 UNL     1      20.639  -1.371  53.885  1.00  0.00    -0.011 C 
HETATM    6  C12 UNL     1      21.770  -0.778  54.356  1.00  0.00    -0.025 C 
HETATM    7  C13 UNL     1      23.207  -1.049  54.789  1.00  0.00     0.056 C 
HETATM    8  C14 UNL     1      23.978  -0.199  53.794  1.00  0.00     0.006 C 
HETATM    9  C15 UNL     1      24.074   0.712  52.802  1.00  0.00     0.030 C 
HETATM   10  C22 UNL     1      22.932   1.422  52.264  1.00  0.00     0.046 C 
HETATM   11  C23 UNL     1      21.876   2.029  51.821  1.00  0.00     0.092 C 
HETATM   12  N4  UNL     1      20.523   1.951  52.202  1.00  0.00    -0.345 N 
HETATM   13  H14 UNL     1      19.288  -0.931  51.292  1.00  0.00     0.160 HD
HETATM   14  H28 UNL     1      20.670   2.362  53.181  1.00  0.00     0.167 HD
ENDROOT
BRANCH   9  15
HETATM   15  N3  UNL     1      25.431   0.996  52.346  1.00  0.00    -0.356 N 
HETATM   16  H22 UNL     1      25.705   1.595  51.548  1.00  0.00     0.166 HD
BRANCH  15  17
HETATM   17  C16 UNL     1      26.746   0.615  52.762  1.00  0.00     0.034 A 
HETATM   18  C17 UNL     1      27.654   1.565  53.180  1.00  0.00     0.032 A 
HETATM   19  C18 UNL     1      28.909   1.148  53.569  1.00  0.00     0.046 A 
HETATM   20  C19 UNL     1      29.209  -0.196  53.526  1.00  0.00     0.138 A 
HETATM   21  F1  UNL     1      30.458  -0.553  53.920  1.00  0.00    -0.204 F 
HETATM   22  C20 UNL     1      28.316  -1.170  53.110  1.00  0.00     0.074 A 
HETATM   23 CL1  UNL     1      28.748  -2.884  53.071  1.00  0.00    -0.081 Cl
HETATM   24  C21 UNL     1      27.046  -0.747  52.717  1.00  0.00     0.056 A 
ENDBRANCH  15  17
ENDBRANCH   9  15
BRANCH   1  25
HETATM   25  O1  UNL     1      18.830   2.884  51.433  1.00  0.00    -0.344 OA
HETATM   26  H1  UNL     1      17.848   3.124  51.345  1.00  0.00     0.219 HD
ENDBRANCH   1  25
BRANCH   2  27
HETATM   27  C3  UNL     1      17.070   0.654  51.265  1.00  0.00     0.031 C 
HETATM   28  C4  UNL     1      15.963   0.846  51.915  1.00  0.00     0.005 C 
BRANCH  28  29
HETATM   29  C5  UNL     1      14.660   0.881  51.235  1.00  0.00     0.300 C 
BRANCH  29  30
HETATM   30  N1  UNL     1      13.824   2.003  51.600  1.00  0.00     0.096 N 
HETATM   31  C6  UNL     1      12.521   1.978  51.040  1.00  0.00     0.299 C 
HETATM   32  C7  UNL     1      11.387   1.807  52.005  1.00  0.00     0.198 C 
HETATM   33  O2  UNL     1      11.637   2.389  53.247  1.00  0.00    -0.388 OA
HETATM   34  C8  UNL     1      12.744   1.722  53.780  1.00  0.00     0.198 C 
HETATM   35  C9  UNL     1      13.931   2.231  53.000  1.00  0.00     0.299 C 
ENDBRANCH  29  30
ENDBRANCH  28  29
ENDBRANCH   2  27
TORSDOF 6
ENDMDL
MODEL 9
REMARK VINA RESULT:      -8.4      7.190     12.401
REMARK  6 active torsions:
REMARK  status: ('A' for Active; 'I' for Inactive)
REMARK    1  A    between atoms: O1_1  and  C1_2 
REMARK    2  A    between atoms: C2_3  and  C3_4 
REMARK    3  A    between atoms: C4_5  and  C5_6 
REMARK    4  A    between atoms: C5_6  and  N1_7 
REMARK    5  A    between atoms: C15_19  and  N3_20 
REMARK    6  A    between atoms: N3_20  and  C16_21 
ROOT
HETATM    1  C1  UNL     1      26.022   3.312  50.449  1.00  0.00     0.167 C 
HETATM    2  C2  UNL     1      25.051   3.388  51.318  1.00  0.00     0.079 C 
HETATM    3  N2  UNL     1      24.466   4.622  50.977  1.00  0.00    -0.383 N 
HETATM    4  C10 UNL     1      23.730   4.636  49.731  1.00  0.00     0.147 C 
HETATM    5  C11 UNL     1      23.550   6.090  49.344  1.00  0.00    -0.011 C 
HETATM    6  C12 UNL     1      24.165   6.472  48.193  1.00  0.00    -0.025 C 
HETATM    7  C13 UNL     1      24.407   7.660  47.267  1.00  0.00     0.056 C 
HETATM    8  C14 UNL     1      25.919   7.777  47.328  1.00  0.00     0.006 C 
HETATM    9  C15 UNL     1      27.151   7.357  47.691  1.00  0.00     0.030 C 
HETATM   10  C22 UNL     1      27.390   6.105  48.379  1.00  0.00     0.046 C 
HETATM   11  C23 UNL     1      27.547   4.975  48.994  1.00  0.00     0.092 C 
HETATM   12  N4  UNL     1      26.624   3.986  49.384  1.00  0.00    -0.345 N 
HETATM   13  H14 UNL     1      24.788   5.104  51.842  1.00  0.00     0.160 HD
HETATM   14  H28 UNL     1      26.348   3.706  48.387  1.00  0.00     0.167 HD
ENDROOT
BRANCH   9  15
HETATM   15  N3  UNL     1      28.252   8.219  47.274  1.00  0.00    -0.356 N 
HETATM   16  H22 UNL     1      28.769   8.177  46.379  1.00  0.00     0.166 HD
BRANCH  15  17
HETATM   17  C16 UNL     1      28.960   9.318  47.855  1.00  0.00     0.034 A 
HETATM   18  C17 UNL     1      30.273   9.176  48.254  1.00  0.00     0.032 A 
HETATM   19  C18 UNL     1      30.912  10.264  48.810  1.00  0.00     0.046 A 
HETATM   20  C19 UNL     1      30.219  11.447  48.947  1.00  0.00     0.138 A 
HETATM   21  F1  UNL     1      30.895  12.486  49.500  1.00  0.00    -0.204 F 
HETATM   22  C20 UNL     1      28.902  11.615  48.556  1.00  0.00     0.074 A 
HETATM   23 CL1  UNL     1      28.054  13.154  48.754  1.00  0.00    -0.081 Cl
HETATM   24  C21 UNL     1      28.255  10.515  47.993  1.00  0.00     0.056 A 
ENDBRANCH  15  17
ENDBRANCH   9  15
BRANCH   1  25
HETATM   25  O1  UNL     1      26.887   2.207  50.431  1.00  0.00    -0.344 OA
HETATM   26  H1  UNL     1      27.893   2.333  50.439  1.00  0.00     0.219 HD
ENDBRANCH   1  25
BRANCH   2  27
HETATM   27  C3  UNL     1      24.756   2.418  52.305  1.00  0.00     0.031 C 
HETATM   28  C4  UNL     1      24.496   1.152  52.179  1.00  0.00     0.005 C 
BRANCH  28  29
HETATM   29  C5  UNL     1      24.208   0.300  53.343  1.00  0.00     0.300 C 
BRANCH  29  30
HETATM   30  N1  UNL     1      25.232  -0.678  53.636  1.00  0.00     0.096 N 
HETATM   31  C6  UNL     1      26.152  -0.908  52.581  1.00  0.00     0.299 C 
HETATM   32  C7  UNL     1      27.568  -0.482  52.831  1.00  0.00     0.198 C 
HETATM   33  O2  UNL     1      27.944  -0.604  54.167  1.00  0.00    -0.388 OA
HETATM   34  C8  UNL     1      27.115   0.257  54.892  1.00  0.00     0.198 C 
HETATM   35  C9  UNL     1      25.768  -0.422  54.929  1.00  0.00     0.299 C 
ENDBRANCH  29  30
ENDBRANCH  28  29
ENDBRANCH   2  27
TORSDOF 6
ENDMDL
