MODEL 1
REMARK VINA RESULT:      -9.4      0.000      0.000
REMARK  3 active torsions:
REMARK  status: ('A' for Active; 'I' for Inactive)
REMARK    1  A    between atoms: C8_9  and  N2_10 
REMARK    2  A    between atoms: N2_10  and  C9_11 
REMARK    3  A    between atoms: C13_15  and  C14_16 
ROOT
HETATM    1  C1  UNL     1      30.088  -2.464  53.738  1.00  0.00     0.017 C 
HETATM    2  C2  UNL     1      29.891  -1.282  53.630  1.00  0.00    -0.087 C 
HETATM    3  C3  UNL     1      29.652   0.120  53.480  1.00  0.00     0.096 C 
HETATM    4  C4  UNL     1      28.538   0.751  53.891  1.00  0.00     0.065 C 
HETATM    5  C5  UNL     1      28.432   2.203  53.668  1.00  0.00     0.085 C 
HETATM    6  C6  UNL     1      27.466   2.580  52.566  1.00  0.00     0.126 C 
HETATM    7  N1  UNL     1      26.097   2.278  52.851  1.00  0.00    -0.383 N 
HETATM    8  C7  UNL     1      25.486   1.159  53.454  1.00  0.00     0.128 A 
HETATM    9  C8  UNL     1      24.149   1.134  53.234  1.00  0.00     0.160 A 
HETATM   10  N3  UNL     1      23.462   0.124  53.777  1.00  0.00    -0.222 NA
HETATM   11  C21 UNL     1      24.036  -0.828  54.502  1.00  0.00     0.238 A 
HETATM   12  N4  UNL     1      25.363  -0.783  54.706  1.00  0.00    -0.215 NA
HETATM   13  C22 UNL     1      26.140   0.192  54.203  1.00  0.00     0.201 A 
HETATM   14  O1  UNL     1      27.494   0.083  54.511  1.00  0.00    -0.294 OA
HETATM   15  H7  UNL     1      25.437   3.027  52.566  1.00  0.00     0.159 HD
ENDROOT
BRANCH   9  16
HETATM   16  N2  UNL     1      23.431   2.070  52.446  1.00  0.00    -0.339 N 
HETATM   17  H8  UNL     1      23.420   3.109  52.387  1.00  0.00     0.167 HD
BRANCH  16  18
HETATM   18  C9  UNL     1      22.475   1.693  51.463  1.00  0.00     0.034 A 
HETATM   19  C10 UNL     1      22.779   1.885  50.136  1.00  0.00     0.029 A 
HETATM   20  C11 UNL     1      21.880   1.558  49.108  1.00  0.00     0.003 A 
HETATM   21  C12 UNL     1      20.649   1.027  49.401  1.00  0.00     0.012 A 
HETATM   22  C13 UNL     1      20.315   0.824  50.709  1.00  0.00    -0.024 A 
HETATM   23  C20 UNL     1      21.222   1.157  51.681  1.00  0.00     0.041 A 
BRANCH  22  24
HETATM   24  C14 UNL     1      19.033   0.266  51.110  1.00  0.00    -0.026 A 
HETATM   25  C15 UNL     1      18.783  -0.335  52.316  1.00  0.00     0.012 A 
HETATM   26  C16 UNL     1      17.539  -0.858  52.648  1.00  0.00     0.001 A 
HETATM   27  C17 UNL     1      16.490  -0.792  51.762  1.00  0.00     0.000 A 
HETATM   28  C18 UNL     1      16.689  -0.189  50.513  1.00  0.00     0.001 A 
HETATM   29  C19 UNL     1      17.953   0.317  50.234  1.00  0.00     0.012 A 
ENDBRANCH  22  24
ENDBRANCH  16  18
ENDBRANCH   9  16
TORSDOF 3
ENDMDL
MODEL 2
REMARK VINA RESULT:      -9.2      3.283      7.803
REMARK  3 active torsions:
REMARK  status: ('A' for Active; 'I' for Inactive)
REMARK    1  A    between atoms: C8_9  and  N2_10 
REMARK    2  A    between atoms: N2_10  and  C9_11 
REMARK    3  A    between atoms: C13_15  and  C14_16 
ROOT
HETATM    1  C1  UNL     1      22.290   6.794  45.755  1.00  0.00     0.017 C 
HETATM    2  C2  UNL     1      22.848   6.731  46.820  1.00  0.00    -0.087 C 
HETATM    3  C3  UNL     1      23.492   6.660  48.095  1.00  0.00     0.096 C 
HETATM    4  C4  UNL     1      23.755   5.518  48.753  1.00  0.00     0.065 C 
HETATM    5  C5  UNL     1      24.424   5.602  50.062  1.00  0.00     0.085 C 
HETATM    6  C6  UNL     1      23.511   5.311  51.233  1.00  0.00     0.126 C 
HETATM    7  N1  UNL     1      23.034   3.964  51.290  1.00  0.00    -0.383 N 
HETATM    8  C7  UNL     1      22.571   3.085  50.288  1.00  0.00     0.128 A 
HETATM    9  C8  UNL     1      21.912   2.025  50.812  1.00  0.00     0.160 A 
HETATM   10  N3  UNL     1      21.444   1.114  49.951  1.00  0.00    -0.222 NA
HETATM   11  C21 UNL     1      21.602   1.217  48.638  1.00  0.00     0.238 A 
HETATM   12  N4  UNL     1      22.260   2.280  48.142  1.00  0.00    -0.215 NA
HETATM   13  C22 UNL     1      22.767   3.247  48.925  1.00  0.00     0.201 A 
HETATM   14  O1  UNL     1      23.417   4.274  48.243  1.00  0.00    -0.294 OA
HETATM   15  H7  UNL     1      23.037   3.562  52.247  1.00  0.00     0.159 HD
ENDROOT
BRANCH   9  16
HETATM   16  N2  UNL     1      21.646   1.824  52.191  1.00  0.00    -0.339 N 
HETATM   17  H8  UNL     1      20.998   2.267  52.875  1.00  0.00     0.167 HD
BRANCH  16  18
HETATM   18  C9  UNL     1      22.308   0.844  52.981  1.00  0.00     0.034 A 
HETATM   19  C10 UNL     1      21.549  -0.016  53.740  1.00  0.00     0.029 A 
HETATM   20  C11 UNL     1      22.129  -0.997  54.561  1.00  0.00     0.003 A 
HETATM   21  C12 UNL     1      23.493  -1.129  54.632  1.00  0.00     0.012 A 
HETATM   22  C13 UNL     1      24.275  -0.291  53.892  1.00  0.00    -0.024 A 
HETATM   23  C20 UNL     1      23.669   0.652  53.103  1.00  0.00     0.041 A 
BRANCH  22  24
HETATM   24  C14 UNL     1      25.728  -0.361  53.906  1.00  0.00    -0.026 A 
HETATM   25  C15 UNL     1      26.535   0.302  54.793  1.00  0.00     0.012 A 
HETATM   26  C16 UNL     1      27.921   0.205  54.761  1.00  0.00     0.001 A 
HETATM   27  C17 UNL     1      28.548  -0.576  53.819  1.00  0.00     0.000 A 
HETATM   28  C18 UNL     1      27.773  -1.276  52.887  1.00  0.00     0.001 A 
HETATM   29  C19 UNL     1      26.391  -1.143  52.965  1.00  0.00     0.012 A 
ENDBRANCH  22  24
ENDBRANCH  16  18
ENDBRANCH   9  16
TORSDOF 3
ENDMDL
MODEL 3
REMARK VINA RESULT:      -9.1      3.125      9.374
REMARK  3 active torsions:
REMARK  status: ('A' for Active; 'I' for Inactive)
REMARK    1  A    between atoms: C8_9  and  N2_10 
REMARK    2  A    between atoms: N2_10  and  C9_11 
REMARK    3  A    between atoms: C13_15  and  C14_16 
ROOT
HETATM    1  C1  UNL     1      15.434   4.602  49.286  1.00  0.00     0.017 C 
HETATM    2  C2  UNL     1      15.509   3.514  49.796  1.00  0.00    -0.087 C 
HETATM    3  C3  UNL     1      15.608   2.213  50.383  1.00  0.00     0.096 C 
HETATM    4  C4  UNL     1      16.518   1.863  51.309  1.00  0.00     0.065 C 
HETATM    5  C5  UNL     1      16.499   0.484  51.823  1.00  0.00     0.085 C 
HETATM    6  C6  UNL     1      17.639  -0.371  51.313  1.00  0.00     0.126 C 
HETATM    7  N1  UNL     1      18.933   0.039  51.763  1.00  0.00    -0.383 N 
HETATM    8  C7  UNL     1      19.519   1.314  51.910  1.00  0.00     0.128 A 
HETATM    9  C8  UNL     1      20.864   1.237  52.054  1.00  0.00     0.160 A 
HETATM   10  N3  UNL     1      21.524   2.388  52.219  1.00  0.00    -0.222 NA
HETATM   11  C21 UNL     1      20.918   3.568  52.244  1.00  0.00     0.238 A 
HETATM   12  N4  UNL     1      19.582   3.619  52.098  1.00  0.00    -0.215 NA
HETATM   13  C22 UNL     1      18.831   2.517  51.927  1.00  0.00     0.201 A 
HETATM   14  O1  UNL     1      17.465   2.754  51.791  1.00  0.00    -0.294 OA
HETATM   15  H7  UNL     1      19.547  -0.751  52.040  1.00  0.00     0.159 HD
ENDROOT
BRANCH   9  16
HETATM   16  N2  UNL     1      21.627   0.042  52.005  1.00  0.00    -0.339 N 
HETATM   17  H8  UNL     1      21.742  -0.715  51.300  1.00  0.00     0.167 HD
BRANCH  16  18
HETATM   18  C9  UNL     1      22.487  -0.380  53.056  1.00  0.00     0.034 A 
HETATM   19  C10 UNL     1      21.929  -0.899  54.201  1.00  0.00     0.029 A 
HETATM   20  C11 UNL     1      22.710  -1.318  55.290  1.00  0.00     0.003 A 
HETATM   21  C12 UNL     1      24.078  -1.221  55.244  1.00  0.00     0.012 A 
HETATM   22  C13 UNL     1      24.665  -0.710  54.123  1.00  0.00    -0.024 A 
HETATM   23  C20 UNL     1      23.866  -0.312  53.083  1.00  0.00     0.041 A 
BRANCH  22  24
HETATM   24  C14 UNL     1      26.107  -0.572  53.989  1.00  0.00    -0.026 A 
HETATM   25  C15 UNL     1      26.864  -1.172  53.017  1.00  0.00     0.012 A 
HETATM   26  C16 UNL     1      28.242  -1.012  52.937  1.00  0.00     0.001 A 
HETATM   27  C17 UNL     1      28.912  -0.230  53.847  1.00  0.00     0.000 A 
HETATM   28  C18 UNL     1      28.189   0.407  54.863  1.00  0.00     0.001 A 
HETATM   29  C19 UNL     1      26.812   0.212  54.896  1.00  0.00     0.012 A 
ENDBRANCH  22  24
ENDBRANCH  16  18
ENDBRANCH   9  16
TORSDOF 3
ENDMDL
MODEL 4
REMARK VINA RESULT:      -9.1      4.035      8.645
REMARK  3 active torsions:
REMARK  status: ('A' for Active; 'I' for Inactive)
REMARK    1  A    between atoms: C8_9  and  N2_10 
REMARK    2  A    between atoms: N2_10  and  C9_11 
REMARK    3  A    between atoms: C13_15  and  C14_16 
ROOT
HETATM    1  C1  UNL     1      23.508   9.781  47.551  1.00  0.00     0.017 C 
HETATM    2  C2  UNL     1      22.898   9.204  48.414  1.00  0.00    -0.087 C 
HETATM    3  C3  UNL     1      22.164   8.506  49.425  1.00  0.00     0.096 C 
HETATM    4  C4  UNL     1      22.682   7.558  50.224  1.00  0.00     0.065 C 
HETATM    5  C5  UNL     1      21.803   6.924  51.221  1.00  0.00     0.085 C 
HETATM    6  C6  UNL     1      21.410   5.506  50.871  1.00  0.00     0.126 C 
HETATM    7  N1  UNL     1      22.495   4.574  50.877  1.00  0.00    -0.383 N 
HETATM    8  C7  UNL     1      23.823   4.670  50.410  1.00  0.00     0.128 A 
HETATM    9  C8  UNL     1      24.414   3.456  50.316  1.00  0.00     0.160 A 
HETATM   10  N3  UNL     1      25.685   3.429  49.899  1.00  0.00    -0.222 NA
HETATM   11  C21 UNL     1      26.361   4.526  49.585  1.00  0.00     0.238 A 
HETATM   12  N4  UNL     1      25.753   5.720  49.685  1.00  0.00    -0.215 NA
HETATM   13  C22 UNL     1      24.479   5.851  50.095  1.00  0.00     0.201 A 
HETATM   14  O1  UNL     1      24.008   7.161  50.140  1.00  0.00    -0.294 OA
HETATM   15  H7  UNL     1      22.258   3.662  51.314  1.00  0.00     0.159 HD
ENDROOT
BRANCH   9  16
HETATM   16  N2  UNL     1      23.784   2.214  50.585  1.00  0.00    -0.339 N 
HETATM   17  H8  UNL     1      22.997   1.691  50.147  1.00  0.00     0.167 HD
BRANCH  16  18
HETATM   18  C9  UNL     1      24.179   1.350  51.644  1.00  0.00     0.034 A 
HETATM   19  C10 UNL     1      23.215   0.865  52.497  1.00  0.00     0.029 A 
HETATM   20  C11 UNL     1      23.527   0.024  53.577  1.00  0.00     0.003 A 
HETATM   21  C12 UNL     1      24.826  -0.346  53.819  1.00  0.00     0.012 A 
HETATM   22  C13 UNL     1      25.808   0.118  52.992  1.00  0.00    -0.024 A 
HETATM   23  C20 UNL     1      25.460   0.936  51.949  1.00  0.00     0.041 A 
BRANCH  22  24
HETATM   24  C14 UNL     1      27.210  -0.225  53.175  1.00  0.00    -0.026 A 
HETATM   25  C15 UNL     1      27.737  -1.479  53.013  1.00  0.00     0.012 A 
HETATM   26  C16 UNL     1      29.085  -1.755  53.205  1.00  0.00     0.001 A 
HETATM   27  C17 UNL     1      29.960  -0.760  53.572  1.00  0.00     0.000 A 
HETATM   28  C18 UNL     1      29.476   0.542  53.752  1.00  0.00     0.001 A 
HETATM   29  C19 UNL     1      28.118   0.761  53.546  1.00  0.00     0.012 A 
ENDBRANCH  22  24
ENDBRANCH  16  18
ENDBRANCH   9  16
TORSDOF 3
ENDMDL
MODEL 5
REMARK VINA RESULT:      -8.8      3.948      8.739
REMARK  3 active torsions:
REMARK  status: ('A' for Active; 'I' for Inactive)
REMARK    1  A    between atoms: C8_9  and  N2_10 
REMARK    2  A    between atoms: N2_10  and  C9_11 
REMARK    3  A    between atoms: C13_15  and  C14_16 
ROOT
HETATM    1  C1  UNL     1      21.458   4.746  44.874  1.00  0.00     0.017 C 
HETATM    2  C2  UNL     1      21.003   4.958  45.968  1.00  0.00    -0.087 C 
HETATM    3  C3  UNL     1      20.462   5.188  47.272  1.00  0.00     0.096 C 
HETATM    4  C4  UNL     1      21.184   5.573  48.339  1.00  0.00     0.065 C 
HETATM    5  C5  UNL     1      20.488   5.771  49.621  1.00  0.00     0.085 C 
HETATM    6  C6  UNL     1      20.761   4.683  50.636  1.00  0.00     0.126 C 
HETATM    7  N1  UNL     1      22.112   4.632  51.100  1.00  0.00    -0.383 N 
HETATM    8  C7  UNL     1      23.345   4.768  50.426  1.00  0.00     0.128 A 
HETATM    9  C8  UNL     1      24.382   4.330  51.179  1.00  0.00     0.160 A 
HETATM   10  N3  UNL     1      25.604   4.428  50.645  1.00  0.00    -0.222 NA
HETATM   11  C21 UNL     1      25.823   4.928  49.435  1.00  0.00     0.238 A 
HETATM   12  N4  UNL     1      24.777   5.356  48.707  1.00  0.00    -0.215 NA
HETATM   13  C22 UNL     1      23.511   5.299  49.156  1.00  0.00     0.201 A 
HETATM   14  O1  UNL     1      22.552   5.785  48.270  1.00  0.00    -0.294 OA
HETATM   15  H7  UNL     1      22.196   4.474  52.122  1.00  0.00     0.159 HD
ENDROOT
BRANCH   9  16
HETATM   16  N2  UNL     1      24.271   3.742  52.465  1.00  0.00    -0.339 N 
HETATM   17  H8  UNL     1      24.038   4.109  53.411  1.00  0.00     0.167 HD
BRANCH  16  18
HETATM   18  C9  UNL     1      24.485   2.358  52.713  1.00  0.00     0.034 A 
HETATM   19  C10 UNL     1      23.393   1.535  52.857  1.00  0.00     0.029 A 
HETATM   20  C11 UNL     1      23.522   0.162  53.124  1.00  0.00     0.003 A 
HETATM   21  C12 UNL     1      24.762  -0.410  53.252  1.00  0.00     0.012 A 
HETATM   22  C13 UNL     1      25.868   0.379  53.115  1.00  0.00    -0.024 A 
HETATM   23  C20 UNL     1      25.698   1.714  52.854  1.00  0.00     0.041 A 
BRANCH  22  24
HETATM   24  C14 UNL     1      27.220  -0.144  53.233  1.00  0.00    -0.026 A 
HETATM   25  C15 UNL     1      27.582  -1.443  52.991  1.00  0.00     0.012 A 
HETATM   26  C16 UNL     1      28.889  -1.893  53.124  1.00  0.00     0.001 A 
HETATM   27  C17 UNL     1      29.891  -1.036  53.513  1.00  0.00     0.000 A 
HETATM   28  C18 UNL     1      29.579   0.304  53.775  1.00  0.00     0.001 A 
HETATM   29  C19 UNL     1      28.255   0.700  53.625  1.00  0.00     0.012 A 
ENDBRANCH  22  24
ENDBRANCH  16  18
ENDBRANCH   9  16
TORSDOF 3
ENDMDL
MODEL 6
REMARK VINA RESULT:      -8.8      2.533      8.460
REMARK  3 active torsions:
REMARK  status: ('A' for Active; 'I' for Inactive)
REMARK    1  A    between atoms: C8_9  and  N2_10 
REMARK    2  A    between atoms: N2_10  and  C9_11 
REMARK    3  A    between atoms: C13_15  and  C14_16 
ROOT
HETATM    1  C1  UNL     1      15.058  -0.580  52.685  1.00  0.00     0.017 C 
HETATM    2  C2  UNL     1      15.802  -0.025  51.919  1.00  0.00    -0.087 C 
HETATM    3  C3  UNL     1      16.686   0.652  51.020  1.00  0.00     0.096 C 
HETATM    4  C4  UNL     1      18.015   0.462  50.972  1.00  0.00     0.065 C 
HETATM    5  C5  UNL     1      18.799   1.234  49.993  1.00  0.00     0.085 C 
HETATM    6  C6  UNL     1      19.627   2.338  50.612  1.00  0.00     0.126 C 
HETATM    7  N1  UNL     1      20.683   1.880  51.460  1.00  0.00    -0.383 N 
HETATM    8  C7  UNL     1      20.739   0.851  52.424  1.00  0.00     0.128 A 
HETATM    9  C8  UNL     1      21.824   0.968  53.225  1.00  0.00     0.160 A 
HETATM   10  N3  UNL     1      21.988   0.032  54.167  1.00  0.00    -0.222 NA
HETATM   11  C21 UNL     1      21.142  -0.976  54.333  1.00  0.00     0.238 A 
HETATM   12  N4  UNL     1      20.071  -1.070  53.526  1.00  0.00    -0.215 NA
HETATM   13  C22 UNL     1      19.820  -0.180  52.550  1.00  0.00     0.201 A 
HETATM   14  O1  UNL     1      18.667  -0.430  51.810  1.00  0.00    -0.294 OA
HETATM   15  H7  UNL     1      21.573   2.400  51.335  1.00  0.00     0.159 HD
ENDROOT
BRANCH   9  16
HETATM   16  N2  UNL     1      22.775   2.019  53.170  1.00  0.00    -0.339 N 
HETATM   17  H8  UNL     1      22.790   3.000  53.519  1.00  0.00     0.167 HD
BRANCH  16  18
HETATM   18  C9  UNL     1      24.047   1.892  52.548  1.00  0.00     0.034 A 
HETATM   19  C10 UNL     1      24.403   2.799  51.577  1.00  0.00     0.029 A 
HETATM   20  C11 UNL     1      25.632   2.728  50.903  1.00  0.00     0.003 A 
HETATM   21  C12 UNL     1      26.532   1.735  51.196  1.00  0.00     0.012 A 
HETATM   22  C13 UNL     1      26.210   0.817  52.155  1.00  0.00    -0.024 A 
HETATM   23  C20 UNL     1      25.000   0.923  52.789  1.00  0.00     0.041 A 
BRANCH  22  24
HETATM   24  C14 UNL     1      27.104  -0.267  52.529  1.00  0.00    -0.026 A 
HETATM   25  C15 UNL     1      26.859  -1.597  52.305  1.00  0.00     0.012 A 
HETATM   26  C16 UNL     1      27.745  -2.596  52.688  1.00  0.00     0.001 A 
HETATM   27  C17 UNL     1      28.925  -2.284  53.320  1.00  0.00     0.000 A 
HETATM   28  C18 UNL     1      29.228  -0.940  53.575  1.00  0.00     0.001 A 
HETATM   29  C19 UNL     1      28.305   0.018  53.170  1.00  0.00     0.012 A 
ENDBRANCH  22  24
ENDBRANCH  16  18
ENDBRANCH   9  16
TORSDOF 3
ENDMDL
MODEL 7
REMARK VINA RESULT:      -8.7      4.324      7.573
REMARK  3 active torsions:
REMARK  status: ('A' for Active; 'I' for Inactive)
REMARK    1  A    between atoms: C8_9  and  N2_10 
REMARK    2  A    between atoms: N2_10  and  C9_11 
REMARK    3  A    between atoms: C13_15  and  C14_16 
ROOT
HETATM    1  C1  UNL     1      23.322   9.884  47.463  1.00  0.00     0.017 C 
HETATM    2  C2  UNL     1      23.088   9.159  48.395  1.00  0.00    -0.087 C 
HETATM    3  C3  UNL     1      22.801   8.283  49.489  1.00  0.00     0.096 C 
HETATM    4  C4  UNL     1      23.711   7.507  50.102  1.00  0.00     0.065 C 
HETATM    5  C5  UNL     1      23.268   6.653  51.217  1.00  0.00     0.085 C 
HETATM    6  C6  UNL     1      23.198   5.183  50.866  1.00  0.00     0.126 C 
HETATM    7  N1  UNL     1      24.465   4.580  50.588  1.00  0.00    -0.383 N 
HETATM    8  C7  UNL     1      25.586   5.037  49.864  1.00  0.00     0.128 A 
HETATM    9  C8  UNL     1      26.443   4.029  49.573  1.00  0.00     0.160 A 
HETATM   10  N3  UNL     1      27.554   4.351  48.902  1.00  0.00    -0.222 NA
HETATM   11  C21 UNL     1      27.832   5.592  48.524  1.00  0.00     0.238 A 
HETATM   12  N4  UNL     1      26.966   6.575  48.825  1.00  0.00    -0.215 NA
HETATM   13  C22 UNL     1      25.823   6.352  49.496  1.00  0.00     0.201 A 
HETATM   14  O1  UNL     1      25.044   7.485  49.720  1.00  0.00    -0.294 OA
HETATM   15  H7  UNL     1      24.577   3.636  51.005  1.00  0.00     0.159 HD
ENDROOT
BRANCH   9  16
HETATM   16  N2  UNL     1      26.237   2.661  49.887  1.00  0.00    -0.339 N 
HETATM   17  H8  UNL     1      26.111   1.799  49.317  1.00  0.00     0.167 HD
BRANCH  16  18
HETATM   18  C9  UNL     1      26.163   2.167  51.218  1.00  0.00     0.034 A 
HETATM   19  C10 UNL     1      27.214   2.407  52.073  1.00  0.00     0.029 A 
HETATM   20  C11 UNL     1      27.224   1.934  53.395  1.00  0.00     0.003 A 
HETATM   21  C12 UNL     1      26.169   1.206  53.884  1.00  0.00     0.012 A 
HETATM   22  C13 UNL     1      25.110   0.950  53.062  1.00  0.00    -0.024 A 
HETATM   23  C20 UNL     1      25.139   1.429  51.778  1.00  0.00     0.041 A 
BRANCH  22  24
HETATM   24  C14 UNL     1      23.950   0.187  53.497  1.00  0.00    -0.026 A 
HETATM   25  C15 UNL     1      23.917  -0.629  54.597  1.00  0.00     0.012 A 
HETATM   26  C16 UNL     1      22.783  -1.341  54.967  1.00  0.00     0.001 A 
HETATM   27  C17 UNL     1      21.626  -1.252  54.229  1.00  0.00     0.000 A 
HETATM   28  C18 UNL     1      21.602  -0.433  53.094  1.00  0.00     0.001 A 
HETATM   29  C19 UNL     1      22.766   0.257  52.770  1.00  0.00     0.012 A 
ENDBRANCH  22  24
ENDBRANCH  16  18
ENDBRANCH   9  16
TORSDOF 3
ENDMDL
MODEL 8
REMARK VINA RESULT:      -8.7      4.778      9.171
REMARK  3 active torsions:
REMARK  status: ('A' for Active; 'I' for Inactive)
REMARK    1  A    between atoms: C8_9  and  N2_10 
REMARK    2  A    between atoms: N2_10  and  C9_11 
REMARK    3  A    between atoms: C13_15  and  C14_16 
ROOT
HETATM    1  C1  UNL     1      21.597  -1.267  53.935  1.00  0.00     0.017 C 
HETATM    2  C2  UNL     1      22.763  -0.968  53.970  1.00  0.00    -0.087 C 
HETATM    3  C3  UNL     1      24.151  -0.624  53.993  1.00  0.00     0.096 C 
HETATM    4  C4  UNL     1      24.647   0.565  53.609  1.00  0.00     0.065 C 
HETATM    5  C5  UNL     1      26.103   0.775  53.688  1.00  0.00     0.085 C 
HETATM    6  C6  UNL     1      26.791   0.777  52.341  1.00  0.00     0.126 C 
HETATM    7  N1  UNL     1      26.433   1.874  51.496  1.00  0.00    -0.383 N 
HETATM    8  C7  UNL     1      25.194   2.494  51.231  1.00  0.00     0.128 A 
HETATM    9  C8  UNL     1      25.247   3.278  50.129  1.00  0.00     0.160 A 
HETATM   10  N3  UNL     1      24.129   3.931  49.793  1.00  0.00    -0.222 NA
HETATM   11  C21 UNL     1      23.003   3.835  50.488  1.00  0.00     0.238 A 
HETATM   12  N4  UNL     1      22.975   3.049  51.578  1.00  0.00    -0.215 NA
HETATM   13  C22 UNL     1      24.046   2.353  51.997  1.00  0.00     0.201 A 
HETATM   14  O1  UNL     1      23.839   1.590  53.144  1.00  0.00    -0.294 OA
HETATM   15  H7  UNL     1      27.239   2.292  50.993  1.00  0.00     0.159 HD
ENDROOT
BRANCH   9  16
HETATM   16  N2  UNL     1      26.377   3.431  49.285  1.00  0.00    -0.339 N 
HETATM   17  H8  UNL     1      27.012   2.765  48.798  1.00  0.00     0.167 HD
BRANCH  16  18
HETATM   18  C9  UNL     1      26.902   4.696  48.902  1.00  0.00     0.034 A 
HETATM   19  C10 UNL     1      26.061   5.784  48.883  1.00  0.00     0.029 A 
HETATM   20  C11 UNL     1      26.500   7.061  48.498  1.00  0.00     0.003 A 
HETATM   21  C12 UNL     1      27.804   7.266  48.122  1.00  0.00     0.012 A 
HETATM   22  C13 UNL     1      28.665   6.207  48.130  1.00  0.00    -0.024 A 
HETATM   23  C20 UNL     1      28.196   4.978  48.513  1.00  0.00     0.041 A 
BRANCH  22  24
HETATM   24  C14 UNL     1      30.063   6.335  47.748  1.00  0.00    -0.026 A 
HETATM   25  C15 UNL     1      30.677   7.511  47.405  1.00  0.00     0.012 A 
HETATM   26  C16 UNL     1      32.016   7.578  47.042  1.00  0.00     0.001 A 
HETATM   27  C17 UNL     1      32.793   6.444  47.012  1.00  0.00     0.000 A 
HETATM   28  C18 UNL     1      32.218   5.213  47.353  1.00  0.00     0.001 A 
HETATM   29  C19 UNL     1      30.874   5.205  47.708  1.00  0.00     0.012 A 
ENDBRANCH  22  24
ENDBRANCH  16  18
ENDBRANCH   9  16
TORSDOF 3
ENDMDL
MODEL 9
REMARK VINA RESULT:      -8.7      3.372      7.941
REMARK  3 active torsions:
REMARK  status: ('A' for Active; 'I' for Inactive)
REMARK    1  A    between atoms: C8_9  and  N2_10 
REMARK    2  A    between atoms: N2_10  and  C9_11 
REMARK    3  A    between atoms: C13_15  and  C14_16 
ROOT
HETATM    1  C1  UNL     1      22.076   8.125  49.920  1.00  0.00     0.017 C 
HETATM    2  C2  UNL     1      22.371   7.129  49.311  1.00  0.00    -0.087 C 
HETATM    3  C3  UNL     1      22.735   5.940  48.604  1.00  0.00     0.096 C 
HETATM    4  C4  UNL     1      22.022   4.801  48.610  1.00  0.00     0.065 C 
HETATM    5  C5  UNL     1      22.523   3.655  47.833  1.00  0.00     0.085 C 
HETATM    6  C6  UNL     1      23.096   2.545  48.686  1.00  0.00     0.126 C 
HETATM    7  N1  UNL     1      22.136   1.878  49.510  1.00  0.00    -0.383 N 
HETATM    8  C7  UNL     1      21.059   2.361  50.282  1.00  0.00     0.128 A 
HETATM    9  C8  UNL     1      20.611   1.433  51.161  1.00  0.00     0.160 A 
HETATM   10  N3  UNL     1      19.577   1.778  51.935  1.00  0.00    -0.222 NA
HETATM   11  C21 UNL     1      18.994   2.968  51.868  1.00  0.00     0.238 A 
HETATM   12  N4  UNL     1      19.457   3.873  50.989  1.00  0.00    -0.215 NA
HETATM   13  C22 UNL     1      20.491   3.621  50.168  1.00  0.00     0.201 A 
HETATM   14  O1  UNL     1      20.839   4.672  49.322  1.00  0.00    -0.294 OA
HETATM   15  H7  UNL     1      22.254   0.846  49.535  1.00  0.00     0.159 HD
ENDROOT
BRANCH   9  16
HETATM   16  N2  UNL     1      21.174   0.145  51.351  1.00  0.00    -0.339 N 
HETATM   17  H8  UNL     1      21.208  -0.723  50.777  1.00  0.00     0.167 HD
BRANCH  16  18
HETATM   18  C9  UNL     1      21.894  -0.229  52.520  1.00  0.00     0.034 A 
HETATM   19  C10 UNL     1      21.190  -0.652  53.623  1.00  0.00     0.029 A 
HETATM   20  C11 UNL     1      21.827  -1.018  54.820  1.00  0.00     0.003 A 
HETATM   21  C12 UNL     1      23.194  -0.965  54.927  1.00  0.00     0.012 A 
HETATM   22  C13 UNL     1      23.923  -0.549  53.851  1.00  0.00    -0.024 A 
HETATM   23  C20 UNL     1      23.262  -0.200  52.701  1.00  0.00     0.041 A 
BRANCH  22  24
HETATM   24  C14 UNL     1      25.375  -0.463  53.876  1.00  0.00    -0.026 A 
HETATM   25  C15 UNL     1      26.101   0.248  54.795  1.00  0.00     0.012 A 
HETATM   26  C16 UNL     1      27.489   0.302  54.772  1.00  0.00     0.001 A 
HETATM   27  C17 UNL     1      28.202  -0.368  53.807  1.00  0.00     0.000 A 
HETATM   28  C18 UNL     1      27.511  -1.111  52.841  1.00  0.00     0.001 A 
HETATM   29  C19 UNL     1      26.123  -1.130  52.911  1.00  0.00     0.012 A 
ENDBRANCH  22  24
ENDBRANCH  16  18
ENDBRANCH   9  16
TORSDOF 3
ENDMDL
