MODEL 1
REMARK VINA RESULT:      -7.7      0.000      0.000
REMARK  5 active torsions:
REMARK  status: ('A' for Active; 'I' for Inactive)
REMARK    1  A    between atoms: C2_3  and  C3_4 
REMARK    2  A    between atoms: C4_5  and  C5_6 
REMARK    3  A    between atoms: C13_14  and  O1_15 
REMARK    4  A    between atoms: O1_15  and  C14_16 
REMARK    5  A    between atoms: C14_16  and  C15_17 
ROOT
HETATM    1  N1  UNL     1      19.670   2.896  47.485  1.00  0.00    -0.196 NA
HETATM    2  C1  UNL     1      20.833   2.866  47.461  1.00  0.00     0.071 C 
HETATM    3  C2  UNL     1      22.293   2.832  47.449  1.00  0.00     0.217 C 
ENDROOT
BRANCH   3   4
HETATM    4  C3  UNL     1      22.729   2.777  48.844  1.00  0.00    -0.091 C 
HETATM    5  C4  UNL     1      23.073   2.724  50.006  1.00  0.00    -0.089 C 
BRANCH   5   6
HETATM    6  C5  UNL     1      23.484   2.649  51.442  1.00  0.00     0.140 C 
HETATM    7  C6  UNL     1      24.291   1.467  51.688  1.00  0.00     0.044 C 
HETATM    8  C7  UNL     1      24.820   0.349  52.231  1.00  0.00    -0.005 C 
HETATM    9  C8  UNL     1      24.416  -0.319  53.501  1.00  0.00    -0.004 A 
HETATM   10  C9  UNL     1      23.022  -0.243  53.294  1.00  0.00     0.043 A 
HETATM   11  C13 UNL     1      24.896  -0.818  54.666  1.00  0.00     0.078 A 
HETATM   12  C10 UNL     1      22.074  -0.638  54.207  1.00  0.00     0.034 A 
HETATM   13  C11 UNL     1      22.615  -1.133  55.366  1.00  0.00     0.032 A 
HETATM   14  N2  UNL     1      20.706  -0.434  53.910  1.00  0.00    -0.340 N 
HETATM   15  C12 UNL     1      23.968  -1.224  55.596  1.00  0.00     0.040 A 
HETATM   16  C16 UNL     1      20.333   0.368  52.760  1.00  0.00     0.147 A 
HETATM   17  H13 UNL     1      20.053  -0.889  54.573  1.00  0.00     0.167 HD
HETATM   18  N3  UNL     1      19.339  -0.287  52.207  1.00  0.00    -0.223 NA
HETATM   19  C19 UNL     1      20.772   1.573  52.190  1.00  0.00     0.065 A 
HETATM   20  C17 UNL     1      18.638   0.038  51.119  1.00  0.00     0.235 A 
HETATM   21  N4  UNL     1      18.984   1.196  50.485  1.00  0.00    -0.253 NA
HETATM   22  C18 UNL     1      20.020   1.885  51.054  1.00  0.00     0.140 A 
HETATM   23  S1  UNL     1      21.971   2.892  52.369  1.00  0.00    -0.106 SA
BRANCH  11  24
HETATM   24  O1  UNL     1      26.243  -0.734  54.491  1.00  0.00    -0.349 OA
BRANCH  24  25
HETATM   25  C14 UNL     1      27.162   0.183  54.946  1.00  0.00     0.191 C 
BRANCH  25  26
HETATM   26  C15 UNL     1      28.487   0.052  54.289  1.00  0.00     0.141 C 
HETATM   27 CL1  UNL     1      28.450  -1.265  53.090  1.00  0.00    -0.128 Cl
ENDBRANCH  25  26
ENDBRANCH  24  25
ENDBRANCH  11  24
ENDBRANCH   5   6
ENDBRANCH   3   4
TORSDOF 5
ENDMDL
MODEL 2
REMARK VINA RESULT:      -7.3      1.627      1.957
REMARK  5 active torsions:
REMARK  status: ('A' for Active; 'I' for Inactive)
REMARK    1  A    between atoms: C2_3  and  C3_4 
REMARK    2  A    between atoms: C4_5  and  C5_6 
REMARK    3  A    between atoms: C13_14  and  O1_15 
REMARK    4  A    between atoms: O1_15  and  C14_16 
REMARK    5  A    between atoms: C14_16  and  C15_17 
ROOT
HETATM    1  N1  UNL     1      20.131   4.875  47.842  1.00  0.00    -0.196 NA
HETATM    2  C1  UNL     1      21.283   4.946  47.695  1.00  0.00     0.071 C 
HETATM    3  C2  UNL     1      22.732   5.033  47.528  1.00  0.00     0.217 C 
ENDROOT
BRANCH   3   4
HETATM    4  C3  UNL     1      23.329   4.718  48.826  1.00  0.00    -0.091 C 
HETATM    5  C4  UNL     1      23.809   4.444  49.906  1.00  0.00    -0.089 C 
BRANCH   5   6
HETATM    6  C5  UNL     1      24.390   4.095  51.239  1.00  0.00     0.140 C 
HETATM    7  C6  UNL     1      25.362   3.024  51.114  1.00  0.00     0.044 C 
HETATM    8  C7  UNL     1      26.087   1.901  51.316  1.00  0.00    -0.005 C 
HETATM    9  C8  UNL     1      25.920   0.900  52.407  1.00  0.00    -0.004 A 
HETATM   10  C9  UNL     1      24.513   0.811  52.340  1.00  0.00     0.043 A 
HETATM   11  C13 UNL     1      26.591   0.217  53.367  1.00  0.00     0.078 A 
HETATM   12  C10 UNL     1      23.734   0.075  53.199  1.00  0.00     0.034 A 
HETATM   13  C11 UNL     1      24.463  -0.593  54.150  1.00  0.00     0.032 A 
HETATM   14  N2  UNL     1      22.326   0.135  53.076  1.00  0.00    -0.340 N 
HETATM   15  C12 UNL     1      25.835  -0.532  54.239  1.00  0.00     0.040 A 
HETATM   16  C16 UNL     1      21.725   1.120  52.197  1.00  0.00     0.147 A 
HETATM   17  H13 UNL     1      21.817  -0.556  53.655  1.00  0.00     0.167 HD
HETATM   18  N3  UNL     1      20.763   0.473  51.581  1.00  0.00    -0.223 NA
HETATM   19  C19 UNL     1      21.940   2.478  51.913  1.00  0.00     0.065 A 
HETATM   20  C17 UNL     1      19.906   0.937  50.670  1.00  0.00     0.235 A 
HETATM   21  N4  UNL     1      20.028   2.250  50.319  1.00  0.00    -0.253 NA
HETATM   22  C18 UNL     1      21.028   2.933  50.956  1.00  0.00     0.140 A 
HETATM   23  S1  UNL     1      22.976   3.882  52.317  1.00  0.00    -0.106 SA
BRANCH  11  24
HETATM   24  O1  UNL     1      27.887   0.541  53.109  1.00  0.00    -0.349 OA
BRANCH  24  25
HETATM   25  C14 UNL     1      28.998   0.557  53.921  1.00  0.00     0.191 C 
BRANCH  25  26
HETATM   26  C15 UNL     1      30.051  -0.393  53.480  1.00  0.00     0.141 C 
HETATM   27 CL1  UNL     1      29.377  -2.035  53.338  1.00  0.00    -0.128 Cl
ENDBRANCH  25  26
ENDBRANCH  24  25
ENDBRANCH  11  24
ENDBRANCH   5   6
ENDBRANCH   3   4
TORSDOF 5
ENDMDL
MODEL 3
REMARK VINA RESULT:      -7.2      3.952      7.278
REMARK  5 active torsions:
REMARK  status: ('A' for Active; 'I' for Inactive)
REMARK    1  A    between atoms: C2_3  and  C3_4 
REMARK    2  A    between atoms: C4_5  and  C5_6 
REMARK    3  A    between atoms: C13_14  and  O1_15 
REMARK    4  A    between atoms: O1_15  and  C14_16 
REMARK    5  A    between atoms: C14_16  and  C15_17 
ROOT
HETATM    1  N1  UNL     1      28.810   0.482  53.603  1.00  0.00    -0.196 NA
HETATM    2  C1  UNL     1      27.990  -0.289  53.310  1.00  0.00     0.071 C 
HETATM    3  C2  UNL     1      26.947  -1.245  52.947  1.00  0.00     0.217 C 
ENDROOT
BRANCH   3   4
HETATM    4  C3  UNL     1      25.675  -0.526  52.995  1.00  0.00    -0.091 C 
HETATM    5  C4  UNL     1      24.627   0.085  53.023  1.00  0.00    -0.089 C 
BRANCH   5   6
HETATM    6  C5  UNL     1      23.340   0.846  53.045  1.00  0.00     0.140 C 
HETATM    7  C6  UNL     1      22.413   0.323  52.058  1.00  0.00     0.044 C 
HETATM    8  C7  UNL     1      21.489   0.211  51.077  1.00  0.00    -0.005 C 
HETATM    9  C8  UNL     1      20.804   1.317  50.349  1.00  0.00    -0.004 A 
HETATM   10  C9  UNL     1      21.951   2.110  50.132  1.00  0.00     0.043 A 
HETATM   11  C13 UNL     1      19.588   1.776  49.968  1.00  0.00     0.078 A 
HETATM   12  C10 UNL     1      21.941   3.357  49.556  1.00  0.00     0.034 A 
HETATM   13  C11 UNL     1      20.686   3.773  49.192  1.00  0.00     0.032 A 
HETATM   14  N2  UNL     1      23.151   4.086  49.469  1.00  0.00    -0.340 N 
HETATM   15  C12 UNL     1      19.549   3.021  49.385  1.00  0.00     0.040 A 
HETATM   16  C16 UNL     1      24.328   3.606  50.168  1.00  0.00     0.147 A 
HETATM   17  H13 UNL     1      23.091   4.944  48.893  1.00  0.00     0.167 HD
HETATM   18  N3  UNL     1      25.313   3.779  49.317  1.00  0.00    -0.223 NA
HETATM   19  C19 UNL     1      24.593   3.062  51.435  1.00  0.00     0.065 A 
HETATM   20  C17 UNL     1      26.607   3.500  49.482  1.00  0.00     0.235 A 
HETATM   21  N4  UNL     1      26.975   2.964  50.682  1.00  0.00    -0.253 NA
HETATM   22  C18 UNL     1      25.955   2.780  51.575  1.00  0.00     0.140 A 
HETATM   23  S1  UNL     1      23.823   2.570  52.975  1.00  0.00    -0.106 SA
BRANCH  11  24
HETATM   24  O1  UNL     1      18.761   0.757  50.329  1.00  0.00    -0.349 OA
BRANCH  24  25
HETATM   25  C14 UNL     1      17.827   0.659  51.335  1.00  0.00     0.191 C 
BRANCH  25  26
HETATM   26  C15 UNL     1      17.790  -0.686  51.963  1.00  0.00     0.141 C 
HETATM   27 CL1  UNL     1      18.983  -0.780  53.283  1.00  0.00    -0.128 Cl
ENDBRANCH  25  26
ENDBRANCH  24  25
ENDBRANCH  11  24
ENDBRANCH   5   6
ENDBRANCH   3   4
TORSDOF 5
ENDMDL
MODEL 4
REMARK VINA RESULT:      -7.2      4.439      7.579
REMARK  5 active torsions:
REMARK  status: ('A' for Active; 'I' for Inactive)
REMARK    1  A    between atoms: C2_3  and  C3_4 
REMARK    2  A    between atoms: C4_5  and  C5_6 
REMARK    3  A    between atoms: C13_14  and  O1_15 
REMARK    4  A    between atoms: O1_15  and  C14_16 
REMARK    5  A    between atoms: C14_16  and  C15_17 
ROOT
HETATM    1  N1  UNL     1      22.472  -1.449  55.308  1.00  0.00    -0.196 NA
HETATM    2  C1  UNL     1      21.844  -1.095  54.395  1.00  0.00     0.071 C 
HETATM    3  C2  UNL     1      21.063  -0.632  53.250  1.00  0.00     0.217 C 
ENDROOT
BRANCH   3   4
HETATM    4  C3  UNL     1      21.502   0.732  52.959  1.00  0.00    -0.091 C 
HETATM    5  C4  UNL     1      21.855   1.864  52.700  1.00  0.00    -0.089 C 
BRANCH   5   6
HETATM    6  C5  UNL     1      22.280   3.259  52.370  1.00  0.00     0.140 C 
HETATM    7  C6  UNL     1      22.198   3.500  50.941  1.00  0.00     0.044 C 
HETATM    8  C7  UNL     1      22.461   3.896  49.675  1.00  0.00    -0.005 C 
HETATM    9  C8  UNL     1      23.658   4.640  49.190  1.00  0.00    -0.004 A 
HETATM   10  C9  UNL     1      24.621   3.885  49.893  1.00  0.00     0.043 A 
HETATM   11  C13 UNL     1      24.047   5.717  48.465  1.00  0.00     0.078 A 
HETATM   12  C10 UNL     1      25.967   4.161  49.915  1.00  0.00     0.034 A 
HETATM   13  C11 UNL     1      26.304   5.260  49.167  1.00  0.00     0.032 A 
HETATM   14  N2  UNL     1      26.818   3.374  50.726  1.00  0.00    -0.340 N 
HETATM   15  C12 UNL     1      25.390   6.014  48.467  1.00  0.00     0.040 A 
HETATM   16  C16 UNL     1      26.243   2.436  51.671  1.00  0.00     0.147 A 
HETATM   17  H13 UNL     1      27.829   3.545  50.575  1.00  0.00     0.167 HD
HETATM   18  N3  UNL     1      26.983   1.358  51.562  1.00  0.00    -0.223 NA
HETATM   19  C19 UNL     1      25.175   2.456  52.582  1.00  0.00     0.065 A 
HETATM   20  C17 UNL     1      26.869   0.206  52.226  1.00  0.00     0.235 A 
HETATM   21  N4  UNL     1      25.859   0.117  53.139  1.00  0.00    -0.253 NA
HETATM   22  C18 UNL     1      25.082   1.236  53.260  1.00  0.00     0.140 A 
HETATM   23  S1  UNL     1      23.845   3.476  53.213  1.00  0.00    -0.106 SA
BRANCH  11  24
HETATM   24  O1  UNL     1      22.871   6.165  47.947  1.00  0.00    -0.349 OA
BRANCH  24  25
HETATM   25  C14 UNL     1      22.143   7.305  48.200  1.00  0.00     0.191 C 
BRANCH  25  26
HETATM   26  C15 UNL     1      22.571   8.003  49.439  1.00  0.00     0.141 C 
HETATM   27 CL1  UNL     1      21.710   7.336  50.849  1.00  0.00    -0.128 Cl
ENDBRANCH  25  26
ENDBRANCH  24  25
ENDBRANCH  11  24
ENDBRANCH   5   6
ENDBRANCH   3   4
TORSDOF 5
ENDMDL
MODEL 5
REMARK VINA RESULT:      -6.8      9.894     12.094
REMARK  5 active torsions:
REMARK  status: ('A' for Active; 'I' for Inactive)
REMARK    1  A    between atoms: C2_3  and  C3_4 
REMARK    2  A    between atoms: C4_5  and  C5_6 
REMARK    3  A    between atoms: C13_14  and  O1_15 
REMARK    4  A    between atoms: O1_15  and  C14_16 
REMARK    5  A    between atoms: C14_16  and  C15_17 
ROOT
HETATM    1  N1  UNL     1      35.190   3.384  45.553  1.00  0.00    -0.196 NA
HETATM    2  C1  UNL     1      34.424   4.235  45.344  1.00  0.00     0.071 C 
HETATM    3  C2  UNL     1      33.453   5.298  45.098  1.00  0.00     0.217 C 
ENDROOT
BRANCH   3   4
HETATM    4  C3  UNL     1      32.603   5.382  46.285  1.00  0.00    -0.091 C 
HETATM    5  C4  UNL     1      31.882   5.457  47.258  1.00  0.00    -0.089 C 
BRANCH   5   6
HETATM    6  C5  UNL     1      30.982   5.552  48.448  1.00  0.00     0.140 C 
HETATM    7  C6  UNL     1      29.596   5.687  48.038  1.00  0.00     0.044 C 
HETATM    8  C7  UNL     1      28.305   6.074  47.940  1.00  0.00    -0.005 C 
HETATM    9  C8  UNL     1      27.603   7.101  48.761  1.00  0.00    -0.004 A 
HETATM   10  C9  UNL     1      28.623   8.076  48.717  1.00  0.00     0.043 A 
HETATM   11  C13 UNL     1      26.493   7.324  49.506  1.00  0.00     0.078 A 
HETATM   12  C10 UNL     1      28.592   9.270  49.396  1.00  0.00     0.034 A 
HETATM   13  C11 UNL     1      27.448   9.442  50.134  1.00  0.00     0.032 A 
HETATM   14  N2  UNL     1      29.716  10.127  49.334  1.00  0.00    -0.340 N 
HETATM   15  C12 UNL     1      26.434   8.513  50.193  1.00  0.00     0.040 A 
HETATM   16  C16 UNL     1      30.950   9.650  48.739  1.00  0.00     0.147 A 
HETATM   17  H13 UNL     1      29.560  11.065  49.744  1.00  0.00     0.167 HD
HETATM   18  N3  UNL     1      31.380  10.656  48.014  1.00  0.00    -0.223 NA
HETATM   19  C19 UNL     1      31.693   8.460  48.786  1.00  0.00     0.065 A 
HETATM   20  C17 UNL     1      32.484  10.725  47.269  1.00  0.00     0.235 A 
HETATM   21  N4  UNL     1      33.283   9.619  47.243  1.00  0.00    -0.253 NA
HETATM   22  C18 UNL     1      32.842   8.565  47.995  1.00  0.00     0.140 A 
HETATM   23  S1  UNL     1      31.722   6.812  49.486  1.00  0.00    -0.106 SA
BRANCH  11  24
HETATM   24  O1  UNL     1      25.765   6.194  49.294  1.00  0.00    -0.349 OA
BRANCH  24  25
HETATM   25  C14 UNL     1      24.625   5.720  49.904  1.00  0.00     0.191 C 
BRANCH  25  26
HETATM   26  C15 UNL     1      24.325   4.308  49.556  1.00  0.00     0.141 C 
HETATM   27 CL1  UNL     1      25.829   3.355  49.506  1.00  0.00    -0.128 Cl
ENDBRANCH  25  26
ENDBRANCH  24  25
ENDBRANCH  11  24
ENDBRANCH   5   6
ENDBRANCH   3   4
TORSDOF 5
ENDMDL
MODEL 6
REMARK VINA RESULT:      -6.8      2.944      4.194
REMARK  5 active torsions:
REMARK  status: ('A' for Active; 'I' for Inactive)
REMARK    1  A    between atoms: C2_3  and  C3_4 
REMARK    2  A    between atoms: C4_5  and  C5_6 
REMARK    3  A    between atoms: C13_14  and  O1_15 
REMARK    4  A    between atoms: O1_15  and  C14_16 
REMARK    5  A    between atoms: C14_16  and  C15_17 
ROOT
HETATM    1  N1  UNL     1      27.911   5.954  48.383  1.00  0.00    -0.196 NA
HETATM    2  C1  UNL     1      26.896   6.489  48.576  1.00  0.00     0.071 C 
HETATM    3  C2  UNL     1      25.616   7.147  48.829  1.00  0.00     0.217 C 
ENDROOT
BRANCH   3   4
HETATM    4  C3  UNL     1      24.939   6.374  49.870  1.00  0.00    -0.091 C 
HETATM    5  C4  UNL     1      24.369   5.721  50.719  1.00  0.00    -0.089 C 
BRANCH   5   6
HETATM    6  C5  UNL     1      23.660   4.907  51.755  1.00  0.00     0.140 C 
HETATM    7  C6  UNL     1      24.357   3.657  51.995  1.00  0.00     0.044 C 
HETATM    8  C7  UNL     1      24.647   2.355  52.214  1.00  0.00    -0.005 C 
HETATM    9  C8  UNL     1      23.686   1.219  52.313  1.00  0.00    -0.004 A 
HETATM   10  C9  UNL     1      22.892   1.574  51.202  1.00  0.00     0.043 A 
HETATM   11  C13 UNL     1      23.333   0.159  53.080  1.00  0.00     0.078 A 
HETATM   12  C10 UNL     1      21.745   0.920  50.821  1.00  0.00     0.034 A 
HETATM   13  C11 UNL     1      21.434  -0.141  51.632  1.00  0.00     0.032 A 
HETATM   14  N2  UNL     1      20.993   1.426  49.734  1.00  0.00    -0.340 N 
HETATM   15  C12 UNL     1      22.191  -0.515  52.719  1.00  0.00     0.040 A 
HETATM   16  C16 UNL     1      21.320   2.725  49.179  1.00  0.00     0.147 A 
HETATM   17  H13 UNL     1      20.232   0.801  49.415  1.00  0.00     0.167 HD
HETATM   18  N3  UNL     1      21.238   2.561  47.879  1.00  0.00    -0.223 NA
HETATM   19  C19 UNL     1      21.662   3.984  49.699  1.00  0.00     0.065 A 
HETATM   20  C17 UNL     1      21.443   3.463  46.917  1.00  0.00     0.235 A 
HETATM   21  N4  UNL     1      21.782   4.723  47.314  1.00  0.00    -0.253 NA
HETATM   22  C18 UNL     1      21.870   4.904  48.667  1.00  0.00     0.140 A 
HETATM   23  S1  UNL     1      21.949   4.876  51.225  1.00  0.00    -0.106 SA
BRANCH  11  24
HETATM   24  O1  UNL     1      24.318   0.134  54.020  1.00  0.00    -0.349 OA
BRANCH  24  25
HETATM   25  C14 UNL     1      25.291  -0.801  54.289  1.00  0.00     0.191 C 
BRANCH  25  26
HETATM   26  C15 UNL     1      26.641  -0.379  53.838  1.00  0.00     0.141 C 
HETATM   27 CL1  UNL     1      26.792  -0.585  52.076  1.00  0.00    -0.128 Cl
ENDBRANCH  25  26
ENDBRANCH  24  25
ENDBRANCH  11  24
ENDBRANCH   5   6
ENDBRANCH   3   4
TORSDOF 5
ENDMDL
MODEL 7
REMARK VINA RESULT:      -6.8      2.511      4.532
REMARK  5 active torsions:
REMARK  status: ('A' for Active; 'I' for Inactive)
REMARK    1  A    between atoms: C2_3  and  C3_4 
REMARK    2  A    between atoms: C4_5  and  C5_6 
REMARK    3  A    between atoms: C13_14  and  O1_15 
REMARK    4  A    between atoms: O1_15  and  C14_16 
REMARK    5  A    between atoms: C14_16  and  C15_17 
ROOT
HETATM    1  N1  UNL     1      17.466   4.121  51.517  1.00  0.00    -0.196 NA
HETATM    2  C1  UNL     1      17.439   2.959  51.536  1.00  0.00     0.071 C 
HETATM    3  C2  UNL     1      17.424   1.498  51.554  1.00  0.00     0.217 C 
ENDROOT
BRANCH   3   4
HETATM    4  C3  UNL     1      18.780   1.054  51.233  1.00  0.00    -0.091 C 
HETATM    5  C4  UNL     1      19.911   0.705  50.966  1.00  0.00    -0.089 C 
BRANCH   5   6
HETATM    6  C5  UNL     1      21.309   0.289  50.638  1.00  0.00     0.140 C 
HETATM    7  C6  UNL     1      22.193   0.517  51.766  1.00  0.00     0.044 C 
HETATM    8  C7  UNL     1      23.249   0.859  52.538  1.00  0.00    -0.005 C 
HETATM    9  C8  UNL     1      24.542   1.453  52.092  1.00  0.00    -0.004 A 
HETATM   10  C9  UNL     1      23.992   2.407  51.209  1.00  0.00     0.043 A 
HETATM   11  C13 UNL     1      25.887   1.320  52.184  1.00  0.00     0.078 A 
HETATM   12  C10 UNL     1      24.728   3.237  50.398  1.00  0.00     0.034 A 
HETATM   13  C11 UNL     1      26.081   3.058  50.530  1.00  0.00     0.032 A 
HETATM   14  N2  UNL     1      24.054   4.094  49.497  1.00  0.00    -0.340 N 
HETATM   15  C12 UNL     1      26.648   2.141  51.385  1.00  0.00     0.040 A 
HETATM   16  C16 UNL     1      22.626   3.939  49.291  1.00  0.00     0.147 A 
HETATM   17  H13 UNL     1      24.665   4.789  49.032  1.00  0.00     0.167 HD
HETATM   18  N3  UNL     1      22.160   5.165  49.263  1.00  0.00    -0.223 NA
HETATM   19  C19 UNL     1      21.747   2.857  49.126  1.00  0.00     0.065 A 
HETATM   20  C17 UNL     1      20.898   5.566  49.093  1.00  0.00     0.235 A 
HETATM   21  N4  UNL     1      19.958   4.592  48.924  1.00  0.00    -0.253 NA
HETATM   22  C18 UNL     1      20.435   3.310  48.951  1.00  0.00     0.140 A 
HETATM   23  S1  UNL     1      21.666   1.069  49.066  1.00  0.00    -0.106 SA
BRANCH  11  24
HETATM   24  O1  UNL     1      26.024   0.335  53.112  1.00  0.00    -0.349 OA
BRANCH  24  25
HETATM   25  C14 UNL     1      26.658   0.320  54.334  1.00  0.00     0.191 C 
BRANCH  25  26
HETATM   26  C15 UNL     1      28.096  -0.036  54.237  1.00  0.00     0.141 C 
HETATM   27 CL1  UNL     1      29.079   1.433  54.015  1.00  0.00    -0.128 Cl
ENDBRANCH  25  26
ENDBRANCH  24  25
ENDBRANCH  11  24
ENDBRANCH   5   6
ENDBRANCH   3   4
TORSDOF 5
ENDMDL
MODEL 8
REMARK VINA RESULT:      -6.3      3.293      4.118
REMARK  5 active torsions:
REMARK  status: ('A' for Active; 'I' for Inactive)
REMARK    1  A    between atoms: C2_3  and  C3_4 
REMARK    2  A    between atoms: C4_5  and  C5_6 
REMARK    3  A    between atoms: C13_14  and  O1_15 
REMARK    4  A    between atoms: O1_15  and  C14_16 
REMARK    5  A    between atoms: C14_16  and  C15_17 
ROOT
HETATM    1  N1  UNL     1      21.411   8.523  46.861  1.00  0.00    -0.196 NA
HETATM    2  C1  UNL     1      22.468   8.065  46.699  1.00  0.00     0.071 C 
HETATM    3  C2  UNL     1      23.796   7.485  46.515  1.00  0.00     0.217 C 
ENDROOT
BRANCH   3   4
HETATM    4  C3  UNL     1      24.172   6.868  47.786  1.00  0.00    -0.091 C 
HETATM    5  C4  UNL     1      24.469   6.366  48.850  1.00  0.00    -0.089 C 
BRANCH   5   6
HETATM    6  C5  UNL     1      24.822   5.753  50.168  1.00  0.00     0.140 C 
HETATM    7  C6  UNL     1      25.163   4.351  50.011  1.00  0.00     0.044 C 
HETATM    8  C7  UNL     1      25.265   3.014  50.184  1.00  0.00    -0.005 C 
HETATM    9  C8  UNL     1      24.648   2.191  51.262  1.00  0.00    -0.004 A 
HETATM   10  C9  UNL     1      23.369   2.787  51.216  1.00  0.00     0.043 A 
HETATM   11  C13 UNL     1      24.917   1.251  52.200  1.00  0.00     0.078 A 
HETATM   12  C10 UNL     1      22.339   2.494  52.077  1.00  0.00     0.034 A 
HETATM   13  C11 UNL     1      22.667   1.539  53.005  1.00  0.00     0.032 A 
HETATM   14  N2  UNL     1      21.130   3.222  51.978  1.00  0.00    -0.340 N 
HETATM   15  C12 UNL     1      23.902   0.936  53.073  1.00  0.00     0.040 A 
HETATM   16  C16 UNL     1      21.066   4.393  51.124  1.00  0.00     0.147 A 
HETATM   17  H13 UNL     1      20.356   2.845  52.554  1.00  0.00     0.167 HD
HETATM   18  N3  UNL     1      19.908   4.297  50.514  1.00  0.00    -0.223 NA
HETATM   19  C19 UNL     1      21.902   5.489  50.857  1.00  0.00     0.065 A 
HETATM   20  C17 UNL     1      19.370   5.133  49.624  1.00  0.00     0.235 A 
HETATM   21  N4  UNL     1      20.102   6.235  49.291  1.00  0.00    -0.253 NA
HETATM   22  C18 UNL     1      21.311   6.344  49.922  1.00  0.00     0.140 A 
HETATM   23  S1  UNL     1      23.485   6.219  51.266  1.00  0.00    -0.106 SA
BRANCH  11  24
HETATM   24  O1  UNL     1      26.209   0.923  51.926  1.00  0.00    -0.349 OA
BRANCH  24  25
HETATM   25  C14 UNL     1      27.193   0.372  52.715  1.00  0.00     0.191 C 
BRANCH  25  26
HETATM   26  C15 UNL     1      27.500   1.190  53.916  1.00  0.00     0.141 C 
HETATM   27 CL1  UNL     1      28.693   2.450  53.511  1.00  0.00    -0.128 Cl
ENDBRANCH  25  26
ENDBRANCH  24  25
ENDBRANCH  11  24
ENDBRANCH   5   6
ENDBRANCH   3   4
TORSDOF 5
ENDMDL
MODEL 9
REMARK VINA RESULT:      -6.2     10.147     12.221
REMARK  5 active torsions:
REMARK  status: ('A' for Active; 'I' for Inactive)
REMARK    1  A    between atoms: C2_3  and  C3_4 
REMARK    2  A    between atoms: C4_5  and  C5_6 
REMARK    3  A    between atoms: C13_14  and  O1_15 
REMARK    4  A    between atoms: O1_15  and  C14_16 
REMARK    5  A    between atoms: C14_16  and  C15_17 
ROOT
HETATM    1  N1  UNL     1      24.559   5.827  51.071  1.00  0.00    -0.196 NA
HETATM    2  C1  UNL     1      25.033   6.801  50.649  1.00  0.00     0.071 C 
HETATM    3  C2  UNL     1      25.643   8.015  50.110  1.00  0.00     0.217 C 
ENDROOT
BRANCH   3   4
HETATM    4  C3  UNL     1      26.728   7.591  49.226  1.00  0.00    -0.091 C 
HETATM    5  C4  UNL     1      27.627   7.256  48.483  1.00  0.00    -0.089 C 
BRANCH   5   6
HETATM    6  C5  UNL     1      28.736   6.859  47.562  1.00  0.00     0.140 C 
HETATM    7  C6  UNL     1      29.841   6.280  48.304  1.00  0.00     0.044 C 
HETATM    8  C7  UNL     1      31.075   5.960  48.753  1.00  0.00    -0.005 C 
HETATM    9  C8  UNL     1      32.382   6.473  48.251  1.00  0.00    -0.004 A 
HETATM   10  C9  UNL     1      32.006   7.832  48.165  1.00  0.00     0.043 A 
HETATM   11  C13 UNL     1      33.609   6.087  47.824  1.00  0.00     0.078 A 
HETATM   12  C10 UNL     1      32.802   8.831  47.660  1.00  0.00     0.034 A 
HETATM   13  C11 UNL     1      34.029   8.385  47.242  1.00  0.00     0.032 A 
HETATM   14  N2  UNL     1      32.277  10.141  47.553  1.00  0.00    -0.340 N 
HETATM   15  C12 UNL     1      34.427   7.069  47.317  1.00  0.00     0.040 A 
HETATM   16  C16 UNL     1      30.862  10.367  47.776  1.00  0.00     0.147 A 
HETATM   17  H13 UNL     1      32.978  10.862  47.307  1.00  0.00     0.167 HD
HETATM   18  N3  UNL     1      30.809  11.466  48.491  1.00  0.00    -0.223 NA
HETATM   19  C19 UNL     1      29.671   9.718  47.412  1.00  0.00     0.065 A 
HETATM   20  C17 UNL     1      29.731  12.101  48.954  1.00  0.00     0.235 A 
HETATM   21  N4  UNL     1      28.517  11.553  48.657  1.00  0.00    -0.253 NA
HETATM   22  C18 UNL     1      28.561  10.406  47.912  1.00  0.00     0.140 A 
HETATM   23  S1  UNL     1      29.020   8.299  46.535  1.00  0.00    -0.106 SA
BRANCH  11  24
HETATM   24  O1  UNL     1      33.598   4.749  48.068  1.00  0.00    -0.349 OA
BRANCH  24  25
HETATM   25  C14 UNL     1      34.563   3.784  47.884  1.00  0.00     0.191 C 
BRANCH  25  26
HETATM   26  C15 UNL     1      34.408   3.045  46.606  1.00  0.00     0.141 C 
HETATM   27 CL1  UNL     1      35.335   3.848  45.315  1.00  0.00    -0.128 Cl
ENDBRANCH  25  26
ENDBRANCH  24  25
ENDBRANCH  11  24
ENDBRANCH   5   6
ENDBRANCH   3   4
TORSDOF 5
ENDMDL
