MODEL 1
REMARK VINA RESULT:      -7.3      0.000      0.000
REMARK  8 active torsions:
REMARK  status: ('A' for Active; 'I' for Inactive)
REMARK    1  A    between atoms: O1_2  and  C2_3 
REMARK    2  A    between atoms: C2_3  and  O2_20 
REMARK    3  A    between atoms: C3_4  and  C4_5 
REMARK    4  A    between atoms: C6_9  and  N3_10 
REMARK    5  A    between atoms: O2_20  and  C15_21 
REMARK    6  A    between atoms: C15_21  and  C16_22 
REMARK    7  A    between atoms: C16_22  and  N4_23 
REMARK    8  A    between atoms: N4_23  and  C17_24 
ROOT
HETATM    1  C4  UNL     1      21.893   0.826  53.238  1.00  0.00     0.072 A 
HETATM    2  N1  UNL     1      21.210   0.020  54.104  1.00  0.00    -0.241 NA
HETATM    3  C5  UNL     1      21.836  -0.899  54.834  1.00  0.00     0.235 A 
HETATM    4  N2  UNL     1      23.152  -1.019  54.706  1.00  0.00    -0.224 NA
HETATM    5  C6  UNL     1      23.886  -0.267  53.881  1.00  0.00     0.135 A 
HETATM    6  C13 UNL     1      23.256   0.686  53.118  1.00  0.00     0.013 A 
HETATM    7  C14 UNL     1      24.135   1.468  52.239  1.00  0.00     0.055 C 
ENDROOT
BRANCH   1   8
HETATM    8  C3  UNL     1      21.213   1.845  52.462  1.00  0.00     0.096 C 
HETATM    9  C2  UNL     1      21.126   3.116  52.163  1.00  0.00     0.182 C 
BRANCH   9  10
HETATM   10  O1  UNL     1      20.218   3.705  51.265  1.00  0.00    -0.336 OA
HETATM   11  C1  UNL     1      20.449   3.459  49.890  1.00  0.00     0.212 C 
ENDBRANCH   9  10
BRANCH   9  12
HETATM   12  O2  UNL     1      21.525   4.416  52.283  1.00  0.00    -0.329 OA
BRANCH  12  13
HETATM   13  C15 UNL     1      22.907   4.767  52.450  1.00  0.00     0.207 C 
BRANCH  13  14
HETATM   14  C16 UNL     1      23.500   5.222  51.140  1.00  0.00     0.297 C 
BRANCH  14  15
HETATM   15  N4  UNL     1      24.937   5.101  51.124  1.00  0.00     0.094 N 
HETATM   16  H20 UNL     1      25.206   4.511  51.958  1.00  0.00     0.316 HD
BRANCH  15  17
HETATM   17  C17 UNL     1      25.454   4.439  49.975  1.00  0.00     0.147 C 
HETATM   18  C18 UNL     1      26.498   3.399  50.229  1.00  0.00     0.048 C 
HETATM   19  C19 UNL     1      24.306   3.770  49.242  1.00  0.00     0.048 C 
HETATM   20  C20 UNL     1      26.039   5.429  48.959  1.00  0.00     0.048 C 
ENDBRANCH  15  17
ENDBRANCH  14  15
ENDBRANCH  13  14
ENDBRANCH  12  13
ENDBRANCH   9  12
ENDBRANCH   1   8
BRANCH   5  21
HETATM   21  N3  UNL     1      25.273  -0.612  53.962  1.00  0.00    -0.358 N 
HETATM   22  C7  UNL     1      25.834  -1.379  52.857  1.00  0.00     0.152 C 
HETATM   23  C8  UNL     1      26.835  -0.538  52.107  1.00  0.00    -0.004 C 
HETATM   24  C9  UNL     1      27.438   0.609  52.419  1.00  0.00     0.039 C 
HETATM   25  C10 UNL     1      27.310   1.435  53.629  1.00  0.00     0.114 C 
HETATM   26  F1  UNL     1      27.879   2.671  53.436  1.00  0.00    -0.206 F 
HETATM   27  C11 UNL     1      26.741   1.108  54.782  1.00  0.00     0.035 C 
HETATM   28  C12 UNL     1      26.095  -0.220  55.079  1.00  0.00     0.155 C 
ENDBRANCH   5  21
TORSDOF 8
ENDMDL
MODEL 2
REMARK VINA RESULT:      -7.1      2.026      2.919
REMARK  8 active torsions:
REMARK  status: ('A' for Active; 'I' for Inactive)
REMARK    1  A    between atoms: O1_2  and  C2_3 
REMARK    2  A    between atoms: C2_3  and  O2_20 
REMARK    3  A    between atoms: C3_4  and  C4_5 
REMARK    4  A    between atoms: C6_9  and  N3_10 
REMARK    5  A    between atoms: O2_20  and  C15_21 
REMARK    6  A    between atoms: C15_21  and  C16_22 
REMARK    7  A    between atoms: C16_22  and  N4_23 
REMARK    8  A    between atoms: N4_23  and  C17_24 
ROOT
HETATM    1  C4  UNL     1      24.324   2.065  51.494  1.00  0.00     0.072 A 
HETATM    2  N1  UNL     1      25.345   2.701  50.848  1.00  0.00    -0.241 NA
HETATM    3  C5  UNL     1      26.615   2.386  51.084  1.00  0.00     0.235 A 
HETATM    4  N2  UNL     1      26.876   1.431  51.969  1.00  0.00    -0.224 NA
HETATM    5  C6  UNL     1      25.932   0.766  52.639  1.00  0.00     0.135 A 
HETATM    6  C13 UNL     1      24.614   1.079  52.408  1.00  0.00     0.013 A 
HETATM    7  C14 UNL     1      23.639   0.302  53.186  1.00  0.00     0.055 C 
ENDROOT
BRANCH   1   8
HETATM    8  C3  UNL     1      22.938   2.390  51.216  1.00  0.00     0.096 C 
HETATM    9  C2  UNL     1      22.035   3.332  51.113  1.00  0.00     0.182 C 
BRANCH   9  10
HETATM   10  O1  UNL     1      20.677   3.158  50.791  1.00  0.00    -0.336 OA
HETATM   11  C1  UNL     1      19.747   3.473  51.810  1.00  0.00     0.212 C 
ENDBRANCH   9  10
BRANCH   9  12
HETATM   12  O2  UNL     1      21.640   4.637  51.159  1.00  0.00    -0.329 OA
BRANCH  12  13
HETATM   13  C15 UNL     1      22.586   5.714  51.086  1.00  0.00     0.207 C 
BRANCH  13  14
HETATM   14  C16 UNL     1      23.422   5.600  49.835  1.00  0.00     0.297 C 
BRANCH  14  15
HETATM   15  N4  UNL     1      24.834   5.563  50.128  1.00  0.00     0.094 N 
HETATM   16  H20 UNL     1      25.168   4.584  49.912  1.00  0.00     0.316 HD
BRANCH  15  17
HETATM   17  C17 UNL     1      25.618   6.445  49.332  1.00  0.00     0.147 C 
HETATM   18  C18 UNL     1      26.187   7.636  50.035  1.00  0.00     0.048 C 
HETATM   19  C19 UNL     1      26.777   5.663  48.741  1.00  0.00     0.048 C 
HETATM   20  C20 UNL     1      24.840   6.965  48.117  1.00  0.00     0.048 C 
ENDBRANCH  15  17
ENDBRANCH  14  15
ENDBRANCH  13  14
ENDBRANCH  12  13
ENDBRANCH   9  12
ENDBRANCH   1   8
BRANCH   5  21
HETATM   21  N3  UNL     1      26.507  -0.209  53.514  1.00  0.00    -0.358 N 
HETATM   22  C7  UNL     1      26.495  -1.595  53.066  1.00  0.00     0.152 C 
HETATM   23  C8  UNL     1      27.906  -2.061  52.806  1.00  0.00    -0.004 C 
HETATM   24  C9  UNL     1      29.085  -1.541  53.143  1.00  0.00     0.039 C 
HETATM   25  C10 UNL     1      29.387  -0.313  53.895  1.00  0.00     0.114 C 
HETATM   26  F1  UNL     1      30.718   0.012  53.780  1.00  0.00    -0.206 F 
HETATM   27  C11 UNL     1      28.552   0.432  54.607  1.00  0.00     0.035 C 
HETATM   28  C12 UNL     1      27.083   0.150  54.786  1.00  0.00     0.155 C 
ENDBRANCH   5  21
TORSDOF 8
ENDMDL
MODEL 3
REMARK VINA RESULT:      -7.1      2.395      3.514
REMARK  8 active torsions:
REMARK  status: ('A' for Active; 'I' for Inactive)
REMARK    1  A    between atoms: O1_2  and  C2_3 
REMARK    2  A    between atoms: C2_3  and  O2_20 
REMARK    3  A    between atoms: C3_4  and  C4_5 
REMARK    4  A    between atoms: C6_9  and  N3_10 
REMARK    5  A    between atoms: O2_20  and  C15_21 
REMARK    6  A    between atoms: C15_21  and  C16_22 
REMARK    7  A    between atoms: C16_22  and  N4_23 
REMARK    8  A    between atoms: N4_23  and  C17_24 
ROOT
HETATM    1  C4  UNL     1      23.906   2.691  51.995  1.00  0.00     0.072 A 
HETATM    2  N1  UNL     1      22.601   2.318  52.152  1.00  0.00    -0.241 NA
HETATM    3  C5  UNL     1      22.276   1.153  52.705  1.00  0.00     0.235 A 
HETATM    4  N2  UNL     1      23.253   0.350  53.108  1.00  0.00    -0.224 NA
HETATM    5  C6  UNL     1      24.550   0.646  52.988  1.00  0.00     0.135 A 
HETATM    6  C13 UNL     1      24.905   1.845  52.417  1.00  0.00     0.013 A 
HETATM    7  C14 UNL     1      26.350   2.092  52.323  1.00  0.00     0.055 C 
ENDROOT
BRANCH   1   8
HETATM    8  C3  UNL     1      24.259   3.973  51.416  1.00  0.00     0.096 C 
HETATM    9  C2  UNL     1      24.865   4.603  50.442  1.00  0.00     0.182 C 
BRANCH   9  10
HETATM   10  O1  UNL     1      24.959   5.997  50.278  1.00  0.00    -0.336 OA
HETATM   11  C1  UNL     1      24.217   6.786  51.189  1.00  0.00     0.212 C 
ENDBRANCH   9  10
BRANCH   9  12
HETATM   12  O2  UNL     1      25.587   4.630  49.284  1.00  0.00    -0.329 OA
BRANCH  12  13
HETATM   13  C15 UNL     1      26.918   4.098  49.215  1.00  0.00     0.207 C 
BRANCH  13  14
HETATM   14  C16 UNL     1      27.848   5.083  48.549  1.00  0.00     0.297 C 
BRANCH  14  15
HETATM   15  N4  UNL     1      27.758   6.396  49.138  1.00  0.00     0.094 N 
HETATM   16  H20 UNL     1      28.509   6.455  49.879  1.00  0.00     0.316 HD
BRANCH  15  17
HETATM   17  C17 UNL     1      28.003   7.462  48.227  1.00  0.00     0.147 C 
HETATM   18  C18 UNL     1      29.057   7.217  47.195  1.00  0.00     0.048 C 
HETATM   19  C19 UNL     1      26.712   7.784  47.498  1.00  0.00     0.048 C 
HETATM   20  C20 UNL     1      28.374   8.762  48.953  1.00  0.00     0.048 C 
ENDBRANCH  15  17
ENDBRANCH  14  15
ENDBRANCH  13  14
ENDBRANCH  12  13
ENDBRANCH   9  12
ENDBRANCH   1   8
BRANCH   5  21
HETATM   21  N3  UNL     1      25.372  -0.400  53.516  1.00  0.00    -0.358 N 
HETATM   22  C7  UNL     1      26.000  -1.301  52.559  1.00  0.00     0.152 C 
HETATM   23  C8  UNL     1      27.496  -1.108  52.581  1.00  0.00    -0.004 C 
HETATM   24  C9  UNL     1      28.295  -0.488  53.448  1.00  0.00     0.039 C 
HETATM   25  C10 UNL     1      27.957   0.224  54.690  1.00  0.00     0.114 C 
HETATM   26  F1  UNL     1      29.029   0.959  55.136  1.00  0.00    -0.206 F 
HETATM   27  C11 UNL     1      26.806   0.210  55.349  1.00  0.00     0.035 C 
HETATM   28  C12 UNL     1      25.583  -0.565  54.933  1.00  0.00     0.155 C 
ENDBRANCH   5  21
TORSDOF 8
ENDMDL
MODEL 4
REMARK VINA RESULT:      -7.1      1.578      2.145
REMARK  8 active torsions:
REMARK  status: ('A' for Active; 'I' for Inactive)
REMARK    1  A    between atoms: O1_2  and  C2_3 
REMARK    2  A    between atoms: C2_3  and  O2_20 
REMARK    3  A    between atoms: C3_4  and  C4_5 
REMARK    4  A    between atoms: C6_9  and  N3_10 
REMARK    5  A    between atoms: O2_20  and  C15_21 
REMARK    6  A    between atoms: C15_21  and  C16_22 
REMARK    7  A    between atoms: C16_22  and  N4_23 
REMARK    8  A    between atoms: N4_23  and  C17_24 
ROOT
HETATM    1  C4  UNL     1      21.898  -0.306  53.803  1.00  0.00     0.072 A 
HETATM    2  N1  UNL     1      21.716  -1.109  54.893  1.00  0.00    -0.241 NA
HETATM    3  C5  UNL     1      22.749  -1.580  55.585  1.00  0.00     0.235 A 
HETATM    4  N2  UNL     1      23.974  -1.252  55.195  1.00  0.00    -0.224 NA
HETATM    5  C6  UNL     1      24.230  -0.472  54.142  1.00  0.00     0.135 A 
HETATM    6  C13 UNL     1      23.175   0.023  53.413  1.00  0.00     0.013 A 
HETATM    7  C14 UNL     1      23.544   0.871  52.272  1.00  0.00     0.055 C 
ENDROOT
BRANCH   1   8
HETATM    8  C3  UNL     1      20.770   0.230  53.064  1.00  0.00     0.096 C 
HETATM    9  C2  UNL     1      20.108   1.298  52.703  1.00  0.00     0.182 C 
BRANCH   9  10
HETATM   10  O1  UNL     1      18.954   1.336  51.900  1.00  0.00    -0.336 OA
HETATM   11  C1  UNL     1      18.529   0.100  51.356  1.00  0.00     0.212 C 
ENDBRANCH   9  10
BRANCH   9  12
HETATM   12  O2  UNL     1      19.906   2.648  52.690  1.00  0.00    -0.329 OA
BRANCH  12  13
HETATM   13  C15 UNL     1      20.950   3.562  52.324  1.00  0.00     0.207 C 
BRANCH  13  14
HETATM   14  C16 UNL     1      20.962   3.783  50.831  1.00  0.00     0.297 C 
BRANCH  14  15
HETATM   15  N4  UNL     1      22.253   4.218  50.358  1.00  0.00     0.094 N 
HETATM   16  H20 UNL     1      22.929   4.110  51.162  1.00  0.00     0.316 HD
BRANCH  15  17
HETATM   17  C17 UNL     1      22.772   3.442  49.283  1.00  0.00     0.147 C 
HETATM   18  C18 UNL     1      22.145   2.100  49.077  1.00  0.00     0.048 C 
HETATM   19  C19 UNL     1      22.611   4.228  47.995  1.00  0.00     0.048 C 
HETATM   20  C20 UNL     1      24.284   3.220  49.417  1.00  0.00     0.048 C 
ENDBRANCH  15  17
ENDBRANCH  14  15
ENDBRANCH  13  14
ENDBRANCH  12  13
ENDBRANCH   9  12
ENDBRANCH   1   8
BRANCH   5  21
HETATM   21  N3  UNL     1      25.638  -0.282  53.968  1.00  0.00    -0.358 N 
HETATM   22  C7  UNL     1      26.330  -1.206  53.079  1.00  0.00     0.152 C 
HETATM   23  C8  UNL     1      26.817  -0.471  51.855  1.00  0.00    -0.004 C 
HETATM   24  C9  UNL     1      26.940   0.829  51.595  1.00  0.00     0.039 C 
HETATM   25  C10 UNL     1      26.629   1.988  52.446  1.00  0.00     0.114 C 
HETATM   26  F1  UNL     1      26.628   3.147  51.707  1.00  0.00    -0.206 F 
HETATM   27  C11 UNL     1      26.374   1.998  53.747  1.00  0.00     0.035 C 
HETATM   28  C12 UNL     1      26.355   0.779  54.632  1.00  0.00     0.155 C 
ENDBRANCH   5  21
TORSDOF 8
ENDMDL
MODEL 5
REMARK VINA RESULT:      -7.0      2.864      4.250
REMARK  8 active torsions:
REMARK  status: ('A' for Active; 'I' for Inactive)
REMARK    1  A    between atoms: O1_2  and  C2_3 
REMARK    2  A    between atoms: C2_3  and  O2_20 
REMARK    3  A    between atoms: C3_4  and  C4_5 
REMARK    4  A    between atoms: C6_9  and  N3_10 
REMARK    5  A    between atoms: O2_20  and  C15_21 
REMARK    6  A    between atoms: C15_21  and  C16_22 
REMARK    7  A    between atoms: C16_22  and  N4_23 
REMARK    8  A    between atoms: N4_23  and  C17_24 
ROOT
HETATM    1  C4  UNL     1      21.726  -1.144  54.144  1.00  0.00     0.072 A 
HETATM    2  N1  UNL     1      22.216  -1.642  55.318  1.00  0.00    -0.241 NA
HETATM    3  C5  UNL     1      23.493  -1.493  55.653  1.00  0.00     0.235 A 
HETATM    4  N2  UNL     1      24.294  -0.842  54.819  1.00  0.00    -0.224 NA
HETATM    5  C6  UNL     1      23.888  -0.327  53.655  1.00  0.00     0.135 A 
HETATM    6  C13 UNL     1      22.571  -0.473  53.291  1.00  0.00     0.013 A 
HETATM    7  C14 UNL     1      22.207   0.121  51.998  1.00  0.00     0.055 C 
ENDROOT
BRANCH   1   8
HETATM    8  C3  UNL     1      20.326  -1.285  53.791  1.00  0.00     0.096 C 
HETATM    9  C2  UNL     1      19.287  -0.747  53.207  1.00  0.00     0.182 C 
BRANCH   9  10
HETATM   10  O1  UNL     1      18.001  -1.309  53.102  1.00  0.00    -0.336 OA
HETATM   11  C1  UNL     1      17.843  -2.613  53.629  1.00  0.00     0.212 C 
ENDBRANCH   9  10
BRANCH   9  12
HETATM   12  O2  UNL     1      18.675   0.258  52.514  1.00  0.00    -0.329 OA
BRANCH  12  13
HETATM   13  C15 UNL     1      18.575   0.233  51.083  1.00  0.00     0.207 C 
BRANCH  13  14
HETATM   14  C16 UNL     1      18.845   1.603  50.509  1.00  0.00     0.297 C 
BRANCH  14  15
HETATM   15  N4  UNL     1      19.120   1.554  49.095  1.00  0.00     0.094 N 
HETATM   16  H20 UNL     1      18.320   2.041  48.607  1.00  0.00     0.316 HD
BRANCH  15  17
HETATM   17  C17 UNL     1      20.308   2.237  48.707  1.00  0.00     0.147 C 
HETATM   18  C18 UNL     1      20.252   2.966  47.403  1.00  0.00     0.048 C 
HETATM   19  C19 UNL     1      20.660   3.247  49.784  1.00  0.00     0.048 C 
HETATM   20  C20 UNL     1      21.517   1.294  48.648  1.00  0.00     0.048 C 
ENDBRANCH  15  17
ENDBRANCH  14  15
ENDBRANCH  13  14
ENDBRANCH  12  13
ENDBRANCH   9  12
ENDBRANCH   1   8
BRANCH   5  21
HETATM   21  N3  UNL     1      24.964   0.326  52.974  1.00  0.00    -0.358 N 
HETATM   22  C7  UNL     1      25.124   1.756  53.197  1.00  0.00     0.152 C 
HETATM   23  C8  UNL     1      26.406   2.017  53.947  1.00  0.00    -0.004 C 
HETATM   24  C9  UNL     1      27.462   1.242  54.190  1.00  0.00     0.039 C 
HETATM   25  C10 UNL     1      27.713  -0.152  53.789  1.00  0.00     0.114 C 
HETATM   26  F1  UNL     1      28.785  -0.669  54.477  1.00  0.00    -0.206 F 
HETATM   27  C11 UNL     1      27.047  -0.876  52.900  1.00  0.00     0.035 C 
HETATM   28  C12 UNL     1      25.865  -0.390  52.103  1.00  0.00     0.155 C 
ENDBRANCH   5  21
TORSDOF 8
ENDMDL
MODEL 6
REMARK VINA RESULT:      -6.9      2.095      4.548
REMARK  8 active torsions:
REMARK  status: ('A' for Active; 'I' for Inactive)
REMARK    1  A    between atoms: O1_2  and  C2_3 
REMARK    2  A    between atoms: C2_3  and  O2_20 
REMARK    3  A    between atoms: C3_4  and  C4_5 
REMARK    4  A    between atoms: C6_9  and  N3_10 
REMARK    5  A    between atoms: O2_20  and  C15_21 
REMARK    6  A    between atoms: C15_21  and  C16_22 
REMARK    7  A    between atoms: C16_22  and  N4_23 
REMARK    8  A    between atoms: N4_23  and  C17_24 
ROOT
HETATM    1  C4  UNL     1      24.499   2.981  51.326  1.00  0.00     0.072 A 
HETATM    2  N1  UNL     1      25.635   3.364  50.672  1.00  0.00    -0.241 NA
HETATM    3  C5  UNL     1      26.804   2.778  50.916  1.00  0.00     0.235 A 
HETATM    4  N2  UNL     1      26.847   1.802  51.815  1.00  0.00    -0.224 NA
HETATM    5  C6  UNL     1      25.779   1.374  52.493  1.00  0.00     0.135 A 
HETATM    6  C13 UNL     1      24.563   1.969  52.255  1.00  0.00     0.013 A 
HETATM    7  C14 UNL     1      23.441   1.440  53.042  1.00  0.00     0.055 C 
ENDROOT
BRANCH   1   8
HETATM    8  C3  UNL     1      23.219   3.602  51.041  1.00  0.00     0.096 C 
HETATM    9  C2  UNL     1      22.167   3.632  50.263  1.00  0.00     0.182 C 
BRANCH   9  10
HETATM   10  O1  UNL     1      21.063   4.495  50.382  1.00  0.00    -0.336 OA
HETATM   11  C1  UNL     1      21.325   5.776  50.924  1.00  0.00     0.212 C 
ENDBRANCH   9  10
BRANCH   9  12
HETATM   12  O2  UNL     1      21.437   3.185  49.200  1.00  0.00    -0.329 OA
BRANCH  12  13
HETATM   13  C15 UNL     1      21.345   1.788  48.884  1.00  0.00     0.207 C 
BRANCH  13  14
HETATM   14  C16 UNL     1      20.221   1.143  49.657  1.00  0.00     0.297 C 
BRANCH  14  15
HETATM   15  N4  UNL     1      20.700   0.412  50.803  1.00  0.00     0.094 N 
HETATM   16  H20 UNL     1      21.609   0.862  51.099  1.00  0.00     0.316 HD
BRANCH  15  17
HETATM   17  C17 UNL     1      19.835   0.463  51.932  1.00  0.00     0.147 C 
HETATM   18  C18 UNL     1      20.242  -0.362  53.112  1.00  0.00     0.048 C 
HETATM   19  C19 UNL     1      19.727   1.904  52.395  1.00  0.00     0.048 C 
HETATM   20  C20 UNL     1      18.399   0.061  51.572  1.00  0.00     0.048 C 
ENDBRANCH  15  17
ENDBRANCH  14  15
ENDBRANCH  13  14
ENDBRANCH  12  13
ENDBRANCH   9  12
ENDBRANCH   1   8
BRANCH   5  21
HETATM   21  N3  UNL     1      26.124   0.308  53.383  1.00  0.00    -0.358 N 
HETATM   22  C7  UNL     1      25.839  -1.049  52.939  1.00  0.00     0.152 C 
HETATM   23  C8  UNL     1      27.131  -1.795  52.712  1.00  0.00    -0.004 C 
HETATM   24  C9  UNL     1      28.384  -1.524  53.074  1.00  0.00     0.039 C 
HETATM   25  C10 UNL     1      28.913  -0.378  53.830  1.00  0.00     0.114 C 
HETATM   26  F1  UNL     1      30.284  -0.332  53.744  1.00  0.00    -0.206 F 
HETATM   27  C11 UNL     1      28.233   0.527  54.521  1.00  0.00     0.035 C 
HETATM   28  C12 UNL     1      26.733   0.551  54.668  1.00  0.00     0.155 C 
ENDBRANCH   5  21
TORSDOF 8
ENDMDL
MODEL 7
REMARK VINA RESULT:      -6.9      2.320      3.559
REMARK  8 active torsions:
REMARK  status: ('A' for Active; 'I' for Inactive)
REMARK    1  A    between atoms: O1_2  and  C2_3 
REMARK    2  A    between atoms: C2_3  and  O2_20 
REMARK    3  A    between atoms: C3_4  and  C4_5 
REMARK    4  A    between atoms: C6_9  and  N3_10 
REMARK    5  A    between atoms: O2_20  and  C15_21 
REMARK    6  A    between atoms: C15_21  and  C16_22 
REMARK    7  A    between atoms: C16_22  and  N4_23 
REMARK    8  A    between atoms: N4_23  and  C17_24 
ROOT
HETATM    1  C4  UNL     1      24.296   2.149  51.571  1.00  0.00     0.072 A 
HETATM    2  N1  UNL     1      25.314   2.724  50.865  1.00  0.00    -0.241 NA
HETATM    3  C5  UNL     1      26.576   2.345  51.038  1.00  0.00     0.235 A 
HETATM    4  N2  UNL     1      26.834   1.386  51.918  1.00  0.00    -0.224 NA
HETATM    5  C6  UNL     1      25.892   0.777  52.644  1.00  0.00     0.135 A 
HETATM    6  C13 UNL     1      24.582   1.157  52.480  1.00  0.00     0.013 A 
HETATM    7  C14 UNL     1      23.611   0.439  53.316  1.00  0.00     0.055 C 
ENDROOT
BRANCH   1   8
HETATM    8  C3  UNL     1      22.916   2.544  51.362  1.00  0.00     0.096 C 
HETATM    9  C2  UNL     1      22.096   3.473  50.941  1.00  0.00     0.182 C 
BRANCH   9  10
HETATM   10  O1  UNL     1      20.691   3.408  50.932  1.00  0.00    -0.336 OA
HETATM   11  C1  UNL     1      20.077   2.970  52.129  1.00  0.00     0.212 C 
ENDBRANCH   9  10
BRANCH   9  12
HETATM   12  O2  UNL     1      21.834   4.700  50.404  1.00  0.00    -0.329 OA
BRANCH  12  13
HETATM   13  C15 UNL     1      22.850   5.465  49.740  1.00  0.00     0.207 C 
BRANCH  13  14
HETATM   14  C16 UNL     1      23.203   4.838  48.414  1.00  0.00     0.297 C 
BRANCH  14  15
HETATM   15  N4  UNL     1      22.135   4.963  47.453  1.00  0.00     0.094 N 
HETATM   16  H20 UNL     1      22.527   5.484  46.622  1.00  0.00     0.316 HD
BRANCH  15  17
HETATM   17  C17 UNL     1      21.645   3.721  46.960  1.00  0.00     0.147 C 
HETATM   18  C18 UNL     1      20.214   3.410  47.265  1.00  0.00     0.048 C 
HETATM   19  C19 UNL     1      21.807   3.700  45.451  1.00  0.00     0.048 C 
HETATM   20  C20 UNL     1      22.482   2.536  47.458  1.00  0.00     0.048 C 
ENDBRANCH  15  17
ENDBRANCH  14  15
ENDBRANCH  13  14
ENDBRANCH  12  13
ENDBRANCH   9  12
ENDBRANCH   1   8
BRANCH   5  21
HETATM   21  N3  UNL     1      26.461  -0.220  53.499  1.00  0.00    -0.358 N 
HETATM   22  C7  UNL     1      26.435  -1.597  53.025  1.00  0.00     0.152 C 
HETATM   23  C8  UNL     1      27.841  -2.071  52.752  1.00  0.00    -0.004 C 
HETATM   24  C9  UNL     1      29.026  -1.568  53.094  1.00  0.00     0.039 C 
HETATM   25  C10 UNL     1      29.342  -0.357  53.868  1.00  0.00     0.114 C 
HETATM   26  F1  UNL     1      30.675  -0.042  53.754  1.00  0.00    -0.206 F 
HETATM   27  C11 UNL     1      28.516   0.382  54.596  1.00  0.00     0.035 C 
HETATM   28  C12 UNL     1      27.045   0.110  54.776  1.00  0.00     0.155 C 
ENDBRANCH   5  21
TORSDOF 8
ENDMDL
MODEL 8
REMARK VINA RESULT:      -6.7      2.721      5.817
REMARK  8 active torsions:
REMARK  status: ('A' for Active; 'I' for Inactive)
REMARK    1  A    between atoms: O1_2  and  C2_3 
REMARK    2  A    between atoms: C2_3  and  O2_20 
REMARK    3  A    between atoms: C3_4  and  C4_5 
REMARK    4  A    between atoms: C6_9  and  N3_10 
REMARK    5  A    between atoms: O2_20  and  C15_21 
REMARK    6  A    between atoms: C15_21  and  C16_22 
REMARK    7  A    between atoms: C16_22  and  N4_23 
REMARK    8  A    between atoms: N4_23  and  C17_24 
ROOT
HETATM    1  C4  UNL     1      22.402   1.595  50.673  1.00  0.00     0.072 A 
HETATM    2  N1  UNL     1      22.131   1.568  49.334  1.00  0.00    -0.241 NA
HETATM    3  C5  UNL     1      22.766   2.370  48.484  1.00  0.00     0.235 A 
HETATM    4  N2  UNL     1      23.678   3.206  48.965  1.00  0.00    -0.224 NA
HETATM    5  C6  UNL     1      23.996   3.289  50.259  1.00  0.00     0.135 A 
HETATM    6  C13 UNL     1      23.349   2.469  51.152  1.00  0.00     0.013 A 
HETATM    7  C14 UNL     1      23.757   2.624  52.555  1.00  0.00     0.055 C 
ENDROOT
BRANCH   1   8
HETATM    8  C3  UNL     1      21.729   0.701  51.596  1.00  0.00     0.096 C 
HETATM    9  C2  UNL     1      21.852  -0.267  52.467  1.00  0.00     0.182 C 
BRANCH   9  10
HETATM   10  O1  UNL     1      20.813  -0.883  53.188  1.00  0.00    -0.336 OA
HETATM   11  C1  UNL     1      19.562  -0.221  53.170  1.00  0.00     0.212 C 
ENDBRANCH   9  10
BRANCH   9  12
HETATM   12  O2  UNL     1      22.595  -1.164  53.180  1.00  0.00    -0.329 OA
BRANCH  12  13
HETATM   13  C15 UNL     1      23.554  -0.737  54.159  1.00  0.00     0.207 C 
BRANCH  13  14
HETATM   14  C16 UNL     1      24.927  -0.631  53.544  1.00  0.00     0.297 C 
BRANCH  14  15
HETATM   15  N4  UNL     1      25.814   0.186  54.335  1.00  0.00     0.094 N 
HETATM   16  H20 UNL     1      25.898  -0.276  55.281  1.00  0.00     0.316 HD
BRANCH  15  17
HETATM   17  C17 UNL     1      27.135   0.288  53.814  1.00  0.00     0.147 C 
HETATM   18  C18 UNL     1      27.499  -0.695  52.747  1.00  0.00     0.048 C 
HETATM   19  C19 UNL     1      27.324   1.680  53.241  1.00  0.00     0.048 C 
HETATM   20  C20 UNL     1      28.195   0.173  54.916  1.00  0.00     0.048 C 
ENDBRANCH  15  17
ENDBRANCH  14  15
ENDBRANCH  13  14
ENDBRANCH  12  13
ENDBRANCH   9  12
ENDBRANCH   1   8
BRANCH   5  21
HETATM   21  N3  UNL     1      25.016   4.268  50.480  1.00  0.00    -0.358 N 
HETATM   22  C7  UNL     1      26.398   3.841  50.306  1.00  0.00     0.152 C 
HETATM   23  C8  UNL     1      27.003   4.540  49.114  1.00  0.00    -0.004 C 
HETATM   24  C9  UNL     1      26.599   5.595  48.409  1.00  0.00     0.039 C 
HETATM   25  C10 UNL     1      25.401   6.432  48.578  1.00  0.00     0.114 C 
HETATM   26  F1  UNL     1      25.210   7.234  47.478  1.00  0.00    -0.206 F 
HETATM   27  C11 UNL     1      24.571   6.467  49.612  1.00  0.00     0.035 C 
HETATM   28  C12 UNL     1      24.705   5.626  50.854  1.00  0.00     0.155 C 
ENDBRANCH   5  21
TORSDOF 8
ENDMDL
MODEL 9
REMARK VINA RESULT:      -6.7      3.191      7.244
REMARK  8 active torsions:
REMARK  status: ('A' for Active; 'I' for Inactive)
REMARK    1  A    between atoms: O1_2  and  C2_3 
REMARK    2  A    between atoms: C2_3  and  O2_20 
REMARK    3  A    between atoms: C3_4  and  C4_5 
REMARK    4  A    between atoms: C6_9  and  N3_10 
REMARK    5  A    between atoms: O2_20  and  C15_21 
REMARK    6  A    between atoms: C15_21  and  C16_22 
REMARK    7  A    between atoms: C16_22  and  N4_23 
REMARK    8  A    between atoms: N4_23  and  C17_24 
ROOT
HETATM    1  C4  UNL     1      26.085   2.587  51.683  1.00  0.00     0.072 A 
HETATM    2  N1  UNL     1      26.934   2.740  50.625  1.00  0.00    -0.241 NA
HETATM    3  C5  UNL     1      26.528   3.297  49.487  1.00  0.00     0.235 A 
HETATM    4  N2  UNL     1      25.269   3.707  49.398  1.00  0.00    -0.224 NA
HETATM    5  C6  UNL     1      24.382   3.592  50.390  1.00  0.00     0.135 A 
HETATM    6  C13 UNL     1      24.783   3.018  51.572  1.00  0.00     0.013 A 
HETATM    7  C14 UNL     1      23.747   2.929  52.610  1.00  0.00     0.055 C 
ENDROOT
BRANCH   1   8
HETATM    8  C3  UNL     1      26.535   2.004  52.933  1.00  0.00     0.096 C 
HETATM    9  C2  UNL     1      26.596   0.932  53.680  1.00  0.00     0.182 C 
BRANCH   9  10
HETATM   10  O1  UNL     1      27.192   0.828  54.950  1.00  0.00    -0.336 OA
HETATM   11  C1  UNL     1      28.517   0.332  54.981  1.00  0.00     0.212 C 
ENDBRANCH   9  10
BRANCH   9  12
HETATM   12  O2  UNL     1      26.341  -0.387  53.924  1.00  0.00    -0.329 OA
BRANCH  12  13
HETATM   13  C15 UNL     1      25.114  -0.818  54.530  1.00  0.00     0.207 C 
BRANCH  13  14
HETATM   14  C16 UNL     1      23.968  -0.688  53.556  1.00  0.00     0.297 C 
BRANCH  14  15
HETATM   15  N4  UNL     1      22.895   0.115  54.086  1.00  0.00     0.094 N 
HETATM   16  H20 UNL     1      23.031   1.095  53.716  1.00  0.00     0.316 HD
BRANCH  15  17
HETATM   17  C17 UNL     1      21.597  -0.299  53.671  1.00  0.00     0.147 C 
HETATM   18  C18 UNL     1      21.220  -1.709  53.998  1.00  0.00     0.048 C 
HETATM   19  C19 UNL     1      20.569   0.613  54.315  1.00  0.00     0.048 C 
HETATM   20  C20 UNL     1      21.391  -0.112  52.163  1.00  0.00     0.048 C 
ENDBRANCH  15  17
ENDBRANCH  14  15
ENDBRANCH  13  14
ENDBRANCH  12  13
ENDBRANCH   9  12
ENDBRANCH   1   8
BRANCH   5  21
HETATM   21  N3  UNL     1      23.110   4.129  50.012  1.00  0.00    -0.358 N 
HETATM   22  C7  UNL     1      22.990   5.579  49.954  1.00  0.00     0.152 C 
HETATM   23  C8  UNL     1      22.783   6.019  48.527  1.00  0.00    -0.004 C 
HETATM   24  C9  UNL     1      22.455   5.338  47.430  1.00  0.00     0.039 C 
HETATM   25  C10 UNL     1      22.186   3.901  47.265  1.00  0.00     0.114 C 
HETATM   26  F1  UNL     1      22.164   3.560  45.934  1.00  0.00    -0.206 F 
HETATM   27  C11 UNL     1      21.981   2.997  48.214  1.00  0.00     0.035 C 
HETATM   28  C12 UNL     1      21.987   3.282  49.693  1.00  0.00     0.155 C 
ENDBRANCH   5  21
TORSDOF 8
ENDMDL
