MODEL 1
REMARK VINA RESULT:      -8.4      0.000      0.000
REMARK  4 active torsions:
REMARK  status: ('A' for Active; 'I' for Inactive)
REMARK    1  A    between atoms: C3_3  and  C4_4 
REMARK    2  A    between atoms: C4_4  and  C5_5 
REMARK    3  A    between atoms: C18_21  and  C19_22 
REMARK    4  A    between atoms: C19_22  and  O4_24 
ROOT
HETATM    1  C5  UNL     1      26.191  -0.432  53.962  1.00  0.00     0.194 C 
HETATM    2  O1  UNL     1      26.028  -0.344  55.343  1.00  0.00    -0.376 OA
HETATM    3  C6  UNL     1      25.051  -1.205  55.817  1.00  0.00     0.195 C 
HETATM    4  C7  UNL     1      23.651  -0.821  55.376  1.00  0.00     0.194 C 
HETATM    5  O2  UNL     1      23.370  -0.786  54.170  1.00  0.00    -0.385 OA
HETATM    6  C8  UNL     1      23.087  -0.750  52.955  1.00  0.00     0.202 C 
HETATM    7  C9  UNL     1      22.821   0.665  52.427  1.00  0.00    -0.051 C 
HETATM    8  C10 UNL     1      21.615   1.056  52.867  1.00  0.00     0.005 C 
HETATM    9  C11 UNL     1      20.997   2.344  52.578  1.00  0.00     0.001 C 
HETATM   10  C12 UNL     1      21.450   3.504  52.070  1.00  0.00     0.008 C 
HETATM   11  C13 UNL     1      22.834   3.651  51.678  1.00  0.00    -0.038 C 
HETATM   12  C14 UNL     1      23.163   4.914  51.346  1.00  0.00    -0.017 C 
HETATM   13  C15 UNL     1      22.325   6.161  51.321  1.00  0.00     0.308 C 
HETATM   14  N1  UNL     1      23.522   6.988  51.396  1.00  0.00     0.092 N 
HETATM   15  C16 UNL     1      23.569   8.088  50.456  1.00  0.00     0.310 C 
HETATM   16  C17 UNL     1      24.256   5.844  50.878  1.00  0.00     0.308 C 
HETATM   17  C18 UNL     1      23.979   2.761  51.556  1.00  0.00     0.127 C 
HETATM   18  C21 UNL     1      23.824   1.326  51.582  1.00  0.00     0.042 C 
HETATM   19  C22 UNL     1      25.190   0.696  51.925  1.00  0.00     0.091 C 
HETATM   20  C23 UNL     1      25.438   0.736  53.368  1.00  0.00     0.156 C 
HETATM   21  O5  UNL     1      25.048   1.666  54.097  1.00  0.00    -0.295 OA
ENDROOT
BRANCH  17  22
HETATM   22  C19 UNL     1      24.660   3.097  50.241  1.00  0.00     0.267 C 
HETATM   23  O3  UNL     1      24.461   3.240  49.003  1.00  0.00    -0.264 OA
BRANCH  22  24
HETATM   24  O4  UNL     1      26.038   3.361  50.397  1.00  0.00    -0.326 OA
HETATM   25  C20 UNL     1      26.807   3.855  49.318  1.00  0.00     0.213 C 
ENDBRANCH  22  24
ENDBRANCH  17  22
BRANCH   1  26
HETATM   26  C4  UNL     1      27.594  -0.522  53.534  1.00  0.00     0.066 C 
BRANCH  26  27
HETATM   27  C3  UNL     1      28.582   0.080  54.434  1.00  0.00    -0.028 C 
HETATM   28  C2  UNL     1      29.072   1.311  54.503  1.00  0.00    -0.035 C 
HETATM   29  C1  UNL     1      28.660   2.402  53.582  1.00  0.00     0.036 C 
ENDBRANCH  26  27
ENDBRANCH   1  26
TORSDOF 4
ENDMDL
MODEL 2
REMARK VINA RESULT:      -7.8      2.458      4.511
REMARK  4 active torsions:
REMARK  status: ('A' for Active; 'I' for Inactive)
REMARK    1  A    between atoms: C3_3  and  C4_4 
REMARK    2  A    between atoms: C4_4  and  C5_5 
REMARK    3  A    between atoms: C18_21  and  C19_22 
REMARK    4  A    between atoms: C19_22  and  O4_24 
ROOT
HETATM    1  C5  UNL     1      25.341  -0.380  54.339  1.00  0.00     0.194 C 
HETATM    2  O1  UNL     1      26.035  -1.453  53.785  1.00  0.00    -0.376 OA
HETATM    3  C6  UNL     1      27.404  -1.239  53.753  1.00  0.00     0.195 C 
HETATM    4  C7  UNL     1      27.816  -0.148  52.782  1.00  0.00     0.194 C 
HETATM    5  O2  UNL     1      27.399   1.009  52.938  1.00  0.00    -0.385 OA
HETATM    6  C8  UNL     1      26.980   2.173  53.095  1.00  0.00     0.202 C 
HETATM    7  C9  UNL     1      26.000   2.626  52.005  1.00  0.00    -0.051 C 
HETATM    8  C10 UNL     1      26.702   2.875  50.889  1.00  0.00     0.005 C 
HETATM    9  C11 UNL     1      26.133   3.331  49.627  1.00  0.00     0.001 C 
HETATM   10  C12 UNL     1      24.881   3.402  49.140  1.00  0.00     0.008 C 
HETATM   11  C13 UNL     1      23.751   2.965  49.930  1.00  0.00    -0.038 C 
HETATM   12  C14 UNL     1      22.594   2.946  49.242  1.00  0.00    -0.017 C 
HETATM   13  C15 UNL     1      22.310   3.304  47.810  1.00  0.00     0.308 C 
HETATM   14  N1  UNL     1      21.085   2.516  47.838  1.00  0.00     0.092 N 
HETATM   15  C16 UNL     1      19.918   3.172  47.287  1.00  0.00     0.310 C 
HETATM   16  C17 UNL     1      21.113   2.658  49.285  1.00  0.00     0.308 C 
HETATM   17  C18 UNL     1      23.552   2.530  51.304  1.00  0.00     0.127 C 
HETATM   18  C21 UNL     1      24.567   2.727  52.312  1.00  0.00     0.042 C 
HETATM   19  C22 UNL     1      24.286   1.759  53.480  1.00  0.00     0.091 C 
HETATM   20  C23 UNL     1      24.786   0.416  53.180  1.00  0.00     0.156 C 
HETATM   21  O5  UNL     1      24.781  -0.069  52.033  1.00  0.00    -0.295 OA
ENDROOT
BRANCH  17  22
HETATM   22  C19 UNL     1      22.302   3.228  51.810  1.00  0.00     0.267 C 
HETATM   23  O3  UNL     1      21.105   3.035  52.162  1.00  0.00    -0.264 OA
BRANCH  22  24
HETATM   24  O4  UNL     1      22.484   4.618  51.968  1.00  0.00    -0.326 OA
HETATM   25  C20 UNL     1      21.526   5.534  51.477  1.00  0.00     0.213 C 
ENDBRANCH  22  24
ENDBRANCH  17  22
BRANCH   1  26
HETATM   26  C4  UNL     1      24.333  -0.773  55.333  1.00  0.00     0.066 C 
BRANCH  26  27
HETATM   27  C3  UNL     1      23.241  -1.621  54.843  1.00  0.00    -0.028 C 
HETATM   28  C2  UNL     1      21.966  -1.353  54.595  1.00  0.00    -0.035 C 
HETATM   29  C1  UNL     1      21.364  -0.009  54.794  1.00  0.00     0.036 C 
ENDBRANCH  26  27
ENDBRANCH   1  26
TORSDOF 4
ENDMDL
MODEL 3
REMARK VINA RESULT:      -7.7      3.127      7.681
REMARK  4 active torsions:
REMARK  status: ('A' for Active; 'I' for Inactive)
REMARK    1  A    between atoms: C3_3  and  C4_4 
REMARK    2  A    between atoms: C4_4  and  C5_5 
REMARK    3  A    between atoms: C18_21  and  C19_22 
REMARK    4  A    between atoms: C19_22  and  O4_24 
ROOT
HETATM    1  C5  UNL     1      22.865   7.111  49.992  1.00  0.00     0.194 C 
HETATM    2  O1  UNL     1      23.520   7.956  50.885  1.00  0.00    -0.376 OA
HETATM    3  C6  UNL     1      24.759   8.364  50.417  1.00  0.00     0.195 C 
HETATM    4  C7  UNL     1      25.774   7.237  50.351  1.00  0.00     0.194 C 
HETATM    5  O2  UNL     1      25.560   6.254  49.629  1.00  0.00    -0.385 OA
HETATM    6  C8  UNL     1      25.344   5.263  48.901  1.00  0.00     0.202 C 
HETATM    7  C9  UNL     1      25.090   3.969  49.683  1.00  0.00    -0.051 C 
HETATM    8  C10 UNL     1      26.263   3.537  50.170  1.00  0.00     0.005 C 
HETATM    9  C11 UNL     1      26.444   2.333  50.971  1.00  0.00     0.001 C 
HETATM   10  C12 UNL     1      25.602   1.506  51.616  1.00  0.00     0.008 C 
HETATM   11  C13 UNL     1      24.174   1.739  51.599  1.00  0.00    -0.038 C 
HETATM   12  C14 UNL     1      23.490   0.923  52.423  1.00  0.00    -0.017 C 
HETATM   13  C15 UNL     1      23.978  -0.167  53.335  1.00  0.00     0.308 C 
HETATM   14  N1  UNL     1      22.757  -0.077  54.124  1.00  0.00     0.092 N 
HETATM   15  C16 UNL     1      22.129  -1.345  54.431  1.00  0.00     0.310 C 
HETATM   16  C17 UNL     1      22.135   0.531  52.958  1.00  0.00     0.308 C 
HETATM   17  C18 UNL     1      23.281   2.654  50.904  1.00  0.00     0.127 C 
HETATM   18  C21 UNL     1      23.727   3.428  49.770  1.00  0.00     0.042 C 
HETATM   19  C22 UNL     1      22.758   4.613  49.580  1.00  0.00     0.091 C 
HETATM   20  C23 UNL     1      23.076   5.705  50.503  1.00  0.00     0.156 C 
HETATM   21  O5  UNL     1      23.513   5.514  51.652  1.00  0.00    -0.295 OA
ENDROOT
BRANCH  17  22
HETATM   22  C19 UNL     1      22.096   1.833  50.425  1.00  0.00     0.267 C 
HETATM   23  O3  UNL     1      21.774   0.808  49.763  1.00  0.00    -0.264 OA
BRANCH  22  24
HETATM   24  O4  UNL     1      20.861   2.366  50.850  1.00  0.00    -0.326 OA
HETATM   25  C20 UNL     1      19.696   2.209  50.065  1.00  0.00     0.213 C 
ENDBRANCH  22  24
ENDBRANCH  17  22
BRANCH   1  26
HETATM   26  C4  UNL     1      21.457   7.463  49.766  1.00  0.00     0.066 C 
BRANCH  26  27
HETATM   27  C3  UNL     1      21.213   8.733  49.074  1.00  0.00    -0.028 C 
HETATM   28  C2  UNL     1      20.280   9.660  49.244  1.00  0.00    -0.035 C 
HETATM   29  C1  UNL     1      19.210   9.557  50.270  1.00  0.00     0.036 C 
ENDBRANCH  26  27
ENDBRANCH   1  26
TORSDOF 4
ENDMDL
MODEL 4
REMARK VINA RESULT:      -7.5      6.254      9.240
REMARK  4 active torsions:
REMARK  status: ('A' for Active; 'I' for Inactive)
REMARK    1  A    between atoms: C3_3  and  C4_4 
REMARK    2  A    between atoms: C4_4  and  C5_5 
REMARK    3  A    between atoms: C18_21  and  C19_22 
REMARK    4  A    between atoms: C19_22  and  O4_24 
ROOT
HETATM    1  C5  UNL     1      30.279   9.884  48.277  1.00  0.00     0.194 C 
HETATM    2  O1  UNL     1      31.000   9.728  49.459  1.00  0.00    -0.376 OA
HETATM    3  C6  UNL     1      31.933   8.707  49.379  1.00  0.00     0.195 C 
HETATM    4  C7  UNL     1      31.304   7.328  49.288  1.00  0.00     0.194 C 
HETATM    5  O2  UNL     1      30.564   7.048  48.335  1.00  0.00    -0.385 OA
HETATM    6  C8  UNL     1      29.820   6.765  47.374  1.00  0.00     0.202 C 
HETATM    7  C9  UNL     1      28.350   6.577  47.770  1.00  0.00    -0.051 C 
HETATM    8  C10 UNL     1      28.234   5.395  48.395  1.00  0.00     0.005 C 
HETATM    9  C11 UNL     1      26.991   4.847  48.925  1.00  0.00     0.001 C 
HETATM   10  C12 UNL     1      25.772   5.362  49.165  1.00  0.00     0.008 C 
HETATM   11  C13 UNL     1      25.486   6.752  48.885  1.00  0.00    -0.038 C 
HETATM   12  C14 UNL     1      24.280   7.149  49.334  1.00  0.00    -0.017 C 
HETATM   13  C15 UNL     1      23.213   6.380  50.062  1.00  0.00     0.308 C 
HETATM   14  N1  UNL     1      22.636   7.621  50.562  1.00  0.00     0.092 N 
HETATM   15  C16 UNL     1      21.198   7.726  50.430  1.00  0.00     0.310 C 
HETATM   16  C17 UNL     1      23.299   8.290  49.454  1.00  0.00     0.308 C 
HETATM   17  C18 UNL     1      26.190   7.846  48.234  1.00  0.00     0.127 C 
HETATM   18  C21 UNL     1      27.366   7.613  47.430  1.00  0.00     0.042 C 
HETATM   19  C22 UNL     1      28.137   8.942  47.301  1.00  0.00     0.091 C 
HETATM   20  C23 UNL     1      28.951   9.195  48.492  1.00  0.00     0.156 C 
HETATM   21  O5  UNL     1      28.599   8.858  49.637  1.00  0.00    -0.295 OA
ENDROOT
BRANCH  17  22
HETATM   22  C19 UNL     1      25.185   8.542  47.334  1.00  0.00     0.267 C 
HETATM   23  O3  UNL     1      24.581   9.634  47.141  1.00  0.00    -0.264 OA
BRANCH  22  24
HETATM   24  O4  UNL     1      24.709   7.704  46.303  1.00  0.00    -0.326 OA
HETATM   25  C20 UNL     1      23.467   7.959  45.677  1.00  0.00     0.213 C 
ENDBRANCH  22  24
ENDBRANCH  17  22
BRANCH   1  26
HETATM   26  C4  UNL     1      30.165  11.279  47.829  1.00  0.00     0.066 C 
BRANCH  26  27
HETATM   27  C3  UNL     1      29.754  12.250  48.847  1.00  0.00    -0.028 C 
HETATM   28  C2  UNL     1      28.600  12.871  49.052  1.00  0.00    -0.035 C 
HETATM   29  C1  UNL     1      27.404  12.667  48.194  1.00  0.00     0.036 C 
ENDBRANCH  26  27
ENDBRANCH   1  26
TORSDOF 4
ENDMDL
MODEL 5
REMARK VINA RESULT:      -7.3      2.919      5.293
REMARK  4 active torsions:
REMARK  status: ('A' for Active; 'I' for Inactive)
REMARK    1  A    between atoms: C3_3  and  C4_4 
REMARK    2  A    between atoms: C4_4  and  C5_5 
REMARK    3  A    between atoms: C18_21  and  C19_22 
REMARK    4  A    between atoms: C19_22  and  O4_24 
ROOT
HETATM    1  C5  UNL     1      22.120   0.595  53.512  1.00  0.00     0.194 C 
HETATM    2  O1  UNL     1      22.670  -0.614  53.090  1.00  0.00    -0.376 OA
HETATM    3  C6  UNL     1      23.985  -0.768  53.497  1.00  0.00     0.195 C 
HETATM    4  C7  UNL     1      24.940   0.192  52.811  1.00  0.00     0.194 C 
HETATM    5  O2  UNL     1      24.791   1.415  52.948  1.00  0.00    -0.385 OA
HETATM    6  C8  UNL     1      24.642   2.646  53.085  1.00  0.00     0.202 C 
HETATM    7  C9  UNL     1      24.204   3.359  51.801  1.00  0.00    -0.051 C 
HETATM    8  C10 UNL     1      25.264   3.434  50.981  1.00  0.00     0.005 C 
HETATM    9  C11 UNL     1      25.257   4.045  49.658  1.00  0.00     0.001 C 
HETATM   10  C12 UNL     1      24.284   4.451  48.823  1.00  0.00     0.008 C 
HETATM   11  C13 UNL     1      22.890   4.314  49.185  1.00  0.00    -0.038 C 
HETATM   12  C14 UNL     1      22.046   4.613  48.179  1.00  0.00    -0.017 C 
HETATM   13  C15 UNL     1      22.331   5.057  46.771  1.00  0.00     0.308 C 
HETATM   14  N1  UNL     1      21.008   4.619  46.348  1.00  0.00     0.092 N 
HETATM   15  C16 UNL     1      20.276   5.569  45.536  1.00  0.00     0.310 C 
HETATM   16  C17 UNL     1      20.606   4.724  47.741  1.00  0.00     0.308 C 
HETATM   17  C18 UNL     1      22.163   3.923  50.383  1.00  0.00     0.127 C 
HETATM   18  C21 UNL     1      22.818   3.829  51.666  1.00  0.00     0.042 C 
HETATM   19  C22 UNL     1      21.952   2.950  52.590  1.00  0.00     0.091 C 
HETATM   20  C23 UNL     1      22.177   1.527  52.324  1.00  0.00     0.156 C 
HETATM   21  O5  UNL     1      22.419   1.081  51.188  1.00  0.00    -0.295 OA
ENDROOT
BRANCH  17  22
HETATM   22  C19 UNL     1      21.028   4.917  50.552  1.00  0.00     0.267 C 
HETATM   23  O3  UNL     1      19.774   5.049  50.471  1.00  0.00    -0.264 OA
BRANCH  22  24
HETATM   24  O4  UNL     1      21.479   6.194  50.949  1.00  0.00    -0.326 OA
HETATM   25  C20 UNL     1      20.966   7.364  50.345  1.00  0.00     0.213 C 
ENDBRANCH  22  24
ENDBRANCH  17  22
BRANCH   1  26
HETATM   26  C4  UNL     1      20.783   0.463  54.108  1.00  0.00     0.066 C 
BRANCH  26  27
HETATM   27  C3  UNL     1      19.916  -0.565  53.524  1.00  0.00    -0.028 C 
HETATM   28  C2  UNL     1      19.009  -0.503  52.558  1.00  0.00    -0.035 C 
HETATM   29  C1  UNL     1      18.685   0.749  51.827  1.00  0.00     0.036 C 
ENDBRANCH  26  27
ENDBRANCH   1  26
TORSDOF 4
ENDMDL
MODEL 6
REMARK VINA RESULT:      -7.2      4.928      9.273
REMARK  4 active torsions:
REMARK  status: ('A' for Active; 'I' for Inactive)
REMARK    1  A    between atoms: C3_3  and  C4_4 
REMARK    2  A    between atoms: C4_4  and  C5_5 
REMARK    3  A    between atoms: C18_21  and  C19_22 
REMARK    4  A    between atoms: C19_22  and  O4_24 
ROOT
HETATM    1  C5  UNL     1      28.109  10.539  48.426  1.00  0.00     0.194 C 
HETATM    2  O1  UNL     1      29.147  10.659  49.347  1.00  0.00    -0.376 OA
HETATM    3  C6  UNL     1      30.347  10.165  48.860  1.00  0.00     0.195 C 
HETATM    4  C7  UNL     1      30.345   8.657  48.683  1.00  0.00     0.194 C 
HETATM    5  O2  UNL     1      29.537   8.127  47.906  1.00  0.00    -0.385 OA
HETATM    6  C8  UNL     1      28.725   7.593  47.125  1.00  0.00     0.202 C 
HETATM    7  C9  UNL     1      27.656   6.750  47.831  1.00  0.00    -0.051 C 
HETATM    8  C10 UNL     1      28.229   5.609  48.244  1.00  0.00     0.005 C 
HETATM    9  C11 UNL     1      27.542   4.539  48.958  1.00  0.00     0.001 C 
HETATM   10  C12 UNL     1      26.353   4.445  49.579  1.00  0.00     0.008 C 
HETATM   11  C13 UNL     1      25.451   5.575  49.630  1.00  0.00    -0.038 C 
HETATM   12  C14 UNL     1      24.384   5.370  50.425  1.00  0.00    -0.017 C 
HETATM   13  C15 UNL     1      24.000   4.170  51.246  1.00  0.00     0.308 C 
HETATM   14  N1  UNL     1      23.143   4.997  52.084  1.00  0.00     0.092 N 
HETATM   15  C16 UNL     1      21.822   4.459  52.332  1.00  0.00     0.310 C 
HETATM   16  C17 UNL     1      23.107   5.948  50.985  1.00  0.00     0.308 C 
HETATM   17  C18 UNL     1      25.413   6.900  49.030  1.00  0.00     0.127 C 
HETATM   18  C21 UNL     1      26.281   7.257  47.934  1.00  0.00     0.042 C 
HETATM   19  C22 UNL     1      26.360   8.795  47.857  1.00  0.00     0.091 C 
HETATM   20  C23 UNL     1      27.313   9.321  48.836  1.00  0.00     0.156 C 
HETATM   21  O5  UNL     1      27.491   8.803  49.954  1.00  0.00    -0.295 OA
ENDROOT
BRANCH  17  22
HETATM   22  C19 UNL     1      23.992   7.122  48.545  1.00  0.00     0.267 C 
HETATM   23  O3  UNL     1      22.961   7.832  48.712  1.00  0.00    -0.264 OA
BRANCH  22  24
HETATM   24  O4  UNL     1      23.624   6.227  47.517  1.00  0.00    -0.326 OA
HETATM   25  C20 UNL     1      22.281   5.814  47.362  1.00  0.00     0.213 C 
ENDBRANCH  22  24
ENDBRANCH  17  22
BRANCH   1  26
HETATM   26  C4  UNL     1      27.304  11.759  48.276  1.00  0.00     0.066 C 
BRANCH  26  27
HETATM   27  C3  UNL     1      27.984  13.021  48.581  1.00  0.00    -0.028 C 
HETATM   28  C2  UNL     1      28.739  13.815  47.832  1.00  0.00    -0.035 C 
HETATM   29  C1  UNL     1      29.055  13.528  46.408  1.00  0.00     0.036 C 
ENDBRANCH  26  27
ENDBRANCH   1  26
TORSDOF 4
ENDMDL
MODEL 7
REMARK VINA RESULT:      -7.0      3.141      5.256
REMARK  4 active torsions:
REMARK  status: ('A' for Active; 'I' for Inactive)
REMARK    1  A    between atoms: C3_3  and  C4_4 
REMARK    2  A    between atoms: C4_4  and  C5_5 
REMARK    3  A    between atoms: C18_21  and  C19_22 
REMARK    4  A    between atoms: C19_22  and  O4_24 
ROOT
HETATM    1  C5  UNL     1      23.572   0.545  52.980  1.00  0.00     0.194 C 
HETATM    2  O1  UNL     1      24.913   0.194  52.842  1.00  0.00    -0.376 OA
HETATM    3  C6  UNL     1      25.746   0.959  53.643  1.00  0.00     0.195 C 
HETATM    4  C7  UNL     1      25.823   2.412  53.211  1.00  0.00     0.194 C 
HETATM    5  O2  UNL     1      24.798   3.109  53.201  1.00  0.00    -0.385 OA
HETATM    6  C8  UNL     1      23.767   3.811  53.192  1.00  0.00     0.202 C 
HETATM    7  C9  UNL     1      23.306   4.207  51.784  1.00  0.00    -0.051 C 
HETATM    8  C10 UNL     1      24.132   5.159  51.325  1.00  0.00     0.005 C 
HETATM    9  C11 UNL     1      24.027   5.801  50.021  1.00  0.00     0.001 C 
HETATM   10  C12 UNL     1      23.337   5.527  48.899  1.00  0.00     0.008 C 
HETATM   11  C13 UNL     1      22.466   4.375  48.826  1.00  0.00    -0.038 C 
HETATM   12  C14 UNL     1      21.981   4.150  47.590  1.00  0.00    -0.017 C 
HETATM   13  C15 UNL     1      22.202   4.903  46.308  1.00  0.00     0.308 C 
HETATM   14  N1  UNL     1      21.803   3.735  45.534  1.00  0.00     0.092 N 
HETATM   15  C16 UNL     1      20.860   3.998  44.468  1.00  0.00     0.310 C 
HETATM   16  C17 UNL     1      21.108   3.273  46.726  1.00  0.00     0.308 C 
HETATM   17  C18 UNL     1      21.981   3.379  49.770  1.00  0.00     0.127 C 
HETATM   18  C21 UNL     1      22.126   3.558  51.195  1.00  0.00     0.042 C 
HETATM   19  C22 UNL     1      21.983   2.180  51.874  1.00  0.00     0.091 C 
HETATM   20  C23 UNL     1      23.236   1.426  51.800  1.00  0.00     0.156 C 
HETATM   21  O5  UNL     1      24.013   1.497  50.830  1.00  0.00    -0.295 OA
ENDROOT
BRANCH  17  22
HETATM   22  C19 UNL     1      20.496   3.210  49.507  1.00  0.00     0.267 C 
HETATM   23  O3  UNL     1      19.405   3.838  49.408  1.00  0.00    -0.264 OA
BRANCH  22  24
HETATM   24  O4  UNL     1      20.135   1.865  49.276  1.00  0.00    -0.326 OA
HETATM   25  C20 UNL     1      18.961   1.322  49.845  1.00  0.00     0.213 C 
ENDBRANCH  22  24
ENDBRANCH  17  22
BRANCH   1  26
HETATM   26  C4  UNL     1      22.672  -0.605  53.147  1.00  0.00     0.066 C 
BRANCH  26  27
HETATM   27  C3  UNL     1      21.747  -0.539  54.283  1.00  0.00    -0.028 C 
HETATM   28  C2  UNL     1      20.425  -0.440  54.334  1.00  0.00    -0.035 C 
HETATM   29  C1  UNL     1      19.568  -0.370  53.122  1.00  0.00     0.036 C 
ENDBRANCH  26  27
ENDBRANCH   1  26
TORSDOF 4
ENDMDL
MODEL 8
REMARK VINA RESULT:      -6.8      6.753      9.852
REMARK  4 active torsions:
REMARK  status: ('A' for Active; 'I' for Inactive)
REMARK    1  A    between atoms: C3_3  and  C4_4 
REMARK    2  A    between atoms: C4_4  and  C5_5 
REMARK    3  A    between atoms: C18_21  and  C19_22 
REMARK    4  A    between atoms: C19_22  and  O4_24 
ROOT
HETATM    1  C5  UNL     1      32.116   5.769  47.271  1.00  0.00     0.194 C 
HETATM    2  O1  UNL     1      32.903   6.289  46.246  1.00  0.00    -0.376 OA
HETATM    3  C6  UNL     1      33.903   7.124  46.717  1.00  0.00     0.195 C 
HETATM    4  C7  UNL     1      33.373   8.419  47.305  1.00  0.00     0.194 C 
HETATM    5  O2  UNL     1      32.611   8.389  48.281  1.00  0.00    -0.385 OA
HETATM    6  C8  UNL     1      31.843   8.359  49.264  1.00  0.00     0.202 C 
HETATM    7  C9  UNL     1      30.413   8.806  48.941  1.00  0.00    -0.051 C 
HETATM    8  C10 UNL     1      30.414  10.141  48.800  1.00  0.00     0.005 C 
HETATM    9  C11 UNL     1      29.242  10.951  48.491  1.00  0.00     0.001 C 
HETATM   10  C12 UNL     1      28.002  10.668  48.054  1.00  0.00     0.008 C 
HETATM   11  C13 UNL     1      27.601   9.304  47.790  1.00  0.00    -0.038 C 
HETATM   12  C14 UNL     1      26.392   9.207  47.204  1.00  0.00    -0.017 C 
HETATM   13  C15 UNL     1      25.421  10.280  46.796  1.00  0.00     0.308 C 
HETATM   14  N1  UNL     1      24.780   9.367  45.859  1.00  0.00     0.092 N 
HETATM   15  C16 UNL     1      23.333   9.344  45.916  1.00  0.00     0.310 C 
HETATM   16  C17 UNL     1      25.338   8.280  46.649  1.00  0.00     0.308 C 
HETATM   17  C18 UNL     1      28.190   7.990  47.998  1.00  0.00     0.127 C 
HETATM   18  C21 UNL     1      29.340   7.807  48.852  1.00  0.00     0.042 C 
HETATM   19  C22 UNL     1      30.004   6.463  48.489  1.00  0.00     0.091 C 
HETATM   20  C23 UNL     1      30.855   6.601  47.305  1.00  0.00     0.156 C 
HETATM   21  O5  UNL     1      30.584   7.367  46.362  1.00  0.00    -0.295 OA
ENDROOT
BRANCH  17  22
HETATM   22  C19 UNL     1      27.094   7.099  48.555  1.00  0.00     0.267 C 
HETATM   23  O3  UNL     1      26.411   6.063  48.321  1.00  0.00    -0.264 OA
BRANCH  22  24
HETATM   24  O4  UNL     1      26.617   7.545  49.806  1.00  0.00    -0.326 OA
HETATM   25  C20 UNL     1      25.340   7.159  50.274  1.00  0.00     0.213 C 
ENDBRANCH  22  24
ENDBRANCH  17  22
BRANCH   1  26
HETATM   26  C4  UNL     1      31.879   4.323  47.163  1.00  0.00     0.066 C 
BRANCH  26  27
HETATM   27  C3  UNL     1      32.808   3.580  46.306  1.00  0.00    -0.028 C 
HETATM   28  C2  UNL     1      34.031   3.118  46.531  1.00  0.00    -0.035 C 
HETATM   29  C1  UNL     1      34.741   3.293  47.824  1.00  0.00     0.036 C 
ENDBRANCH  26  27
ENDBRANCH   1  26
TORSDOF 4
ENDMDL
MODEL 9
REMARK VINA RESULT:      -6.7      2.628      3.583
REMARK  4 active torsions:
REMARK  status: ('A' for Active; 'I' for Inactive)
REMARK    1  A    between atoms: C3_3  and  C4_4 
REMARK    2  A    between atoms: C4_4  and  C5_5 
REMARK    3  A    between atoms: C18_21  and  C19_22 
REMARK    4  A    between atoms: C19_22  and  O4_24 
ROOT
HETATM    1  C5  UNL     1      23.810   1.206  52.031  1.00  0.00     0.194 C 
HETATM    2  O1  UNL     1      23.193   0.939  53.252  1.00  0.00    -0.376 OA
HETATM    3  C6  UNL     1      22.343  -0.153  53.188  1.00  0.00     0.195 C 
HETATM    4  C7  UNL     1      21.111   0.097  52.337  1.00  0.00     0.194 C 
HETATM    5  O2  UNL     1      21.235   0.371  51.135  1.00  0.00    -0.385 OA
HETATM    6  C8  UNL     1      21.360   0.646  49.925  1.00  0.00     0.202 C 
HETATM    7  C9  UNL     1      20.961   2.085  49.577  1.00  0.00    -0.051 C 
HETATM    8  C10 UNL     1      19.622   2.165  49.605  1.00  0.00     0.005 C 
HETATM    9  C11 UNL     1      18.850   3.370  49.328  1.00  0.00     0.001 C 
HETATM   10  C12 UNL     1      19.162   4.674  49.218  1.00  0.00     0.008 C 
HETATM   11  C13 UNL     1      20.525   5.127  49.388  1.00  0.00    -0.038 C 
HETATM   12  C14 UNL     1      20.643   6.468  49.411  1.00  0.00    -0.017 C 
HETATM   13  C15 UNL     1      19.593   7.537  49.289  1.00  0.00     0.308 C 
HETATM   14  N1  UNL     1      20.477   8.502  49.930  1.00  0.00     0.092 N 
HETATM   15  C16 UNL     1      20.570   9.786  49.267  1.00  0.00     0.310 C 
HETATM   16  C17 UNL     1      21.582   7.643  49.535  1.00  0.00     0.308 C 
HETATM   17  C18 UNL     1      21.821   4.483  49.547  1.00  0.00     0.127 C 
HETATM   18  C21 UNL     1      22.002   3.077  49.277  1.00  0.00     0.042 C 
HETATM   19  C22 UNL     1      23.289   2.608  49.986  1.00  0.00     0.091 C 
HETATM   20  C23 UNL     1      23.041   2.346  51.405  1.00  0.00     0.156 C 
HETATM   21  O5  UNL     1      22.233   3.005  52.084  1.00  0.00    -0.295 OA
ENDROOT
BRANCH  17  22
HETATM   22  C19 UNL     1      22.793   5.223  48.645  1.00  0.00     0.267 C 
HETATM   23  O3  UNL     1      22.976   5.623  47.462  1.00  0.00    -0.264 OA
BRANCH  22  24
HETATM   24  O4  UNL     1      23.949   5.653  49.332  1.00  0.00    -0.326 OA
HETATM   25  C20 UNL     1      24.990   6.323  48.650  1.00  0.00     0.213 C 
ENDBRANCH  22  24
ENDBRANCH  17  22
BRANCH   1  26
HETATM   26  C4  UNL     1      25.256   1.443  52.135  1.00  0.00     0.066 C 
BRANCH  26  27
HETATM   27  C3  UNL     1      26.097   0.248  52.257  1.00  0.00    -0.028 C 
HETATM   28  C2  UNL     1      26.579  -0.381  53.321  1.00  0.00    -0.035 C 
HETATM   29  C1  UNL     1      26.323   0.067  54.715  1.00  0.00     0.036 C 
ENDBRANCH  26  27
ENDBRANCH   1  26
TORSDOF 4
ENDMDL
