MODEL 1
REMARK VINA RESULT:      -8.3      0.000      0.000
REMARK  3 active torsions:
REMARK  status: ('A' for Active; 'I' for Inactive)
REMARK    1  A    between atoms: C2_2  and  C3_4 
REMARK    2  A    between atoms: C7_10  and  N3_11 
REMARK    3  A    between atoms: N3_11  and  C8_12 
ROOT
HETATM    1  C3  UNL     1      26.285   3.522  49.311  1.00  0.00     0.103 A 
HETATM    2  C4  UNL     1      24.804   3.454  49.311  1.00  0.00     0.022 A 
HETATM    3  C5  UNL     1      24.381   3.121  50.515  1.00  0.00     0.069 A 
HETATM    4  N1  UNL     1      23.125   2.942  50.976  1.00  0.00    -0.241 NA
HETATM    5  C6  UNL     1      22.888   2.597  52.262  1.00  0.00     0.235 A 
HETATM    6  N2  UNL     1      23.914   2.426  53.101  1.00  0.00    -0.224 NA
HETATM    7  C7  UNL     1      25.189   2.581  52.731  1.00  0.00     0.141 A 
HETATM    8  C14 UNL     1      25.413   2.936  51.406  1.00  0.00     0.036 A 
HETATM    9  C15 UNL     1      26.559   3.164  50.735  1.00  0.00     0.007 A 
ENDROOT
BRANCH   7  10
HETATM   10  N3  UNL     1      26.320   2.416  53.568  1.00  0.00    -0.340 N 
HETATM   11  H7  UNL     1      26.513   3.141  54.302  1.00  0.00     0.167 HD
BRANCH  10  12
HETATM   12  C8  UNL     1      27.255   1.355  53.535  1.00  0.00     0.035 A 
HETATM   13  C9  UNL     1      28.580   1.411  53.898  1.00  0.00     0.032 A 
HETATM   14  C10 UNL     1      29.465   0.361  53.855  1.00  0.00     0.046 A 
HETATM   15  C11 UNL     1      29.029  -0.854  53.421  1.00  0.00     0.138 A 
HETATM   16  F1  UNL     1      29.827  -1.942  53.344  1.00  0.00    -0.204 F 
HETATM   17  C12 UNL     1      27.714  -0.992  53.040  1.00  0.00     0.074 A 
HETATM   18 CL1  UNL     1      27.134  -2.540  52.481  1.00  0.00    -0.081 Cl
HETATM   19  C13 UNL     1      26.871   0.092  53.103  1.00  0.00     0.056 A 
ENDBRANCH  10  12
ENDBRANCH   7  10
BRANCH   1  20
HETATM   20  C2  UNL     1      26.822   4.839  48.950  1.00  0.00     0.134 C 
HETATM   21  C1  UNL     1      25.838   5.958  48.942  1.00  0.00     0.092 C 
HETATM   22  O1  UNL     1      28.003   4.593  48.751  1.00  0.00    -0.297 OA
ENDBRANCH   1  20
TORSDOF 3
ENDMDL
MODEL 2
REMARK VINA RESULT:      -8.1      3.893      4.823
REMARK  3 active torsions:
REMARK  status: ('A' for Active; 'I' for Inactive)
REMARK    1  A    between atoms: C2_2  and  C3_4 
REMARK    2  A    between atoms: C7_10  and  N3_11 
REMARK    3  A    between atoms: N3_11  and  C8_12 
ROOT
HETATM    1  C3  UNL     1      20.863   1.214  52.203  1.00  0.00     0.103 A 
HETATM    2  C4  UNL     1      20.507   0.463  53.430  1.00  0.00     0.022 A 
HETATM    3  C5  UNL     1      21.596  -0.075  53.946  1.00  0.00     0.069 A 
HETATM    4  N1  UNL     1      21.750  -0.836  55.050  1.00  0.00    -0.241 NA
HETATM    5  C6  UNL     1      22.964  -1.301  55.422  1.00  0.00     0.235 A 
HETATM    6  N2  UNL     1      24.040  -1.006  54.686  1.00  0.00    -0.224 NA
HETATM    7  C7  UNL     1      23.981  -0.259  53.578  1.00  0.00     0.141 A 
HETATM    8  C14 UNL     1      22.724   0.210  53.211  1.00  0.00     0.036 A 
HETATM    9  C15 UNL     1      22.337   0.971  52.170  1.00  0.00     0.007 A 
ENDROOT
BRANCH   7  10
HETATM   10  N3  UNL     1      25.080   0.090  52.755  1.00  0.00    -0.340 N 
HETATM   11  H7  UNL     1      24.891   0.586  51.849  1.00  0.00     0.167 HD
BRANCH  10  12
HETATM   12  C8  UNL     1      26.448  -0.157  53.013  1.00  0.00     0.035 A 
HETATM   13  C9  UNL     1      27.129  -1.332  52.799  1.00  0.00     0.032 A 
HETATM   14  C10 UNL     1      28.462  -1.542  53.060  1.00  0.00     0.046 A 
HETATM   15  C11 UNL     1      29.203  -0.522  53.575  1.00  0.00     0.138 A 
HETATM   16  F1  UNL     1      30.519  -0.636  53.863  1.00  0.00    -0.204 F 
HETATM   17  C12 UNL     1      28.593   0.688  53.817  1.00  0.00     0.074 A 
HETATM   18 CL1  UNL     1      29.525   2.008  54.477  1.00  0.00    -0.081 Cl
HETATM   19  C13 UNL     1      27.256   0.842  53.537  1.00  0.00     0.056 A 
ENDBRANCH  10  12
ENDBRANCH   7  10
BRANCH   1  20
HETATM   20  C2  UNL     1      20.531   2.643  52.260  1.00  0.00     0.134 C 
HETATM   21  C1  UNL     1      21.681   3.580  52.126  1.00  0.00     0.092 C 
HETATM   22  O1  UNL     1      19.317   2.621  52.412  1.00  0.00    -0.297 OA
ENDBRANCH   1  20
TORSDOF 3
ENDMDL
MODEL 3
REMARK VINA RESULT:      -8.0      2.462      3.878
REMARK  3 active torsions:
REMARK  status: ('A' for Active; 'I' for Inactive)
REMARK    1  A    between atoms: C2_2  and  C3_4 
REMARK    2  A    between atoms: C7_10  and  N3_11 
REMARK    3  A    between atoms: N3_11  and  C8_12 
ROOT
HETATM    1  C3  UNL     1      22.165   1.434  52.604  1.00  0.00     0.103 A 
HETATM    2  C4  UNL     1      22.122   1.946  51.214  1.00  0.00     0.022 A 
HETATM    3  C5  UNL     1      23.310   2.414  50.882  1.00  0.00     0.069 A 
HETATM    4  N1  UNL     1      23.733   2.972  49.728  1.00  0.00    -0.241 NA
HETATM    5  C6  UNL     1      25.008   3.396  49.576  1.00  0.00     0.235 A 
HETATM    6  N2  UNL     1      25.874   3.265  50.585  1.00  0.00    -0.224 NA
HETATM    7  C7  UNL     1      25.543   2.725  51.762  1.00  0.00     0.141 A 
HETATM    8  C14 UNL     1      24.228   2.294  51.900  1.00  0.00     0.036 A 
HETATM    9  C15 UNL     1      23.593   1.719  52.939  1.00  0.00     0.007 A 
ENDROOT
BRANCH   7  10
HETATM   10  N3  UNL     1      26.410   2.557  52.870  1.00  0.00    -0.340 N 
HETATM   11  H7  UNL     1      26.405   3.285  53.627  1.00  0.00     0.167 HD
BRANCH  10  12
HETATM   12  C8  UNL     1      27.312   1.491  53.089  1.00  0.00     0.035 A 
HETATM   13  C9  UNL     1      28.579   1.578  53.617  1.00  0.00     0.032 A 
HETATM   14  C10 UNL     1      29.435   0.521  53.819  1.00  0.00     0.046 A 
HETATM   15  C11 UNL     1      29.027  -0.733  53.480  1.00  0.00     0.138 A 
HETATM   16  F1  UNL     1      29.800  -1.831  53.642  1.00  0.00    -0.204 F 
HETATM   17  C12 UNL     1      27.770  -0.903  52.945  1.00  0.00     0.074 A 
HETATM   18 CL1  UNL     1      27.229  -2.503  52.504  1.00  0.00    -0.081 Cl
HETATM   19  C13 UNL     1      26.956   0.189  52.765  1.00  0.00     0.056 A 
ENDBRANCH  10  12
ENDBRANCH   7  10
BRANCH   1  20
HETATM   20  C2  UNL     1      21.833   0.010  52.726  1.00  0.00     0.134 C 
HETATM   21  C1  UNL     1      22.830  -0.826  53.452  1.00  0.00     0.092 C 
HETATM   22  O1  UNL     1      20.757  -0.057  52.148  1.00  0.00    -0.297 OA
ENDBRANCH   1  20
TORSDOF 3
ENDMDL
MODEL 4
REMARK VINA RESULT:      -8.0      3.562      5.215
REMARK  3 active torsions:
REMARK  status: ('A' for Active; 'I' for Inactive)
REMARK    1  A    between atoms: C2_2  and  C3_4 
REMARK    2  A    between atoms: C7_10  and  N3_11 
REMARK    3  A    between atoms: N3_11  and  C8_12 
ROOT
HETATM    1  C3  UNL     1      20.722   0.401  53.828  1.00  0.00     0.103 A 
HETATM    2  C4  UNL     1      20.794   1.393  52.729  1.00  0.00     0.022 A 
HETATM    3  C5  UNL     1      22.042   1.500  52.315  1.00  0.00     0.069 A 
HETATM    4  N1  UNL     1      22.573   2.274  51.346  1.00  0.00    -0.241 NA
HETATM    5  C6  UNL     1      23.895   2.243  51.063  1.00  0.00     0.235 A 
HETATM    6  N2  UNL     1      24.701   1.432  51.755  1.00  0.00    -0.224 NA
HETATM    7  C7  UNL     1      24.262   0.632  52.732  1.00  0.00     0.141 A 
HETATM    8  C14 UNL     1      22.900   0.677  53.008  1.00  0.00     0.036 A 
HETATM    9  C15 UNL     1      22.161   0.007  53.914  1.00  0.00     0.007 A 
ENDROOT
BRANCH   7  10
HETATM   10  N3  UNL     1      25.061  -0.249  53.502  1.00  0.00    -0.340 N 
HETATM   11  H7  UNL     1      24.584  -0.919  54.155  1.00  0.00     0.167 HD
BRANCH  10  12
HETATM   12  C8  UNL     1      26.472  -0.341  53.499  1.00  0.00     0.035 A 
HETATM   13  C9  UNL     1      27.229  -1.395  53.045  1.00  0.00     0.032 A 
HETATM   14  C10 UNL     1      28.602  -1.455  53.054  1.00  0.00     0.046 A 
HETATM   15  C11 UNL     1      29.306  -0.399  53.548  1.00  0.00     0.138 A 
HETATM   16  F1  UNL     1      30.657  -0.369  53.598  1.00  0.00    -0.204 F 
HETATM   17  C12 UNL     1      28.620   0.696  54.022  1.00  0.00     0.074 A 
HETATM   18 CL1  UNL     1      29.503   2.060  54.659  1.00  0.00    -0.081 Cl
HETATM   19  C13 UNL     1      27.246   0.703  53.988  1.00  0.00     0.056 A 
ENDBRANCH  10  12
ENDBRANCH   7  10
BRANCH   1  20
HETATM   20  C2  UNL     1      19.845  -0.741  53.545  1.00  0.00     0.134 C 
HETATM   21  C1  UNL     1      18.678  -0.457  52.663  1.00  0.00     0.092 C 
HETATM   22  O1  UNL     1      20.384  -1.644  54.170  1.00  0.00    -0.297 OA
ENDBRANCH   1  20
TORSDOF 3
ENDMDL
MODEL 5
REMARK VINA RESULT:      -7.9      4.283      6.761
REMARK  3 active torsions:
REMARK  status: ('A' for Active; 'I' for Inactive)
REMARK    1  A    between atoms: C2_2  and  C3_4 
REMARK    2  A    between atoms: C7_10  and  N3_11 
REMARK    3  A    between atoms: N3_11  and  C8_12 
ROOT
HETATM    1  C3  UNL     1      25.218  -0.789  53.834  1.00  0.00     0.103 A 
HETATM    2  C4  UNL     1      26.236  -0.254  54.769  1.00  0.00     0.022 A 
HETATM    3  C5  UNL     1      26.942   0.681  54.161  1.00  0.00     0.069 A 
HETATM    4  N1  UNL     1      27.965   1.433  54.619  1.00  0.00    -0.241 NA
HETATM    5  C6  UNL     1      28.570   2.353  53.834  1.00  0.00     0.235 A 
HETATM    6  N2  UNL     1      28.153   2.527  52.576  1.00  0.00    -0.224 NA
HETATM    7  C7  UNL     1      27.149   1.826  52.040  1.00  0.00     0.141 A 
HETATM    8  C14 UNL     1      26.539   0.885  52.861  1.00  0.00     0.036 A 
HETATM    9  C15 UNL     1      25.520   0.037  52.625  1.00  0.00     0.007 A 
ENDROOT
BRANCH   7  10
HETATM   10  N3  UNL     1      26.659   1.961  50.717  1.00  0.00    -0.340 N 
HETATM   11  H7  UNL     1      26.701   1.128  50.079  1.00  0.00     0.167 HD
BRANCH  10  12
HETATM   12  C8  UNL     1      26.102   3.121  50.131  1.00  0.00     0.035 A 
HETATM   13  C9  UNL     1      24.771   3.465  50.086  1.00  0.00     0.032 A 
HETATM   14  C10 UNL     1      24.259   4.602  49.508  1.00  0.00     0.046 A 
HETATM   15  C11 UNL     1      25.111   5.485  48.919  1.00  0.00     0.138 A 
HETATM   16  F1  UNL     1      24.699   6.628  48.326  1.00  0.00    -0.204 F 
HETATM   17  C12 UNL     1      26.460   5.213  48.922  1.00  0.00     0.074 A 
HETATM   18 CL1  UNL     1      27.570   6.332  48.174  1.00  0.00    -0.081 Cl
HETATM   19  C13 UNL     1      26.918   4.060  49.516  1.00  0.00     0.056 A 
ENDBRANCH  10  12
ENDBRANCH   7  10
BRANCH   1  20
HETATM   20  C2  UNL     1      23.836  -0.621  54.297  1.00  0.00     0.134 C 
HETATM   21  C1  UNL     1      22.944   0.166  53.399  1.00  0.00     0.092 C 
HETATM   22  O1  UNL     1      23.843  -1.225  55.360  1.00  0.00    -0.297 OA
ENDBRANCH   1  20
TORSDOF 3
ENDMDL
MODEL 6
REMARK VINA RESULT:      -7.9      3.550      4.560
REMARK  3 active torsions:
REMARK  status: ('A' for Active; 'I' for Inactive)
REMARK    1  A    between atoms: C2_2  and  C3_4 
REMARK    2  A    between atoms: C7_10  and  N3_11 
REMARK    3  A    between atoms: N3_11  and  C8_12 
ROOT
HETATM    1  C3  UNL     1      21.077   1.683  52.103  1.00  0.00     0.103 A 
HETATM    2  C4  UNL     1      20.601   0.937  53.292  1.00  0.00     0.022 A 
HETATM    3  C5  UNL     1      21.599   0.240  53.801  1.00  0.00     0.069 A 
HETATM    4  N1  UNL     1      21.629  -0.578  54.874  1.00  0.00    -0.241 NA
HETATM    5  C6  UNL     1      22.763  -1.214  55.244  1.00  0.00     0.235 A 
HETATM    6  N2  UNL     1      23.883  -1.035  54.538  1.00  0.00    -0.224 NA
HETATM    7  C7  UNL     1      23.945  -0.244  53.461  1.00  0.00     0.141 A 
HETATM    8  C14 UNL     1      22.769   0.402  53.096  1.00  0.00     0.036 A 
HETATM    9  C15 UNL     1      22.507   1.248  52.082  1.00  0.00     0.007 A 
ENDROOT
BRANCH   7  10
HETATM   10  N3  UNL     1      25.097  -0.011  52.670  1.00  0.00    -0.340 N 
HETATM   11  H7  UNL     1      25.062  -0.251  51.648  1.00  0.00     0.167 HD
BRANCH  10  12
HETATM   12  C8  UNL     1      26.332   0.523  53.103  1.00  0.00     0.035 A 
HETATM   13  C9  UNL     1      26.588   1.827  53.460  1.00  0.00     0.032 A 
HETATM   14  C10 UNL     1      27.801   2.317  53.879  1.00  0.00     0.046 A 
HETATM   15  C11 UNL     1      28.864   1.470  53.958  1.00  0.00     0.138 A 
HETATM   16  F1  UNL     1      30.095   1.863  54.358  1.00  0.00    -0.204 F 
HETATM   17  C12 UNL     1      28.690   0.148  53.618  1.00  0.00     0.074 A 
HETATM   18 CL1  UNL     1      30.040  -0.954  53.713  1.00  0.00    -0.081 Cl
HETATM   19  C13 UNL     1      27.453  -0.289  53.206  1.00  0.00     0.056 A 
ENDBRANCH  10  12
ENDBRANCH   7  10
BRANCH   1  20
HETATM   20  C2  UNL     1      20.935   3.139  52.215  1.00  0.00     0.134 C 
HETATM   21  C1  UNL     1      22.082   3.942  51.705  1.00  0.00     0.092 C 
HETATM   22  O1  UNL     1      19.834   3.253  52.734  1.00  0.00    -0.297 OA
ENDBRANCH   1  20
TORSDOF 3
ENDMDL
MODEL 7
REMARK VINA RESULT:      -7.7      3.452      5.114
REMARK  3 active torsions:
REMARK  status: ('A' for Active; 'I' for Inactive)
REMARK    1  A    between atoms: C2_2  and  C3_4 
REMARK    2  A    between atoms: C7_10  and  N3_11 
REMARK    3  A    between atoms: N3_11  and  C8_12 
ROOT
HETATM    1  C3  UNL     1      20.834   0.100  53.706  1.00  0.00     0.103 A 
HETATM    2  C4  UNL     1      20.366   0.135  52.299  1.00  0.00     0.022 A 
HETATM    3  C5  UNL     1      21.266   0.748  51.553  1.00  0.00     0.069 A 
HETATM    4  N1  UNL     1      21.264   1.009  50.229  1.00  0.00    -0.241 NA
HETATM    5  C6  UNL     1      22.292   1.658  49.637  1.00  0.00     0.235 A 
HETATM    6  N2  UNL     1      23.336   2.054  50.372  1.00  0.00    -0.224 NA
HETATM    7  C7  UNL     1      23.422   1.838  51.689  1.00  0.00     0.141 A 
HETATM    8  C14 UNL     1      22.356   1.170  52.280  1.00  0.00     0.036 A 
HETATM    9  C15 UNL     1      22.142   0.807  53.559  1.00  0.00     0.007 A 
ENDROOT
BRANCH   7  10
HETATM   10  N3  UNL     1      24.497   2.231  52.524  1.00  0.00    -0.340 N 
HETATM   11  H7  UNL     1      24.433   3.151  53.026  1.00  0.00     0.167 HD
BRANCH  10  12
HETATM   12  C8  UNL     1      25.686   1.509  52.774  1.00  0.00     0.035 A 
HETATM   13  C9  UNL     1      26.851   2.000  53.317  1.00  0.00     0.032 A 
HETATM   14  C10 UNL     1      27.993   1.272  53.549  1.00  0.00     0.046 A 
HETATM   15  C11 UNL     1      28.011  -0.050  53.225  1.00  0.00     0.138 A 
HETATM   16  F1  UNL     1      29.089  -0.844  53.416  1.00  0.00    -0.204 F 
HETATM   17  C12 UNL     1      26.884  -0.617  52.677  1.00  0.00     0.074 A 
HETATM   18 CL1  UNL     1      26.885  -2.311  52.255  1.00  0.00    -0.081 Cl
HETATM   19  C13 UNL     1      25.768   0.158  52.467  1.00  0.00     0.056 A 
ENDBRANCH  10  12
ENDBRANCH   7  10
BRANCH   1  20
HETATM   20  C2  UNL     1      20.985  -1.254  54.251  1.00  0.00     0.134 C 
HETATM   21  C1  UNL     1      22.292  -1.545  54.905  1.00  0.00     0.092 C 
HETATM   22  O1  UNL     1      19.908  -1.765  53.978  1.00  0.00    -0.297 OA
ENDBRANCH   1  20
TORSDOF 3
ENDMDL
MODEL 8
REMARK VINA RESULT:      -7.6      4.421      6.772
REMARK  3 active torsions:
REMARK  status: ('A' for Active; 'I' for Inactive)
REMARK    1  A    between atoms: C2_2  and  C3_4 
REMARK    2  A    between atoms: C7_10  and  N3_11 
REMARK    3  A    between atoms: N3_11  and  C8_12 
ROOT
HETATM    1  C3  UNL     1      25.388   0.043  54.044  1.00  0.00     0.103 A 
HETATM    2  C4  UNL     1      24.631  -1.050  54.701  1.00  0.00     0.022 A 
HETATM    3  C5  UNL     1      23.345  -0.911  54.441  1.00  0.00     0.069 A 
HETATM    4  N1  UNL     1      22.294  -1.664  54.827  1.00  0.00    -0.241 NA
HETATM    5  C6  UNL     1      21.032  -1.357  54.453  1.00  0.00     0.235 A 
HETATM    6  N2  UNL     1      20.810  -0.285  53.687  1.00  0.00    -0.224 NA
HETATM    7  C7  UNL     1      21.791   0.518  53.259  1.00  0.00     0.141 A 
HETATM    8  C14 UNL     1      23.082   0.186  53.652  1.00  0.00     0.036 A 
HETATM    9  C15 UNL     1      24.263   0.779  53.393  1.00  0.00     0.007 A 
ENDROOT
BRANCH   7  10
HETATM   10  N3  UNL     1      21.625   1.666  52.446  1.00  0.00    -0.340 N 
HETATM   11  H7  UNL     1      21.326   2.564  52.901  1.00  0.00     0.167 HD
BRANCH  10  12
HETATM   12  C8  UNL     1      21.821   1.755  51.049  1.00  0.00     0.035 A 
HETATM   13  C9  UNL     1      21.355   0.882  50.094  1.00  0.00     0.032 A 
HETATM   14  C10 UNL     1      21.561   0.995  48.739  1.00  0.00     0.046 A 
HETATM   15  C11 UNL     1      22.284   2.048  48.267  1.00  0.00     0.138 A 
HETATM   16  F1  UNL     1      22.538   2.240  46.953  1.00  0.00    -0.204 F 
HETATM   17  C12 UNL     1      22.784   2.967  49.160  1.00  0.00     0.074 A 
HETATM   18 CL1  UNL     1      23.713   4.324  48.575  1.00  0.00    -0.081 Cl
HETATM   19  C13 UNL     1      22.547   2.805  50.505  1.00  0.00     0.056 A 
ENDBRANCH  10  12
ENDBRANCH   7  10
BRANCH   1  20
HETATM   20  C2  UNL     1      26.389  -0.422  53.077  1.00  0.00     0.134 C 
HETATM   21  C1  UNL     1      26.464   0.349  51.804  1.00  0.00     0.092 C 
HETATM   22  O1  UNL     1      26.891  -1.372  53.660  1.00  0.00    -0.297 OA
ENDBRANCH   1  20
TORSDOF 3
ENDMDL
MODEL 9
REMARK VINA RESULT:      -7.6      4.430      6.746
REMARK  3 active torsions:
REMARK  status: ('A' for Active; 'I' for Inactive)
REMARK    1  A    between atoms: C2_2  and  C3_4 
REMARK    2  A    between atoms: C7_10  and  N3_11 
REMARK    3  A    between atoms: N3_11  and  C8_12 
ROOT
HETATM    1  C3  UNL     1      23.034  -0.855  53.646  1.00  0.00     0.103 A 
HETATM    2  C4  UNL     1      24.249  -0.903  54.495  1.00  0.00     0.022 A 
HETATM    3  C5  UNL     1      25.126  -0.020  54.056  1.00  0.00     0.069 A 
HETATM    4  N1  UNL     1      26.359   0.281  54.515  1.00  0.00    -0.241 NA
HETATM    5  C6  UNL     1      27.118   1.231  53.923  1.00  0.00     0.235 A 
HETATM    6  N2  UNL     1      26.647   1.888  52.859  1.00  0.00    -0.224 NA
HETATM    7  C7  UNL     1      25.438   1.654  52.337  1.00  0.00     0.141 A 
HETATM    8  C14 UNL     1      24.671   0.675  52.959  1.00  0.00     0.036 A 
HETATM    9  C15 UNL     1      23.437   0.213  52.682  1.00  0.00     0.007 A 
ENDROOT
BRANCH   7  10
HETATM   10  N3  UNL     1      24.879   2.313  51.214  1.00  0.00    -0.340 N 
HETATM   11  H7  UNL     1      23.941   1.998  50.862  1.00  0.00     0.167 HD
BRANCH  10  12
HETATM   12  C8  UNL     1      25.450   3.380  50.483  1.00  0.00     0.035 A 
HETATM   13  C9  UNL     1      26.538   3.316  49.644  1.00  0.00     0.032 A 
HETATM   14  C10 UNL     1      27.071   4.373  48.945  1.00  0.00     0.046 A 
HETATM   15  C11 UNL     1      26.500   5.603  49.071  1.00  0.00     0.138 A 
HETATM   16  F1  UNL     1      26.955   6.699  48.423  1.00  0.00    -0.204 F 
HETATM   17  C12 UNL     1      25.405   5.749  49.892  1.00  0.00     0.074 A 
HETATM   18 CL1  UNL     1      24.658   7.317  50.067  1.00  0.00    -0.081 Cl
HETATM   19  C13 UNL     1      24.913   4.657  50.568  1.00  0.00     0.056 A 
ENDBRANCH  10  12
ENDBRANCH   7  10
BRANCH   1  20
HETATM   20  C2  UNL     1      21.808  -0.518  54.377  1.00  0.00     0.134 C 
HETATM   21  C1  UNL     1      20.964   0.548  53.768  1.00  0.00     0.092 C 
HETATM   22  O1  UNL     1      21.860  -1.277  55.335  1.00  0.00    -0.297 OA
ENDBRANCH   1  20
TORSDOF 3
ENDMDL
