MODEL 1
REMARK VINA RESULT:      -8.4      0.000      0.000
REMARK  5 active torsions:
REMARK  status: ('A' for Active; 'I' for Inactive)
REMARK    1  A    between atoms: N1_1  and  C1_2 
REMARK    2  A    between atoms: C4_5  and  C5_6 
REMARK    3  A    between atoms: C7_8  and  N2_9 
REMARK    4  A    between atoms: N2_9  and  C8_10 
REMARK    5  A    between atoms: C13_16  and  N3_17 
ROOT
HETATM    1  C5  UNL     1      24.319   0.219  53.457  1.00  0.00     0.062 C 
HETATM    2  C6  UNL     1      24.715   1.309  52.832  1.00  0.00     0.064 C 
HETATM    3  C7  UNL     1      25.935   2.058  52.494  1.00  0.00     0.066 C 
HETATM    4  C14 UNL     1      27.204   1.711  52.622  1.00  0.00     0.116 C 
HETATM    5  N4  UNL     1      27.594   0.515  52.460  1.00  0.00    -0.236 NA
HETATM    6  C15 UNL     1      27.439  -0.748  53.130  1.00  0.00     0.255 C 
HETATM    7  N5  UNL     1      26.447  -1.267  53.820  1.00  0.00    -0.168 NA
HETATM    8  N6  UNL     1      25.166  -0.718  54.132  1.00  0.00    -0.276 N 
HETATM    9  H13 UNL     1      24.728  -1.051  55.048  1.00  0.00     0.189 HD
ENDROOT
BRANCH   3  10
HETATM   10  N2  UNL     1      25.692   3.330  51.957  1.00  0.00    -0.352 N 
HETATM   11  H6  UNL     1      26.386   4.068  52.208  1.00  0.00     0.166 HD
BRANCH  10  12
HETATM   12  C8  UNL     1      24.548   3.514  51.135  1.00  0.00     0.060 A 
HETATM   13  C9  UNL     1      24.375   2.752  49.973  1.00  0.00     0.032 A 
HETATM   14  C10 UNL     1      23.236   2.957  49.184  1.00  0.00     0.004 A 
HETATM   15  C11 UNL     1      22.332   3.911  49.599  1.00  0.00     0.026 A 
HETATM   16  C12 UNL     1      22.460   4.682  50.732  1.00  0.00     0.062 A 
HETATM   17 CL1  UNL     1      21.279   5.878  51.207  1.00  0.00    -0.082 Cl
HETATM   18  C13 UNL     1      23.592   4.469  51.503  1.00  0.00     0.074 A 
BRANCH  18  19
HETATM   19  N3  UNL     1      23.792   5.230  52.689  1.00  0.00    -0.396 N 
HETATM   20  H10 UNL     1      24.545   5.333  53.379  1.00  0.00     0.156 HD
HETATM   21  H11 UNL     1      22.940   5.803  52.850  1.00  0.00     0.156 HD
ENDBRANCH  18  19
ENDBRANCH  10  12
ENDBRANCH   3  10
BRANCH   1  22
HETATM   22  C4  UNL     1      22.913  -0.110  53.522  1.00  0.00    -0.008 A 
HETATM   23  C3  UNL     1      21.919   0.368  52.715  1.00  0.00     0.016 A 
HETATM   24  C2  UNL     1      20.588   0.018  52.786  1.00  0.00     0.030 A 
HETATM   25  C1  UNL     1      20.174  -0.893  53.743  1.00  0.00     0.025 A 
HETATM   26  C17 UNL     1      21.168  -1.400  54.582  1.00  0.00     0.030 A 
HETATM   27  C16 UNL     1      22.474  -1.011  54.459  1.00  0.00     0.016 A 
BRANCH  25  28
HETATM   28  N1  UNL     1      18.812  -1.265  53.832  1.00  0.00    -0.399 N 
HETATM   29  H1  UNL     1      18.221  -0.774  54.542  1.00  0.00     0.156 HD
HETATM   30  H2  UNL     1      18.423  -2.011  53.197  1.00  0.00     0.156 HD
ENDBRANCH  25  28
ENDBRANCH   1  22
TORSDOF 5
ENDMDL
MODEL 2
REMARK VINA RESULT:      -8.4      3.680      7.561
REMARK  5 active torsions:
REMARK  status: ('A' for Active; 'I' for Inactive)
REMARK    1  A    between atoms: N1_1  and  C1_2 
REMARK    2  A    between atoms: C4_5  and  C5_6 
REMARK    3  A    between atoms: C7_8  and  N2_9 
REMARK    4  A    between atoms: N2_9  and  C8_10 
REMARK    5  A    between atoms: C13_16  and  N3_17 
ROOT
HETATM    1  C5  UNL     1      24.704   3.888  49.885  1.00  0.00     0.062 C 
HETATM    2  C6  UNL     1      24.886   3.195  50.991  1.00  0.00     0.064 C 
HETATM    3  C7  UNL     1      24.169   2.307  51.919  1.00  0.00     0.066 C 
HETATM    4  C14 UNL     1      22.979   1.745  51.802  1.00  0.00     0.116 C 
HETATM    5  N4  UNL     1      22.526   1.353  50.683  1.00  0.00    -0.236 NA
HETATM    6  C15 UNL     1      22.089   1.952  49.451  1.00  0.00     0.255 C 
HETATM    7  N5  UNL     1      22.474   3.032  48.807  1.00  0.00    -0.168 NA
HETATM    8  N6  UNL     1      23.482   3.986  49.145  1.00  0.00    -0.276 N 
HETATM    9  H13 UNL     1      23.318   4.981  48.792  1.00  0.00     0.189 HD
ENDROOT
BRANCH   3  10
HETATM   10  N2  UNL     1      24.872   2.030  53.099  1.00  0.00    -0.352 N 
HETATM   11  H6  UNL     1      24.624   2.619  53.924  1.00  0.00     0.166 HD
BRANCH  10  12
HETATM   12  C8  UNL     1      25.844   0.994  53.083  1.00  0.00     0.060 A 
HETATM   13  C9  UNL     1      25.496  -0.306  52.695  1.00  0.00     0.032 A 
HETATM   14  C10 UNL     1      26.479  -1.304  52.689  1.00  0.00     0.004 A 
HETATM   15  C11 UNL     1      27.755  -0.950  53.072  1.00  0.00     0.026 A 
HETATM   16  C12 UNL     1      28.143   0.313  53.461  1.00  0.00     0.062 A 
HETATM   17 CL1  UNL     1      29.778   0.702  53.937  1.00  0.00    -0.082 Cl
HETATM   18  C13 UNL     1      27.160   1.291  53.462  1.00  0.00     0.074 A 
BRANCH  18  19
HETATM   19  N3  UNL     1      27.486   2.619  53.853  1.00  0.00    -0.396 N 
HETATM   20  H10 UNL     1      27.984   3.054  54.639  1.00  0.00     0.156 HD
HETATM   21  H11 UNL     1      27.106   3.268  53.135  1.00  0.00     0.156 HD
ENDBRANCH  18  19
ENDBRANCH  10  12
ENDBRANCH   3  10
BRANCH   1  22
HETATM   22  C4  UNL     1      25.791   4.657  49.323  1.00  0.00    -0.008 A 
HETATM   23  C3  UNL     1      27.074   4.234  49.112  1.00  0.00     0.016 A 
HETATM   24  C2  UNL     1      28.086   4.983  48.553  1.00  0.00     0.030 A 
HETATM   25  C1  UNL     1      27.829   6.284  48.155  1.00  0.00     0.025 A 
HETATM   26  C17 UNL     1      26.527   6.745  48.357  1.00  0.00     0.030 A 
HETATM   27  C16 UNL     1      25.567   5.948  48.919  1.00  0.00     0.016 A 
BRANCH  25  28
HETATM   28  N1  UNL     1      28.855   7.071  47.579  1.00  0.00    -0.399 N 
HETATM   29  H1  UNL     1      29.017   6.977  46.551  1.00  0.00     0.156 HD
HETATM   30  H2  UNL     1      29.424   7.724  48.181  1.00  0.00     0.156 HD
ENDBRANCH  25  28
ENDBRANCH   1  22
TORSDOF 5
ENDMDL
MODEL 3
REMARK VINA RESULT:      -8.2      1.820      4.867
REMARK  5 active torsions:
REMARK  status: ('A' for Active; 'I' for Inactive)
REMARK    1  A    between atoms: N1_1  and  C1_2 
REMARK    2  A    between atoms: C4_5  and  C5_6 
REMARK    3  A    between atoms: C7_8  and  N2_9 
REMARK    4  A    between atoms: N2_9  and  C8_10 
REMARK    5  A    between atoms: C13_16  and  N3_17 
ROOT
HETATM    1  C5  UNL     1      24.091   0.607  53.061  1.00  0.00     0.062 C 
HETATM    2  C6  UNL     1      23.423   1.722  52.840  1.00  0.00     0.064 C 
HETATM    3  C7  UNL     1      22.052   2.217  52.643  1.00  0.00     0.066 C 
HETATM    4  C14 UNL     1      20.897   1.596  52.805  1.00  0.00     0.116 C 
HETATM    5  N4  UNL     1      20.719   0.729  53.714  1.00  0.00    -0.236 NA
HETATM    6  C15 UNL     1      21.191  -0.595  54.019  1.00  0.00     0.255 C 
HETATM    7  N5  UNL     1      22.341  -1.196  53.805  1.00  0.00    -0.168 NA
HETATM    8  N6  UNL     1      23.526  -0.703  53.178  1.00  0.00    -0.276 N 
HETATM    9  H13 UNL     1      24.129  -1.434  52.686  1.00  0.00     0.189 HD
ENDROOT
BRANCH   3  10
HETATM   10  N2  UNL     1      21.985   3.552  52.220  1.00  0.00    -0.352 N 
HETATM   11  H6  UNL     1      21.360   4.173  52.779  1.00  0.00     0.166 HD
BRANCH  10  12
HETATM   12  C8  UNL     1      22.753   3.947  51.092  1.00  0.00     0.060 A 
HETATM   13  C9  UNL     1      22.604   3.294  49.863  1.00  0.00     0.032 A 
HETATM   14  C10 UNL     1      23.375   3.709  48.770  1.00  0.00     0.004 A 
HETATM   15  C11 UNL     1      24.253   4.753  48.964  1.00  0.00     0.026 A 
HETATM   16  C12 UNL     1      24.433   5.425  50.153  1.00  0.00     0.062 A 
HETATM   17 CL1  UNL     1      25.563   6.744  50.340  1.00  0.00    -0.082 Cl
HETATM   18  C13 UNL     1      23.663   5.003  51.226  1.00  0.00     0.074 A 
BRANCH  18  19
HETATM   19  N3  UNL     1      23.795   5.650  52.487  1.00  0.00    -0.396 N 
HETATM   20  H10 UNL     1      23.201   5.779  53.314  1.00  0.00     0.156 HD
HETATM   21  H11 UNL     1      24.741   6.080  52.530  1.00  0.00     0.156 HD
ENDBRANCH  18  19
ENDBRANCH  10  12
ENDBRANCH   3  10
BRANCH   1  22
HETATM   22  C4  UNL     1      25.531   0.637  53.188  1.00  0.00    -0.008 A 
HETATM   23  C3  UNL     1      26.389  -0.418  53.046  1.00  0.00     0.016 A 
HETATM   24  C2  UNL     1      27.762  -0.356  53.151  1.00  0.00     0.030 A 
HETATM   25  C1  UNL     1      28.369   0.858  53.425  1.00  0.00     0.025 A 
HETATM   26  C17 UNL     1      27.518   1.954  53.575  1.00  0.00     0.030 A 
HETATM   27  C16 UNL     1      26.160   1.825  53.457  1.00  0.00     0.016 A 
BRANCH  25  28
HETATM   28  N1  UNL     1      29.777   0.943  53.538  1.00  0.00    -0.399 N 
HETATM   29  H1  UNL     1      30.351   0.325  52.919  1.00  0.00     0.156 HD
HETATM   30  H2  UNL     1      30.215   1.612  54.226  1.00  0.00     0.156 HD
ENDBRANCH  25  28
ENDBRANCH   1  22
TORSDOF 5
ENDMDL
MODEL 4
REMARK VINA RESULT:      -7.7      2.172      2.580
REMARK  5 active torsions:
REMARK  status: ('A' for Active; 'I' for Inactive)
REMARK    1  A    between atoms: N1_1  and  C1_2 
REMARK    2  A    between atoms: C4_5  and  C5_6 
REMARK    3  A    between atoms: C7_8  and  N2_9 
REMARK    4  A    between atoms: N2_9  and  C8_10 
REMARK    5  A    between atoms: C13_16  and  N3_17 
ROOT
HETATM    1  C5  UNL     1      24.156   0.895  52.929  1.00  0.00     0.062 C 
HETATM    2  C6  UNL     1      24.393   1.630  51.861  1.00  0.00     0.064 C 
HETATM    3  C7  UNL     1      25.469   2.389  51.207  1.00  0.00     0.066 C 
HETATM    4  C14 UNL     1      26.760   2.434  51.482  1.00  0.00     0.116 C 
HETATM    5  N4  UNL     1      27.394   1.419  51.905  1.00  0.00    -0.236 NA
HETATM    6  C15 UNL     1      27.423   0.610  53.093  1.00  0.00     0.255 C 
HETATM    7  N5  UNL     1      26.487   0.261  53.948  1.00  0.00    -0.168 NA
HETATM    8  N6  UNL     1      25.097   0.591  53.966  1.00  0.00    -0.276 N 
HETATM    9  H13 UNL     1      24.640   0.630  54.931  1.00  0.00     0.189 HD
ENDROOT
BRANCH   3  10
HETATM   10  N2  UNL     1      25.036   3.179  50.132  1.00  0.00    -0.352 N 
HETATM   11  H6  UNL     1      24.769   2.659  49.268  1.00  0.00     0.166 HD
BRANCH  10  12
HETATM   12  C8  UNL     1      24.993   4.589  50.298  1.00  0.00     0.060 A 
HETATM   13  C9  UNL     1      24.023   5.183  51.114  1.00  0.00     0.032 A 
HETATM   14  C10 UNL     1      24.010   6.576  51.257  1.00  0.00     0.004 A 
HETATM   15  C11 UNL     1      24.966   7.300  50.578  1.00  0.00     0.026 A 
HETATM   16  C12 UNL     1      25.938   6.760  49.766  1.00  0.00     0.062 A 
HETATM   17 CL1  UNL     1      27.125   7.730  48.928  1.00  0.00    -0.082 Cl
HETATM   18  C13 UNL     1      25.939   5.380  49.633  1.00  0.00     0.074 A 
BRANCH  18  19
HETATM   19  N3  UNL     1      26.914   4.751  48.810  1.00  0.00    -0.396 N 
HETATM   20  H10 UNL     1      26.898   4.127  47.994  1.00  0.00     0.156 HD
HETATM   21  H11 UNL     1      27.855   5.021  49.162  1.00  0.00     0.156 HD
ENDBRANCH  18  19
ENDBRANCH  10  12
ENDBRANCH   3  10
BRANCH   1  22
HETATM   22  C4  UNL     1      22.845   0.328  53.145  1.00  0.00    -0.008 A 
HETATM   23  C3  UNL     1      21.698   0.627  52.464  1.00  0.00     0.016 A 
HETATM   24  C2  UNL     1      20.463   0.053  52.677  1.00  0.00     0.030 A 
HETATM   25  C1  UNL     1      20.324  -0.915  53.657  1.00  0.00     0.025 A 
HETATM   26  C17 UNL     1      21.478  -1.243  54.369  1.00  0.00     0.030 A 
HETATM   27  C16 UNL     1      22.675  -0.635  54.108  1.00  0.00     0.016 A 
BRANCH  25  28
HETATM   28  N1  UNL     1      19.064  -1.516  53.892  1.00  0.00    -0.399 N 
HETATM   29  H1  UNL     1      18.217  -0.907  53.825  1.00  0.00     0.156 HD
HETATM   30  H2  UNL     1      19.001  -2.544  54.123  1.00  0.00     0.156 HD
ENDBRANCH  25  28
ENDBRANCH   1  22
TORSDOF 5
ENDMDL
MODEL 5
REMARK VINA RESULT:      -7.7      2.662      6.067
REMARK  5 active torsions:
REMARK  status: ('A' for Active; 'I' for Inactive)
REMARK    1  A    between atoms: N1_1  and  C1_2 
REMARK    2  A    between atoms: C4_5  and  C5_6 
REMARK    3  A    between atoms: C7_8  and  N2_9 
REMARK    4  A    between atoms: N2_9  and  C8_10 
REMARK    5  A    between atoms: C13_16  and  N3_17 
ROOT
HETATM    1  C5  UNL     1      24.407   2.027  52.818  1.00  0.00     0.062 C 
HETATM    2  C6  UNL     1      23.450   1.574  52.033  1.00  0.00     0.064 C 
HETATM    3  C7  UNL     1      22.148   1.964  51.470  1.00  0.00     0.066 C 
HETATM    4  C14 UNL     1      21.539   3.137  51.480  1.00  0.00     0.116 C 
HETATM    5  N4  UNL     1      22.180   4.229  51.404  1.00  0.00    -0.236 NA
HETATM    6  C15 UNL     1      23.096   4.977  52.222  1.00  0.00     0.255 C 
HETATM    7  N5  UNL     1      24.021   4.606  53.080  1.00  0.00    -0.168 NA
HETATM    8  N6  UNL     1      24.420   3.295  53.483  1.00  0.00    -0.276 N 
HETATM    9  H13 UNL     1      24.805   3.211  54.476  1.00  0.00     0.189 HD
ENDROOT
BRANCH   3  10
HETATM   10  N2  UNL     1      21.468   0.918  50.831  1.00  0.00    -0.352 N 
HETATM   11  H6  UNL     1      21.873   0.603  49.922  1.00  0.00     0.166 HD
BRANCH  10  12
HETATM   12  C8  UNL     1      20.311   0.379  51.454  1.00  0.00     0.060 A 
HETATM   13  C9  UNL     1      20.389  -0.205  52.724  1.00  0.00     0.032 A 
HETATM   14  C10 UNL     1      19.229  -0.726  53.310  1.00  0.00     0.004 A 
HETATM   15  C11 UNL     1      18.054  -0.637  52.596  1.00  0.00     0.026 A 
HETATM   16  C12 UNL     1      17.929  -0.073  51.345  1.00  0.00     0.062 A 
HETATM   17 CL1  UNL     1      16.410   0.011  50.487  1.00  0.00    -0.082 Cl
HETATM   18  C13 UNL     1      19.085   0.439  50.777  1.00  0.00     0.074 A 
BRANCH  18  19
HETATM   19  N3  UNL     1      19.033   1.036  49.487  1.00  0.00    -0.396 N 
HETATM   20  H10 UNL     1      19.707   1.483  48.855  1.00  0.00     0.156 HD
HETATM   21  H11 UNL     1      18.052   0.981  49.147  1.00  0.00     0.156 HD
ENDBRANCH  18  19
ENDBRANCH  10  12
ENDBRANCH   3  10
BRANCH   1  22
HETATM   22  C4  UNL     1      25.570   1.213  53.088  1.00  0.00    -0.008 A 
HETATM   23  C3  UNL     1      26.330   1.217  54.225  1.00  0.00     0.016 A 
HETATM   24  C2  UNL     1      27.422   0.413  54.465  1.00  0.00     0.030 A 
HETATM   25  C1  UNL     1      27.824  -0.494  53.499  1.00  0.00     0.025 A 
HETATM   26  C17 UNL     1      27.068  -0.522  52.326  1.00  0.00     0.030 A 
HETATM   27  C16 UNL     1      25.992   0.305  52.151  1.00  0.00     0.016 A 
BRANCH  25  28
HETATM   28  N1  UNL     1      28.944  -1.329  53.725  1.00  0.00    -0.399 N 
HETATM   29  H1  UNL     1      29.784  -1.188  53.118  1.00  0.00     0.156 HD
HETATM   30  H2  UNL     1      28.916  -2.061  54.484  1.00  0.00     0.156 HD
ENDBRANCH  25  28
ENDBRANCH   1  22
TORSDOF 5
ENDMDL
MODEL 6
REMARK VINA RESULT:      -7.7      4.016      8.131
REMARK  5 active torsions:
REMARK  status: ('A' for Active; 'I' for Inactive)
REMARK    1  A    between atoms: N1_1  and  C1_2 
REMARK    2  A    between atoms: C4_5  and  C5_6 
REMARK    3  A    between atoms: C7_8  and  N2_9 
REMARK    4  A    between atoms: N2_9  and  C8_10 
REMARK    5  A    between atoms: C13_16  and  N3_17 
ROOT
HETATM    1  C5  UNL     1      25.253   5.411  49.177  1.00  0.00     0.062 C 
HETATM    2  C6  UNL     1      25.100   4.758  50.312  1.00  0.00     0.064 C 
HETATM    3  C7  UNL     1      24.052   4.212  51.188  1.00  0.00     0.066 C 
HETATM    4  C14 UNL     1      22.756   4.073  50.972  1.00  0.00     0.116 C 
HETATM    5  N4  UNL     1      22.290   3.796  49.825  1.00  0.00    -0.236 NA
HETATM    6  C15 UNL     1      22.183   4.439  48.543  1.00  0.00     0.255 C 
HETATM    7  N5  UNL     1      22.960   5.293  47.914  1.00  0.00    -0.168 NA
HETATM    8  N6  UNL     1      24.200   5.871  48.323  1.00  0.00    -0.276 N 
HETATM    9  H13 UNL     1      24.410   6.844  47.933  1.00  0.00     0.189 HD
ENDROOT
BRANCH   3  10
HETATM   10  N2  UNL     1      24.523   3.778  52.435  1.00  0.00    -0.352 N 
HETATM   11  H6  UNL     1      24.782   4.533  53.108  1.00  0.00     0.166 HD
BRANCH  10  12
HETATM   12  C8  UNL     1      24.607   2.382  52.682  1.00  0.00     0.060 A 
HETATM   13  C9  UNL     1      23.463   1.644  53.006  1.00  0.00     0.032 A 
HETATM   14  C10 UNL     1      23.580   0.269  53.243  1.00  0.00     0.004 A 
HETATM   15  C11 UNL     1      24.834  -0.295  53.144  1.00  0.00     0.026 A 
HETATM   16  C12 UNL     1      25.987   0.391  52.829  1.00  0.00     0.062 A 
HETATM   17 CL1  UNL     1      27.551  -0.378  52.718  1.00  0.00    -0.082 Cl
HETATM   18  C13 UNL     1      25.855   1.751  52.597  1.00  0.00     0.074 A 
BRANCH  18  19
HETATM   19  N3  UNL     1      27.003   2.525  52.267  1.00  0.00    -0.396 N 
HETATM   20  H10 UNL     1      27.997   2.332  52.096  1.00  0.00     0.156 HD
HETATM   21  H11 UNL     1      26.709   3.520  52.192  1.00  0.00     0.156 HD
ENDBRANCH  18  19
ENDBRANCH  10  12
ENDBRANCH   3  10
BRANCH   1  22
HETATM   22  C4  UNL     1      26.578   5.742  48.703  1.00  0.00    -0.008 A 
HETATM   23  C3  UNL     1      27.679   4.932  48.711  1.00  0.00     0.016 A 
HETATM   24  C2  UNL     1      28.926   5.267  48.230  1.00  0.00     0.030 A 
HETATM   25  C1  UNL     1      29.130   6.522  47.684  1.00  0.00     0.025 A 
HETATM   26  C17 UNL     1      28.023   7.372  47.661  1.00  0.00     0.030 A 
HETATM   27  C16 UNL     1      26.810   6.977  48.155  1.00  0.00     0.016 A 
BRANCH  25  28
HETATM   28  N1  UNL     1      30.404   6.886  47.185  1.00  0.00    -0.399 N 
HETATM   29  H1  UNL     1      30.457   7.719  46.555  1.00  0.00     0.156 HD
HETATM   30  H2  UNL     1      31.257   6.327  47.452  1.00  0.00     0.156 HD
ENDBRANCH  25  28
ENDBRANCH   1  22
TORSDOF 5
ENDMDL
MODEL 7
REMARK VINA RESULT:      -7.6      1.698      2.355
REMARK  5 active torsions:
REMARK  status: ('A' for Active; 'I' for Inactive)
REMARK    1  A    between atoms: N1_1  and  C1_2 
REMARK    2  A    between atoms: C4_5  and  C5_6 
REMARK    3  A    between atoms: C7_8  and  N2_9 
REMARK    4  A    between atoms: N2_9  and  C8_10 
REMARK    5  A    between atoms: C13_16  and  N3_17 
ROOT
HETATM    1  C5  UNL     1      22.680   0.766  52.757  1.00  0.00     0.062 C 
HETATM    2  C6  UNL     1      23.599   1.632  52.379  1.00  0.00     0.064 C 
HETATM    3  C7  UNL     1      24.940   2.114  52.744  1.00  0.00     0.066 C 
HETATM    4  C14 UNL     1      25.805   1.627  53.616  1.00  0.00     0.116 C 
HETATM    5  N4  UNL     1      25.924   0.381  53.822  1.00  0.00    -0.236 NA
HETATM    6  C15 UNL     1      25.133  -0.677  54.392  1.00  0.00     0.255 C 
HETATM    7  N5  UNL     1      23.837  -0.894  54.423  1.00  0.00    -0.168 NA
HETATM    8  N6  UNL     1      22.768  -0.116  53.881  1.00  0.00    -0.276 N 
HETATM    9  H13 UNL     1      21.836  -0.183  54.399  1.00  0.00     0.189 HD
ENDROOT
BRANCH   3  10
HETATM   10  N2  UNL     1      25.339   3.265  52.050  1.00  0.00    -0.352 N 
HETATM   11  H6  UNL     1      26.276   3.646  52.308  1.00  0.00     0.166 HD
BRANCH  10  12
HETATM   12  C8  UNL     1      24.463   3.809  51.074  1.00  0.00     0.060 A 
HETATM   13  C9  UNL     1      24.375   3.240  49.797  1.00  0.00     0.032 A 
HETATM   14  C10 UNL     1      23.500   3.800  48.858  1.00  0.00     0.004 A 
HETATM   15  C11 UNL     1      22.761   4.897  49.244  1.00  0.00     0.026 A 
HETATM   16  C12 UNL     1      22.813   5.489  50.487  1.00  0.00     0.062 A 
HETATM   17 CL1  UNL     1      21.850   6.881  50.920  1.00  0.00    -0.082 Cl
HETATM   18  C13 UNL     1      23.684   4.924  51.407  1.00  0.00     0.074 A 
BRANCH  18  19
HETATM   19  N3  UNL     1      23.792   5.483  52.711  1.00  0.00    -0.396 N 
HETATM   20  H10 UNL     1      23.215   6.094  53.301  1.00  0.00     0.156 HD
HETATM   21  H11 UNL     1      24.692   5.163  53.123  1.00  0.00     0.156 HD
ENDBRANCH  18  19
ENDBRANCH  10  12
ENDBRANCH   3  10
BRANCH   1  22
HETATM   22  C4  UNL     1      21.438   0.659  52.025  1.00  0.00    -0.008 A 
HETATM   23  C3  UNL     1      20.233   0.233  52.509  1.00  0.00     0.016 A 
HETATM   24  C2  UNL     1      19.059   0.161  51.792  1.00  0.00     0.030 A 
HETATM   25  C1  UNL     1      19.050   0.543  50.461  1.00  0.00     0.025 A 
HETATM   26  C17 UNL     1      20.266   0.984  49.938  1.00  0.00     0.030 A 
HETATM   27  C16 UNL     1      21.399   1.031  50.705  1.00  0.00     0.016 A 
BRANCH  25  28
HETATM   28  N1  UNL     1      17.854   0.477  49.707  1.00  0.00    -0.399 N 
HETATM   29  H1  UNL     1      16.955   0.383  50.233  1.00  0.00     0.156 HD
HETATM   30  H2  UNL     1      17.888   0.523  48.654  1.00  0.00     0.156 HD
ENDBRANCH  25  28
ENDBRANCH   1  22
TORSDOF 5
ENDMDL
MODEL 8
REMARK VINA RESULT:      -7.6      2.559      5.016
REMARK  5 active torsions:
REMARK  status: ('A' for Active; 'I' for Inactive)
REMARK    1  A    between atoms: N1_1  and  C1_2 
REMARK    2  A    between atoms: C4_5  and  C5_6 
REMARK    3  A    between atoms: C7_8  and  N2_9 
REMARK    4  A    between atoms: N2_9  and  C8_10 
REMARK    5  A    between atoms: C13_16  and  N3_17 
ROOT
HETATM    1  C5  UNL     1      23.343   1.710  52.245  1.00  0.00     0.062 C 
HETATM    2  C6  UNL     1      23.365   3.022  52.370  1.00  0.00     0.064 C 
HETATM    3  C7  UNL     1      22.501   4.202  52.221  1.00  0.00     0.066 C 
HETATM    4  C14 UNL     1      21.196   4.277  52.027  1.00  0.00     0.116 C 
HETATM    5  N4  UNL     1      20.390   3.443  52.541  1.00  0.00    -0.236 NA
HETATM    6  C15 UNL     1      20.081   2.046  52.399  1.00  0.00     0.255 C 
HETATM    7  N5  UNL     1      20.823   1.001  52.106  1.00  0.00    -0.168 NA
HETATM    8  N6  UNL     1      22.222   0.924  51.825  1.00  0.00    -0.276 N 
HETATM    9  H13 UNL     1      22.522   0.136  51.170  1.00  0.00     0.189 HD
ENDROOT
BRANCH   3  10
HETATM   10  N2  UNL     1      23.187   5.423  52.300  1.00  0.00    -0.352 N 
HETATM   11  H6  UNL     1      23.585   5.658  53.235  1.00  0.00     0.166 HD
BRANCH  10  12
HETATM   12  C8  UNL     1      23.285   6.224  51.132  1.00  0.00     0.060 A 
HETATM   13  C9  UNL     1      22.257   7.107  50.783  1.00  0.00     0.032 A 
HETATM   14  C10 UNL     1      22.386   7.884  49.625  1.00  0.00     0.004 A 
HETATM   15  C11 UNL     1      23.534   7.737  48.878  1.00  0.00     0.026 A 
HETATM   16  C12 UNL     1      24.571   6.882  49.181  1.00  0.00     0.062 A 
HETATM   17 CL1  UNL     1      26.005   6.738  48.194  1.00  0.00    -0.082 Cl
HETATM   18  C13 UNL     1      24.430   6.119  50.330  1.00  0.00     0.074 A 
BRANCH  18  19
HETATM   19  N3  UNL     1      25.460   5.214  50.707  1.00  0.00    -0.396 N 
HETATM   20  H10 UNL     1      26.445   5.072  50.455  1.00  0.00     0.156 HD
HETATM   21  H11 UNL     1      25.068   4.556  51.411  1.00  0.00     0.156 HD
ENDBRANCH  18  19
ENDBRANCH  10  12
ENDBRANCH   3  10
BRANCH   1  22
HETATM   22  C4  UNL     1      24.529   0.933  52.525  1.00  0.00    -0.008 A 
HETATM   23  C3  UNL     1      25.744   1.038  51.908  1.00  0.00     0.016 A 
HETATM   24  C2  UNL     1      26.867   0.298  52.211  1.00  0.00     0.030 A 
HETATM   25  C1  UNL     1      26.806  -0.646  53.222  1.00  0.00     0.025 A 
HETATM   26  C17 UNL     1      25.577  -0.776  53.871  1.00  0.00     0.030 A 
HETATM   27  C16 UNL     1      24.500  -0.009  53.521  1.00  0.00     0.016 A 
BRANCH  25  28
HETATM   28  N1  UNL     1      27.947  -1.417  53.548  1.00  0.00    -0.399 N 
HETATM   29  H1  UNL     1      28.867  -1.109  53.158  1.00  0.00     0.156 HD
HETATM   30  H2  UNL     1      27.854  -2.267  54.166  1.00  0.00     0.156 HD
ENDBRANCH  25  28
ENDBRANCH   1  22
TORSDOF 5
ENDMDL
MODEL 9
REMARK VINA RESULT:      -7.6      2.551      4.932
REMARK  5 active torsions:
REMARK  status: ('A' for Active; 'I' for Inactive)
REMARK    1  A    between atoms: N1_1  and  C1_2 
REMARK    2  A    between atoms: C4_5  and  C5_6 
REMARK    3  A    between atoms: C7_8  and  N2_9 
REMARK    4  A    between atoms: N2_9  and  C8_10 
REMARK    5  A    between atoms: C13_16  and  N3_17 
ROOT
HETATM    1  C5  UNL     1      21.047   1.703  52.022  1.00  0.00     0.062 C 
HETATM    2  C6  UNL     1      22.339   1.504  51.860  1.00  0.00     0.064 C 
HETATM    3  C7  UNL     1      23.562   2.200  51.429  1.00  0.00     0.066 C 
HETATM    4  C14 UNL     1      23.762   3.482  51.179  1.00  0.00     0.116 C 
HETATM    5  N4  UNL     1      23.174   4.395  51.834  1.00  0.00    -0.236 NA
HETATM    6  C15 UNL     1      21.833   4.890  51.989  1.00  0.00     0.255 C 
HETATM    7  N5  UNL     1      20.661   4.295  51.955  1.00  0.00    -0.168 NA
HETATM    8  N6  UNL     1      20.342   2.918  51.745  1.00  0.00    -0.276 N 
HETATM    9  H13 UNL     1      19.396   2.725  51.287  1.00  0.00     0.189 HD
ENDROOT
BRANCH   3  10
HETATM   10  N2  UNL     1      24.669   1.356  51.264  1.00  0.00    -0.352 N 
HETATM   11  H6  UNL     1      24.819   0.989  50.299  1.00  0.00     0.166 HD
BRANCH  10  12
HETATM   12  C8  UNL     1      25.481   1.071  52.395  1.00  0.00     0.060 A 
HETATM   13  C9  UNL     1      25.109   0.079  53.309  1.00  0.00     0.032 A 
HETATM   14  C10 UNL     1      25.933  -0.178  54.412  1.00  0.00     0.004 A 
HETATM   15  C11 UNL     1      27.082   0.572  54.543  1.00  0.00     0.026 A 
HETATM   16  C12 UNL     1      27.488   1.557  53.670  1.00  0.00     0.062 A 
HETATM   17 CL1  UNL     1      28.958   2.475  53.888  1.00  0.00    -0.082 Cl
HETATM   18  C13 UNL     1      26.663   1.800  52.582  1.00  0.00     0.074 A 
BRANCH  18  19
HETATM   19  N3  UNL     1      27.017   2.803  51.638  1.00  0.00    -0.396 N 
HETATM   20  H10 UNL     1      27.435   2.818  50.701  1.00  0.00     0.156 HD
HETATM   21  H11 UNL     1      26.772   3.728  52.046  1.00  0.00     0.156 HD
ENDBRANCH  18  19
ENDBRANCH  10  12
ENDBRANCH   3  10
BRANCH   1  22
HETATM   22  C4  UNL     1      20.202   0.634  52.504  1.00  0.00    -0.008 A 
HETATM   23  C3  UNL     1      18.930   0.344  52.095  1.00  0.00     0.016 A 
HETATM   24  C2  UNL     1      18.155  -0.697  52.557  1.00  0.00     0.030 A 
HETATM   25  C1  UNL     1      18.667  -1.550  53.520  1.00  0.00     0.025 A 
HETATM   26  C17 UNL     1      19.964  -1.280  53.957  1.00  0.00     0.030 A 
HETATM   27  C16 UNL     1      20.682  -0.228  53.457  1.00  0.00     0.016 A 
BRANCH  25  28
HETATM   28  N1  UNL     1      17.886  -2.626  54.008  1.00  0.00    -0.399 N 
HETATM   29  H1  UNL     1      17.894  -3.517  53.462  1.00  0.00     0.156 HD
HETATM   30  H2  UNL     1      17.324  -2.514  54.894  1.00  0.00     0.156 HD
ENDBRANCH  25  28
ENDBRANCH   1  22
TORSDOF 5
ENDMDL
