MODEL 1
REMARK VINA RESULT:      -7.6      0.000      0.000
REMARK  4 active torsions:
REMARK  status: ('A' for Active; 'I' for Inactive)
REMARK    1  A    between atoms: C4_4  and  C5_5 
REMARK    2  A    between atoms: C6_6  and  C7_7 
REMARK    3  A    between atoms: C7_7  and  N1_8 
REMARK    4  A    between atoms: C9_10  and  C10_11 
ROOT
HETATM    1  C1  UNL     1      27.024  -2.303  52.470  1.00  0.00     0.017 C 
HETATM    2  C2  UNL     1      28.153  -2.312  52.892  1.00  0.00    -0.089 C 
HETATM    3  C3  UNL     1      29.490  -2.348  53.396  1.00  0.00     0.063 C 
HETATM    4  C4  UNL     1      30.014  -1.180  53.732  1.00  0.00     0.009 C 
ENDROOT
BRANCH   4   5
HETATM    5  C5  UNL     1      29.081  -0.083  53.507  1.00  0.00    -0.002 C 
HETATM    6  C6  UNL     1      29.331   1.193  53.756  1.00  0.00    -0.006 C 
BRANCH   6   7
HETATM    7  C7  UNL     1      28.544   2.440  53.606  1.00  0.00     0.173 C 
BRANCH   7   8
HETATM    8  N1  UNL     1      27.263   2.202  52.929  1.00  0.00    -0.279 N 
HETATM    9  C8  UNL     1      26.120   1.719  53.479  1.00  0.00     0.143 A 
HETATM   10  C9  UNL     1      25.174   1.665  52.467  1.00  0.00     0.120 A 
HETATM   11  N4  UNL     1      25.770   2.116  51.336  1.00  0.00    -0.156 NA
HETATM   12  N5  UNL     1      27.041   2.440  51.629  1.00  0.00     0.005 NA
BRANCH  10  13
HETATM   13  C10 UNL     1      23.788   1.211  52.569  1.00  0.00     0.090 A 
HETATM   14  C11 UNL     1      22.772   1.721  51.784  1.00  0.00     0.036 A 
HETATM   15  C12 UNL     1      21.627   1.055  52.166  1.00  0.00     0.030 A 
HETATM   16  C13 UNL     1      22.009   0.188  53.151  1.00  0.00     0.041 A 
HETATM   17  N2  UNL     1      23.346   0.266  53.419  1.00  0.00    -0.236 N 
HETATM   18  C15 UNL     1      21.374  -0.849  54.043  1.00  0.00     0.107 A 
HETATM   19  N3  UNL     1      23.635  -0.649  54.426  1.00  0.00    -0.183 NA
HETATM   20  C14 UNL     1      22.587  -1.295  54.813  1.00  0.00     0.118 A 
ENDBRANCH  10  13
ENDBRANCH   7   8
ENDBRANCH   6   7
ENDBRANCH   4   5
TORSDOF 4
ENDMDL
MODEL 2
REMARK VINA RESULT:      -7.4      1.459      5.955
REMARK  4 active torsions:
REMARK  status: ('A' for Active; 'I' for Inactive)
REMARK    1  A    between atoms: C4_4  and  C5_5 
REMARK    2  A    between atoms: C6_6  and  C7_7 
REMARK    3  A    between atoms: C7_7  and  N1_8 
REMARK    4  A    between atoms: C9_10  and  C10_11 
ROOT
HETATM    1  C1  UNL     1      23.541  -1.266  55.451  1.00  0.00     0.017 C 
HETATM    2  C2  UNL     1      22.456  -1.344  54.933  1.00  0.00    -0.089 C 
HETATM    3  C3  UNL     1      21.169  -1.461  54.323  1.00  0.00     0.063 C 
HETATM    4  C4  UNL     1      20.803  -0.457  53.543  1.00  0.00     0.009 C 
ENDROOT
BRANCH   4   5
HETATM    5  C5  UNL     1      21.828   0.577  53.475  1.00  0.00    -0.002 C 
HETATM    6  C6  UNL     1      21.750   1.681  52.750  1.00  0.00    -0.006 C 
BRANCH   6   7
HETATM    7  C7  UNL     1      22.654   2.837  52.540  1.00  0.00     0.173 C 
BRANCH   7   8
HETATM    8  N1  UNL     1      24.040   2.413  52.307  1.00  0.00    -0.279 N 
HETATM    9  C8  UNL     1      25.012   2.235  53.238  1.00  0.00     0.143 A 
HETATM   10  C9  UNL     1      26.153   1.832  52.561  1.00  0.00     0.120 A 
HETATM   11  N4  UNL     1      25.840   1.778  51.243  1.00  0.00    -0.156 NA
HETATM   12  N5  UNL     1      24.552   2.133  51.101  1.00  0.00     0.005 NA
BRANCH  10  13
HETATM   13  C10 UNL     1      27.462   1.518  53.132  1.00  0.00     0.090 A 
HETATM   14  C11 UNL     1      28.280   2.473  53.705  1.00  0.00     0.036 A 
HETATM   15  C12 UNL     1      29.410   1.804  54.122  1.00  0.00     0.030 A 
HETATM   16  C13 UNL     1      29.216   0.493  53.783  1.00  0.00     0.041 A 
HETATM   17  N2  UNL     1      28.014   0.292  53.167  1.00  0.00    -0.236 N 
HETATM   18  C15 UNL     1      29.955  -0.816  53.893  1.00  0.00     0.107 A 
HETATM   19  N3  UNL     1      27.911  -1.062  52.864  1.00  0.00    -0.183 NA
HETATM   20  C14 UNL     1      28.951  -1.727  53.239  1.00  0.00     0.118 A 
ENDBRANCH  10  13
ENDBRANCH   7   8
ENDBRANCH   6   7
ENDBRANCH   4   5
TORSDOF 4
ENDMDL
MODEL 3
REMARK VINA RESULT:      -7.0      3.451      5.266
REMARK  4 active torsions:
REMARK  status: ('A' for Active; 'I' for Inactive)
REMARK    1  A    between atoms: C4_4  and  C5_5 
REMARK    2  A    between atoms: C6_6  and  C7_7 
REMARK    3  A    between atoms: C7_7  and  N1_8 
REMARK    4  A    between atoms: C9_10  and  C10_11 
ROOT
HETATM    1  C1  UNL     1      26.417   2.914  49.872  1.00  0.00     0.017 C 
HETATM    2  C2  UNL     1      26.798   3.922  49.332  1.00  0.00    -0.089 C 
HETATM    3  C3  UNL     1      27.276   5.108  48.693  1.00  0.00     0.063 C 
HETATM    4  C4  UNL     1      26.451   6.143  48.703  1.00  0.00     0.009 C 
ENDROOT
BRANCH   4   5
HETATM    5  C5  UNL     1      25.203   5.835  49.388  1.00  0.00    -0.002 C 
HETATM    6  C6  UNL     1      24.738   6.473  50.451  1.00  0.00    -0.006 C 
BRANCH   6   7
HETATM    7  C7  UNL     1      23.522   6.327  51.285  1.00  0.00     0.173 C 
BRANCH   7   8
HETATM    8  N1  UNL     1      23.155   4.918  51.478  1.00  0.00    -0.279 N 
HETATM    9  C8  UNL     1      23.797   4.001  52.247  1.00  0.00     0.143 A 
HETATM   10  C9  UNL     1      23.097   2.810  52.127  1.00  0.00     0.120 A 
HETATM   11  N4  UNL     1      22.054   3.041  51.291  1.00  0.00    -0.156 NA
HETATM   12  N5  UNL     1      22.100   4.326  50.904  1.00  0.00     0.005 NA
BRANCH  10  13
HETATM   13  C10 UNL     1      23.400   1.532  52.767  1.00  0.00     0.090 A 
HETATM   14  C11 UNL     1      24.665   0.976  52.772  1.00  0.00     0.036 A 
HETATM   15  C12 UNL     1      24.554  -0.213  53.461  1.00  0.00     0.030 A 
HETATM   16  C13 UNL     1      23.242  -0.311  53.831  1.00  0.00     0.041 A 
HETATM   17  N2  UNL     1      22.505   0.760  53.411  1.00  0.00    -0.236 N 
HETATM   18  C15 UNL     1      22.355  -1.272  54.580  1.00  0.00     0.107 A 
HETATM   19  N3  UNL     1      21.194   0.569  53.834  1.00  0.00    -0.183 NA
HETATM   20  C14 UNL     1      21.047  -0.536  54.485  1.00  0.00     0.118 A 
ENDBRANCH  10  13
ENDBRANCH   7   8
ENDBRANCH   6   7
ENDBRANCH   4   5
TORSDOF 4
ENDMDL
MODEL 4
REMARK VINA RESULT:      -6.9      2.846      5.832
REMARK  4 active torsions:
REMARK  status: ('A' for Active; 'I' for Inactive)
REMARK    1  A    between atoms: C4_4  and  C5_5 
REMARK    2  A    between atoms: C6_6  and  C7_7 
REMARK    3  A    between atoms: C7_7  and  N1_8 
REMARK    4  A    between atoms: C9_10  and  C10_11 
ROOT
HETATM    1  C1  UNL     1      21.229   0.281  51.281  1.00  0.00     0.017 C 
HETATM    2  C2  UNL     1      21.115   0.160  52.474  1.00  0.00    -0.089 C 
HETATM    3  C3  UNL     1      20.958   0.033  53.889  1.00  0.00     0.063 C 
HETATM    4  C4  UNL     1      22.010  -0.423  54.550  1.00  0.00     0.009 C 
ENDROOT
BRANCH   4   5
HETATM    5  C5  UNL     1      23.131  -0.699  53.660  1.00  0.00    -0.002 C 
HETATM    6  C6  UNL     1      24.392  -0.381  53.902  1.00  0.00    -0.006 C 
BRANCH   6   7
HETATM    7  C7  UNL     1      25.658  -0.563  53.153  1.00  0.00     0.173 C 
BRANCH   7   8
HETATM    8  N1  UNL     1      26.108   0.686  52.524  1.00  0.00    -0.279 N 
HETATM    9  C8  UNL     1      25.364   1.548  51.787  1.00  0.00     0.143 A 
HETATM   10  C9  UNL     1      26.204   2.583  51.402  1.00  0.00     0.120 A 
HETATM   11  N4  UNL     1      27.429   2.316  51.917  1.00  0.00    -0.156 NA
HETATM   12  N5  UNL     1      27.359   1.160  52.598  1.00  0.00     0.005 NA
BRANCH  10  13
HETATM   13  C10 UNL     1      25.863   3.752  50.595  1.00  0.00     0.090 A 
HETATM   14  C11 UNL     1      26.608   4.154  49.503  1.00  0.00     0.036 A 
HETATM   15  C12 UNL     1      25.982   5.278  49.009  1.00  0.00     0.030 A 
HETATM   16  C13 UNL     1      24.902   5.493  49.821  1.00  0.00     0.041 A 
HETATM   17  N2  UNL     1      24.807   4.559  50.812  1.00  0.00    -0.236 N 
HETATM   18  C15 UNL     1      23.767   6.477  49.942  1.00  0.00     0.107 A 
HETATM   19  N3  UNL     1      23.686   4.860  51.578  1.00  0.00    -0.183 NA
HETATM   20  C14 UNL     1      23.069   5.909  51.148  1.00  0.00     0.118 A 
ENDBRANCH  10  13
ENDBRANCH   7   8
ENDBRANCH   6   7
ENDBRANCH   4   5
TORSDOF 4
ENDMDL
MODEL 5
REMARK VINA RESULT:      -6.9      4.163      5.793
REMARK  4 active torsions:
REMARK  status: ('A' for Active; 'I' for Inactive)
REMARK    1  A    between atoms: C4_4  and  C5_5 
REMARK    2  A    between atoms: C6_6  and  C7_7 
REMARK    3  A    between atoms: C7_7  and  N1_8 
REMARK    4  A    between atoms: C9_10  and  C10_11 
ROOT
HETATM    1  C1  UNL     1      27.215   8.303  46.835  1.00  0.00     0.017 C 
HETATM    2  C2  UNL     1      28.159   7.606  47.107  1.00  0.00    -0.089 C 
HETATM    3  C3  UNL     1      29.293   6.790  47.410  1.00  0.00     0.063 C 
HETATM    4  C4  UNL     1      29.055   5.721  48.154  1.00  0.00     0.009 C 
ENDROOT
BRANCH   4   5
HETATM    5  C5  UNL     1      27.645   5.609  48.507  1.00  0.00    -0.002 C 
HETATM    6  C6  UNL     1      27.075   4.539  49.035  1.00  0.00    -0.006 C 
BRANCH   6   7
HETATM    7  C7  UNL     1      25.692   4.218  49.461  1.00  0.00     0.173 C 
BRANCH   7   8
HETATM    8  N1  UNL     1      25.661   3.137  50.454  1.00  0.00    -0.279 N 
HETATM    9  C8  UNL     1      24.569   2.627  51.079  1.00  0.00     0.143 A 
HETATM   10  C9  UNL     1      25.017   1.626  51.927  1.00  0.00     0.120 A 
HETATM   11  N4  UNL     1      26.365   1.560  51.792  1.00  0.00    -0.156 NA
HETATM   12  N5  UNL     1      26.744   2.483  50.893  1.00  0.00     0.005 NA
BRANCH  10  13
HETATM   13  C10 UNL     1      24.215   0.785  52.813  1.00  0.00     0.090 A 
HETATM   14  C11 UNL     1      24.754  -0.236  53.572  1.00  0.00     0.036 A 
HETATM   15  C12 UNL     1      23.701  -0.791  54.266  1.00  0.00     0.030 A 
HETATM   16  C13 UNL     1      22.592  -0.084  53.893  1.00  0.00     0.041 A 
HETATM   17  N2  UNL     1      22.886   0.900  52.992  1.00  0.00    -0.236 N 
HETATM   18  C15 UNL     1      21.115  -0.071  54.192  1.00  0.00     0.107 A 
HETATM   19  N3  UNL     1      21.702   1.560  52.678  1.00  0.00    -0.183 NA
HETATM   20  C14 UNL     1      20.688   1.069  53.308  1.00  0.00     0.118 A 
ENDBRANCH  10  13
ENDBRANCH   7   8
ENDBRANCH   6   7
ENDBRANCH   4   5
TORSDOF 4
ENDMDL
MODEL 6
REMARK VINA RESULT:      -6.9      2.492      7.321
REMARK  4 active torsions:
REMARK  status: ('A' for Active; 'I' for Inactive)
REMARK    1  A    between atoms: C4_4  and  C5_5 
REMARK    2  A    between atoms: C6_6  and  C7_7 
REMARK    3  A    between atoms: C7_7  and  N1_8 
REMARK    4  A    between atoms: C9_10  and  C10_11 
ROOT
HETATM    1  C1  UNL     1      16.696  -0.763  52.860  1.00  0.00     0.017 C 
HETATM    2  C2  UNL     1      17.168  -0.346  51.833  1.00  0.00    -0.089 C 
HETATM    3  C3  UNL     1      17.707   0.140  50.601  1.00  0.00     0.063 C 
HETATM    4  C4  UNL     1      18.993   0.451  50.614  1.00  0.00     0.009 C 
ENDROOT
BRANCH   4   5
HETATM    5  C5  UNL     1      19.593   0.220  51.922  1.00  0.00    -0.002 C 
HETATM    6  C6  UNL     1      20.861  -0.093  52.135  1.00  0.00    -0.006 C 
BRANCH   6   7
HETATM    7  C7  UNL     1      21.661  -0.365  53.352  1.00  0.00     0.173 C 
BRANCH   7   8
HETATM    8  N1  UNL     1      23.002   0.229  53.272  1.00  0.00    -0.279 N 
HETATM    9  C8  UNL     1      24.185  -0.374  53.555  1.00  0.00     0.143 A 
HETATM   10  C9  UNL     1      25.181   0.566  53.337  1.00  0.00     0.120 A 
HETATM   11  N4  UNL     1      24.573   1.708  52.929  1.00  0.00    -0.156 NA
HETATM   12  N5  UNL     1      23.247   1.490  52.893  1.00  0.00     0.005 NA
BRANCH  10  13
HETATM   13  C10 UNL     1      26.622   0.391  53.506  1.00  0.00     0.090 A 
HETATM   14  C11 UNL     1      27.462   1.414  53.902  1.00  0.00     0.036 A 
HETATM   15  C12 UNL     1      28.727   0.871  53.947  1.00  0.00     0.030 A 
HETATM   16  C13 UNL     1      28.586  -0.439  53.579  1.00  0.00     0.041 A 
HETATM   17  N2  UNL     1      27.288  -0.760  53.301  1.00  0.00    -0.236 N 
HETATM   18  C15 UNL     1      29.460  -1.653  53.390  1.00  0.00     0.107 A 
HETATM   19  N3  UNL     1      27.248  -2.103  52.940  1.00  0.00    -0.183 NA
HETATM   20  C14 UNL     1      28.416  -2.651  52.970  1.00  0.00     0.118 A 
ENDBRANCH  10  13
ENDBRANCH   7   8
ENDBRANCH   6   7
ENDBRANCH   4   5
TORSDOF 4
ENDMDL
MODEL 7
REMARK VINA RESULT:      -6.8      4.775      7.207
REMARK  4 active torsions:
REMARK  status: ('A' for Active; 'I' for Inactive)
REMARK    1  A    between atoms: C4_4  and  C5_5 
REMARK    2  A    between atoms: C6_6  and  C7_7 
REMARK    3  A    between atoms: C7_7  and  N1_8 
REMARK    4  A    between atoms: C9_10  and  C10_11 
ROOT
HETATM    1  C1  UNL     1      27.028   8.555  45.563  1.00  0.00     0.017 C 
HETATM    2  C2  UNL     1      27.945   8.292  46.299  1.00  0.00    -0.089 C 
HETATM    3  C3  UNL     1      29.050   7.991  47.155  1.00  0.00     0.063 C 
HETATM    4  C4  UNL     1      28.828   7.081  48.089  1.00  0.00     0.009 C 
ENDROOT
BRANCH   4   5
HETATM    5  C5  UNL     1      27.465   6.569  48.034  1.00  0.00    -0.002 C 
HETATM    6  C6  UNL     1      26.899   5.806  48.956  1.00  0.00    -0.006 C 
BRANCH   6   7
HETATM    7  C7  UNL     1      25.559   5.190  49.096  1.00  0.00     0.173 C 
BRANCH   7   8
HETATM    8  N1  UNL     1      25.536   4.161  50.143  1.00  0.00    -0.279 N 
HETATM    9  C8  UNL     1      26.502   3.248  50.419  1.00  0.00     0.143 A 
HETATM   10  C9  UNL     1      26.048   2.486  51.485  1.00  0.00     0.120 A 
HETATM   11  N4  UNL     1      24.823   2.958  51.822  1.00  0.00    -0.156 NA
HETATM   12  N5  UNL     1      24.522   3.977  51.000  1.00  0.00     0.005 NA
BRANCH  10  13
HETATM   13  C10 UNL     1      26.736   1.376  52.142  1.00  0.00     0.090 A 
HETATM   14  C11 UNL     1      26.456   0.051  51.869  1.00  0.00     0.036 A 
HETATM   15  C12 UNL     1      27.296  -0.688  52.673  1.00  0.00     0.030 A 
HETATM   16  C13 UNL     1      28.032   0.220  53.383  1.00  0.00     0.041 A 
HETATM   17  N2  UNL     1      27.702   1.508  53.070  1.00  0.00    -0.236 N 
HETATM   18  C15 UNL     1      29.119   0.215  54.426  1.00  0.00     0.107 A 
HETATM   19  N3  UNL     1      28.499   2.352  53.837  1.00  0.00    -0.183 NA
HETATM   20  C14 UNL     1      29.303   1.698  54.607  1.00  0.00     0.118 A 
ENDBRANCH  10  13
ENDBRANCH   7   8
ENDBRANCH   6   7
ENDBRANCH   4   5
TORSDOF 4
ENDMDL
MODEL 8
REMARK VINA RESULT:      -6.8      1.812      6.746
REMARK  4 active torsions:
REMARK  status: ('A' for Active; 'I' for Inactive)
REMARK    1  A    between atoms: C4_4  and  C5_5 
REMARK    2  A    between atoms: C6_6  and  C7_7 
REMARK    3  A    between atoms: C7_7  and  N1_8 
REMARK    4  A    between atoms: C9_10  and  C10_11 
ROOT
HETATM    1  C1  UNL     1      18.199   0.331  50.699  1.00  0.00     0.017 C 
HETATM    2  C2  UNL     1      18.450  -0.181  51.760  1.00  0.00    -0.089 C 
HETATM    3  C3  UNL     1      18.723  -0.792  53.023  1.00  0.00     0.063 C 
HETATM    4  C4  UNL     1      19.942  -0.606  53.505  1.00  0.00     0.009 C 
ENDROOT
BRANCH   4   5
HETATM    5  C5  UNL     1      20.759   0.208  52.614  1.00  0.00    -0.002 C 
HETATM    6  C6  UNL     1      21.304   1.372  52.931  1.00  0.00    -0.006 C 
BRANCH   6   7
HETATM    7  C7  UNL     1      22.149   2.343  52.196  1.00  0.00     0.173 C 
BRANCH   7   8
HETATM    8  N1  UNL     1      23.576   2.013  52.297  1.00  0.00    -0.279 N 
HETATM    9  C8  UNL     1      24.124   0.786  52.493  1.00  0.00     0.143 A 
HETATM   10  C9  UNL     1      25.500   0.955  52.519  1.00  0.00     0.120 A 
HETATM   11  N4  UNL     1      25.745   2.276  52.339  1.00  0.00    -0.156 NA
HETATM   12  N5  UNL     1      24.567   2.909  52.204  1.00  0.00     0.005 NA
BRANCH  10  13
HETATM   13  C10 UNL     1      26.519  -0.076  52.705  1.00  0.00     0.090 A 
HETATM   14  C11 UNL     1      26.285  -1.416  52.467  1.00  0.00     0.036 A 
HETATM   15  C12 UNL     1      27.467  -2.065  52.750  1.00  0.00     0.030 A 
HETATM   16  C13 UNL     1      28.344  -1.092  53.141  1.00  0.00     0.041 A 
HETATM   17  N2  UNL     1      27.779   0.151  53.121  1.00  0.00    -0.236 N 
HETATM   18  C15 UNL     1      29.778  -0.988  53.594  1.00  0.00     0.107 A 
HETATM   19  N3  UNL     1      28.744   1.066  53.530  1.00  0.00    -0.183 NA
HETATM   20  C14 UNL     1      29.869   0.498  53.806  1.00  0.00     0.118 A 
ENDBRANCH  10  13
ENDBRANCH   7   8
ENDBRANCH   6   7
ENDBRANCH   4   5
TORSDOF 4
ENDMDL
MODEL 9
REMARK VINA RESULT:      -6.7      4.271      6.153
REMARK  4 active torsions:
REMARK  status: ('A' for Active; 'I' for Inactive)
REMARK    1  A    between atoms: C4_4  and  C5_5 
REMARK    2  A    between atoms: C6_6  and  C7_7 
REMARK    3  A    between atoms: C7_7  and  N1_8 
REMARK    4  A    between atoms: C9_10  and  C10_11 
ROOT
HETATM    1  C1  UNL     1      28.836  -2.756  53.076  1.00  0.00     0.017 C 
HETATM    2  C2  UNL     1      29.404  -1.749  53.412  1.00  0.00    -0.089 C 
HETATM    3  C3  UNL     1      30.097  -0.567  53.822  1.00  0.00     0.063 C 
HETATM    4  C4  UNL     1      29.388   0.550  53.820  1.00  0.00     0.009 C 
ENDROOT
BRANCH   4   5
HETATM    5  C5  UNL     1      28.015   0.320  53.389  1.00  0.00    -0.002 C 
HETATM    6  C6  UNL     1      27.286   1.167  52.679  1.00  0.00    -0.006 C 
BRANCH   6   7
HETATM    7  C7  UNL     1      25.904   1.134  52.147  1.00  0.00     0.173 C 
BRANCH   7   8
HETATM    8  N1  UNL     1      25.657   2.227  51.197  1.00  0.00    -0.279 N 
HETATM    9  C8  UNL     1      26.549   3.151  50.758  1.00  0.00     0.143 A 
HETATM   10  C9  UNL     1      25.874   3.979  49.874  1.00  0.00     0.120 A 
HETATM   11  N4  UNL     1      24.595   3.534  49.805  1.00  0.00    -0.156 NA
HETATM   12  N5  UNL     1      24.475   2.467  50.613  1.00  0.00     0.005 NA
BRANCH  10  13
HETATM   13  C10 UNL     1      26.410   5.124  49.142  1.00  0.00     0.090 A 
HETATM   14  C11 UNL     1      27.680   5.140  48.597  1.00  0.00     0.036 A 
HETATM   15  C12 UNL     1      27.820   6.372  47.995  1.00  0.00     0.030 A 
HETATM   16  C13 UNL     1      26.639   7.028  48.206  1.00  0.00     0.041 A 
HETATM   17  N2  UNL     1      25.749   6.274  48.915  1.00  0.00    -0.236 N 
HETATM   18  C15 UNL     1      26.023   8.364  47.877  1.00  0.00     0.107 A 
HETATM   19  N3  UNL     1      24.587   7.023  49.076  1.00  0.00    -0.183 NA
HETATM   20  C14 UNL     1      24.677   8.187  48.525  1.00  0.00     0.118 A 
ENDBRANCH  10  13
ENDBRANCH   7   8
ENDBRANCH   6   7
ENDBRANCH   4   5
TORSDOF 4
ENDMDL
