MODEL 1
REMARK VINA RESULT:      -7.2      0.000      0.000
REMARK  8 active torsions:
REMARK  status: ('A' for Active; 'I' for Inactive)
REMARK    1  A    between atoms: C2_2  and  C3_3 
REMARK    2  A    between atoms: C4_4  and  C5_5 
REMARK    3  A    between atoms: C6_6  and  C7_7 
REMARK    4  A    between atoms: C11_16  and  C12_17 
REMARK    5  A    between atoms: C12_17  and  C13_18 
REMARK    6  A    between atoms: C14_19  and  C15_20 
REMARK    7  A    between atoms: C14_19  and  O2_22 
REMARK    8  A    between atoms: O2_22  and  C17_23 
ROOT
HETATM    1  C7  UNL     1      25.111   0.019  53.340  1.00  0.00     0.197 C 
HETATM    2  O1  UNL     1      26.092  -0.935  53.033  1.00  0.00    -0.331 OA
HETATM    3  C8  UNL     1      27.400  -1.247  53.160  1.00  0.00     0.357 A 
HETATM    4  C9  UNL     1      28.448  -2.245  53.064  1.00  0.00     0.373 A 
HETATM    5  S1  UNL     1      29.801  -0.912  53.633  1.00  0.00     0.106 SA
HETATM    6  C10 UNL     1      28.592   0.492  53.811  1.00  0.00     0.299 A 
HETATM    7  N1  UNL     1      28.589  -0.737  53.486  1.00  0.00     0.097 N 
HETATM    8  N2  UNL     1      27.951   1.800  54.051  1.00  0.00    -0.249 N 
HETATM    9  N3  UNL     1      26.589   2.107  54.207  1.00  0.00    -0.178 NA
HETATM   10  C11 UNL     1      25.582   1.386  53.704  1.00  0.00     0.068 C 
HETATM   11  H10 UNL     1      28.933   2.035  54.004  1.00  0.00     0.191 HD
ENDROOT
BRANCH  10  12
HETATM   12  C12 UNL     1      24.478   2.361  53.376  1.00  0.00     0.089 C 
BRANCH  12  13
HETATM   13  C13 UNL     1      24.610   2.936  52.030  1.00  0.00     0.016 C 
HETATM   14  C14 UNL     1      23.997   3.980  51.499  1.00  0.00     0.064 C 
BRANCH  14  15
HETATM   15  C15 UNL     1      23.025   4.769  52.245  1.00  0.00     0.026 C 
HETATM   16  C16 UNL     1      21.910   5.217  51.685  1.00  0.00     0.014 C 
ENDBRANCH  14  15
BRANCH  14  17
HETATM   17  O2  UNL     1      24.285   4.333  50.209  1.00  0.00    -0.352 OA
BRANCH  17  18
HETATM   18  C17 UNL     1      25.238   5.313  49.858  1.00  0.00     0.171 C 
HETATM   19  C18 UNL     1      26.446   4.572  49.332  1.00  0.00     0.034 C 
ENDBRANCH  17  18
ENDBRANCH  14  17
ENDBRANCH  12  13
ENDBRANCH  10  12
BRANCH   1  20
HETATM   20  C6  UNL     1      24.161  -0.520  54.314  1.00  0.00     0.010 C 
HETATM   21  C5  UNL     1      22.894  -0.751  54.072  1.00  0.00    -0.005 C 
BRANCH  21  22
HETATM   22  C4  UNL     1      22.422  -0.435  52.706  1.00  0.00    -0.017 C 
HETATM   23  C3  UNL     1      21.868   0.233  51.732  1.00  0.00     0.041 C 
BRANCH  23  24
HETATM   24  C2  UNL     1      21.203   1.456  51.442  1.00  0.00    -0.027 C 
HETATM   25  C1  UNL     1      20.701   1.749  52.651  1.00  0.00     0.007 C 
ENDBRANCH  23  24
ENDBRANCH  21  22
ENDBRANCH   1  20
TORSDOF 8
ENDMDL
MODEL 2
REMARK VINA RESULT:      -7.2      3.526      6.334
REMARK  8 active torsions:
REMARK  status: ('A' for Active; 'I' for Inactive)
REMARK    1  A    between atoms: C2_2  and  C3_3 
REMARK    2  A    between atoms: C4_4  and  C5_5 
REMARK    3  A    between atoms: C6_6  and  C7_7 
REMARK    4  A    between atoms: C11_16  and  C12_17 
REMARK    5  A    between atoms: C12_17  and  C13_18 
REMARK    6  A    between atoms: C14_19  and  C15_20 
REMARK    7  A    between atoms: C14_19  and  O2_22 
REMARK    8  A    between atoms: O2_22  and  C17_23 
ROOT
HETATM    1  C7  UNL     1      24.592   3.771  50.741  1.00  0.00     0.197 C 
HETATM    2  O1  UNL     1      24.122   5.046  51.083  1.00  0.00    -0.331 OA
HETATM    3  C8  UNL     1      24.252   6.368  50.838  1.00  0.00     0.357 A 
HETATM    4  C9  UNL     1      23.716   7.710  50.975  1.00  0.00     0.373 A 
HETATM    5  S1  UNL     1      25.265   8.453  49.984  1.00  0.00     0.106 SA
HETATM    6  C10 UNL     1      26.098   6.811  49.714  1.00  0.00     0.299 A 
HETATM    7  N1  UNL     1      25.047   7.271  50.262  1.00  0.00     0.097 N 
HETATM    8  N2  UNL     1      27.022   5.727  49.323  1.00  0.00    -0.249 N 
HETATM    9  N3  UNL     1      26.806   4.339  49.301  1.00  0.00    -0.178 NA
HETATM   10  C11 UNL     1      25.919   3.694  50.065  1.00  0.00     0.068 C 
HETATM   11  H10 UNL     1      27.580   6.560  49.189  1.00  0.00     0.191 HD
ENDROOT
BRANCH  10  12
HETATM   12  C12 UNL     1      26.510   2.335  50.353  1.00  0.00     0.089 C 
BRANCH  12  13
HETATM   13  C13 UNL     1      26.990   2.206  51.736  1.00  0.00     0.016 C 
HETATM   14  C14 UNL     1      27.074   1.130  52.499  1.00  0.00     0.064 C 
BRANCH  14  15
HETATM   15  C15 UNL     1      26.666  -0.187  52.027  1.00  0.00     0.026 C 
HETATM   16  C16 UNL     1      26.312  -1.152  52.864  1.00  0.00     0.014 C 
ENDBRANCH  14  15
BRANCH  14  17
HETATM   17  O2  UNL     1      27.560   1.255  53.771  1.00  0.00    -0.352 OA
BRANCH  17  18
HETATM   18  C17 UNL     1      28.914   1.518  54.071  1.00  0.00     0.171 C 
HETATM   19  C18 UNL     1      29.682   0.258  53.740  1.00  0.00     0.034 C 
ENDBRANCH  17  18
ENDBRANCH  14  17
ENDBRANCH  12  13
ENDBRANCH  10  12
BRANCH   1  20
HETATM   20  C6  UNL     1      23.559   3.020  50.026  1.00  0.00     0.010 C 
HETATM   21  C5  UNL     1      22.879   2.021  50.532  1.00  0.00    -0.005 C 
BRANCH  21  22
HETATM   22  C4  UNL     1      23.200   1.651  51.927  1.00  0.00    -0.017 C 
HETATM   23  C3  UNL     1      23.226   0.951  53.028  1.00  0.00     0.041 C 
BRANCH  23  24
HETATM   24  C2  UNL     1      22.761  -0.266  53.597  1.00  0.00    -0.027 C 
HETATM   25  C1  UNL     1      21.607   0.147  54.142  1.00  0.00     0.007 C 
ENDBRANCH  23  24
ENDBRANCH  21  22
ENDBRANCH   1  20
TORSDOF 8
ENDMDL
MODEL 3
REMARK VINA RESULT:      -7.1      2.898      5.153
REMARK  8 active torsions:
REMARK  status: ('A' for Active; 'I' for Inactive)
REMARK    1  A    between atoms: C2_2  and  C3_3 
REMARK    2  A    between atoms: C4_4  and  C5_5 
REMARK    3  A    between atoms: C6_6  and  C7_7 
REMARK    4  A    between atoms: C11_16  and  C12_17 
REMARK    5  A    between atoms: C12_17  and  C13_18 
REMARK    6  A    between atoms: C14_19  and  C15_20 
REMARK    7  A    between atoms: C14_19  and  O2_22 
REMARK    8  A    between atoms: O2_22  and  C17_23 
ROOT
HETATM    1  C7  UNL     1      25.484   0.271  52.992  1.00  0.00     0.197 C 
HETATM    2  O1  UNL     1      24.674  -0.338  53.960  1.00  0.00    -0.331 OA
HETATM    3  C8  UNL     1      23.406  -0.686  54.271  1.00  0.00     0.357 A 
HETATM    4  C9  UNL     1      22.505  -1.455  55.109  1.00  0.00     0.373 A 
HETATM    5  S1  UNL     1      20.940  -0.730  54.132  1.00  0.00     0.106 SA
HETATM    6  C10 UNL     1      21.941   0.323  52.967  1.00  0.00     0.299 A 
HETATM    7  N1  UNL     1      22.132  -0.483  53.932  1.00  0.00     0.097 N 
HETATM    8  N2  UNL     1      22.385   1.252  51.908  1.00  0.00    -0.249 N 
HETATM    9  N3  UNL     1      23.668   1.431  51.364  1.00  0.00    -0.178 NA
HETATM   10  C11 UNL     1      24.811   1.158  52.001  1.00  0.00     0.068 C 
HETATM   11  H10 UNL     1      21.398   1.454  51.987  1.00  0.00     0.191 HD
ENDROOT
BRANCH  10  12
HETATM   12  C12 UNL     1      25.827   2.158  51.505  1.00  0.00     0.089 C 
BRANCH  12  13
HETATM   13  C13 UNL     1      25.206   3.347  50.904  1.00  0.00     0.016 C 
HETATM   14  C14 UNL     1      25.661   4.141  49.950  1.00  0.00     0.064 C 
BRANCH  14  15
HETATM   15  C15 UNL     1      26.952   3.921  49.311  1.00  0.00     0.026 C 
HETATM   16  C16 UNL     1      27.570   4.879  48.635  1.00  0.00     0.014 C 
ENDBRANCH  14  15
BRANCH  14  17
HETATM   17  O2  UNL     1      24.896   5.201  49.549  1.00  0.00    -0.352 OA
BRANCH  17  18
HETATM   18  C17 UNL     1      24.365   6.164  50.433  1.00  0.00     0.171 C 
HETATM   19  C18 UNL     1      25.383   7.279  50.519  1.00  0.00     0.034 C 
ENDBRANCH  17  18
ENDBRANCH  14  17
ENDBRANCH  12  13
ENDBRANCH  10  12
BRANCH   1  20
HETATM   20  C6  UNL     1      26.351  -0.721  52.353  1.00  0.00     0.010 C 
HETATM   21  C5  UNL     1      27.562  -1.021  52.752  1.00  0.00    -0.005 C 
BRANCH  21  22
HETATM   22  C4  UNL     1      28.061  -0.287  53.935  1.00  0.00    -0.017 C 
HETATM   23  C3  UNL     1      28.664   0.635  54.633  1.00  0.00     0.041 C 
BRANCH  23  24
HETATM   24  C2  UNL     1      29.415   1.835  54.498  1.00  0.00    -0.027 C 
HETATM   25  C1  UNL     1      28.656   2.497  53.613  1.00  0.00     0.007 C 
ENDBRANCH  23  24
ENDBRANCH  21  22
ENDBRANCH   1  20
TORSDOF 8
ENDMDL
MODEL 4
REMARK VINA RESULT:      -6.6      2.969      6.054
REMARK  8 active torsions:
REMARK  status: ('A' for Active; 'I' for Inactive)
REMARK    1  A    between atoms: C2_2  and  C3_3 
REMARK    2  A    between atoms: C4_4  and  C5_5 
REMARK    3  A    between atoms: C6_6  and  C7_7 
REMARK    4  A    between atoms: C11_16  and  C12_17 
REMARK    5  A    between atoms: C12_17  and  C13_18 
REMARK    6  A    between atoms: C14_19  and  C15_20 
REMARK    7  A    between atoms: C14_19  and  O2_22 
REMARK    8  A    between atoms: O2_22  and  C17_23 
ROOT
HETATM    1  C7  UNL     1      22.835   2.397  51.446  1.00  0.00     0.197 C 
HETATM    2  O1  UNL     1      22.338   3.687  51.215  1.00  0.00    -0.331 OA
HETATM    3  C8  UNL     1      22.643   4.914  50.740  1.00  0.00     0.357 A 
HETATM    4  C9  UNL     1      22.184   6.214  50.287  1.00  0.00     0.373 A 
HETATM    5  S1  UNL     1      24.054   6.783  49.954  1.00  0.00     0.106 SA
HETATM    6  C10 UNL     1      24.820   5.177  50.500  1.00  0.00     0.299 A 
HETATM    7  N1  UNL     1      23.664   5.694  50.383  1.00  0.00     0.097 N 
HETATM    8  N2  UNL     1      25.755   4.087  50.846  1.00  0.00    -0.249 N 
HETATM    9  N3  UNL     1      25.490   2.726  51.069  1.00  0.00    -0.178 NA
HETATM   10  C11 UNL     1      24.317   2.235  51.483  1.00  0.00     0.068 C 
HETATM   11  H10 UNL     1      26.362   4.893  50.779  1.00  0.00     0.191 HD
ENDROOT
BRANCH  10  12
HETATM   12  C12 UNL     1      24.633   1.026  52.329  1.00  0.00     0.089 C 
BRANCH  12  13
HETATM   13  C13 UNL     1      25.899   1.162  53.063  1.00  0.00     0.016 C 
HETATM   14  C14 UNL     1      26.688   0.224  53.558  1.00  0.00     0.064 C 
BRANCH  14  15
HETATM   15  C15 UNL     1      26.379  -1.195  53.428  1.00  0.00     0.026 C 
HETATM   16  C16 UNL     1      26.887  -1.935  52.453  1.00  0.00     0.014 C 
ENDBRANCH  14  15
BRANCH  14  17
HETATM   17  O2  UNL     1      27.831   0.595  54.210  1.00  0.00    -0.352 OA
BRANCH  17  18
HETATM   18  C17 UNL     1      29.010   1.007  53.554  1.00  0.00     0.171 C 
HETATM   19  C18 UNL     1      29.953  -0.174  53.576  1.00  0.00     0.034 C 
ENDBRANCH  17  18
ENDBRANCH  14  17
ENDBRANCH  12  13
ENDBRANCH  10  12
BRANCH   1  20
HETATM   20  C6  UNL     1      22.193   1.433  50.550  1.00  0.00     0.010 C 
HETATM   21  C5  UNL     1      21.363   0.496  50.935  1.00  0.00    -0.005 C 
BRANCH  21  22
HETATM   22  C4  UNL     1      21.073   0.433  52.384  1.00  0.00    -0.017 C 
HETATM   23  C3  UNL     1      20.996  -0.053  53.592  1.00  0.00     0.041 C 
BRANCH  23  24
HETATM   24  C2  UNL     1      21.275  -1.222  54.353  1.00  0.00    -0.027 C 
HETATM   25  C1  UNL     1      22.559  -1.003  54.671  1.00  0.00     0.007 C 
ENDBRANCH  23  24
ENDBRANCH  21  22
ENDBRANCH   1  20
TORSDOF 8
ENDMDL
MODEL 5
REMARK VINA RESULT:      -6.6      3.149      6.613
REMARK  8 active torsions:
REMARK  status: ('A' for Active; 'I' for Inactive)
REMARK    1  A    between atoms: C2_2  and  C3_3 
REMARK    2  A    between atoms: C4_4  and  C5_5 
REMARK    3  A    between atoms: C6_6  and  C7_7 
REMARK    4  A    between atoms: C11_16  and  C12_17 
REMARK    5  A    between atoms: C12_17  and  C13_18 
REMARK    6  A    between atoms: C14_19  and  C15_20 
REMARK    7  A    between atoms: C14_19  and  O2_22 
REMARK    8  A    between atoms: O2_22  and  C17_23 
ROOT
HETATM    1  C7  UNL     1      23.058   2.506  51.902  1.00  0.00     0.197 C 
HETATM    2  O1  UNL     1      21.700   2.319  51.610  1.00  0.00    -0.331 OA
HETATM    3  C8  UNL     1      20.603   1.586  51.901  1.00  0.00     0.357 A 
HETATM    4  C9  UNL     1      19.163   1.428  51.816  1.00  0.00     0.373 A 
HETATM    5  S1  UNL     1      19.270  -0.280  52.819  1.00  0.00     0.106 SA
HETATM    6  C10 UNL     1      21.120  -0.242  53.023  1.00  0.00     0.299 A 
HETATM    7  N1  UNL     1      20.201   0.465  52.501  1.00  0.00     0.097 N 
HETATM    8  N2  UNL     1      22.524  -0.545  53.367  1.00  0.00    -0.249 N 
HETATM    9  N3  UNL     1      23.647   0.297  53.342  1.00  0.00    -0.178 NA
HETATM   10  C11 UNL     1      23.773   1.377  52.563  1.00  0.00     0.068 C 
HETATM   11  H10 UNL     1      22.056  -1.428  53.525  1.00  0.00     0.191 HD
ENDROOT
BRANCH  10  12
HETATM   12  C12 UNL     1      25.239   1.490  52.222  1.00  0.00     0.089 C 
BRANCH  12  13
HETATM   13  C13 UNL     1      26.111   0.978  53.288  1.00  0.00     0.016 C 
HETATM   14  C14 UNL     1      26.773  -0.165  53.356  1.00  0.00     0.064 C 
BRANCH  14  15
HETATM   15  C15 UNL     1      26.721  -1.154  52.286  1.00  0.00     0.026 C 
HETATM   16  C16 UNL     1      27.130  -2.401  52.467  1.00  0.00     0.014 C 
ENDBRANCH  14  15
BRANCH  14  17
HETATM   17  O2  UNL     1      27.532  -0.427  54.463  1.00  0.00    -0.352 OA
BRANCH  17  18
HETATM   18  C17 UNL     1      28.703   0.287  54.798  1.00  0.00     0.171 C 
HETATM   19  C18 UNL     1      29.742  -0.077  53.762  1.00  0.00     0.034 C 
ENDBRANCH  17  18
ENDBRANCH  14  17
ENDBRANCH  12  13
ENDBRANCH  10  12
BRANCH   1  20
HETATM   20  C6  UNL     1      23.261   3.777  52.599  1.00  0.00     0.010 C 
HETATM   21  C5  UNL     1      23.733   4.865  52.044  1.00  0.00    -0.005 C 
BRANCH  21  22
HETATM   22  C4  UNL     1      24.075   4.771  50.608  1.00  0.00    -0.017 C 
HETATM   23  C3  UNL     1      24.807   4.725  49.529  1.00  0.00     0.041 C 
BRANCH  23  24
HETATM   24  C2  UNL     1      26.158   4.762  49.085  1.00  0.00    -0.027 C 
HETATM   25  C1  UNL     1      26.623   3.629  49.631  1.00  0.00     0.007 C 
ENDBRANCH  23  24
ENDBRANCH  21  22
ENDBRANCH   1  20
TORSDOF 8
ENDMDL
MODEL 6
REMARK VINA RESULT:      -6.4      1.509      1.792
REMARK  8 active torsions:
REMARK  status: ('A' for Active; 'I' for Inactive)
REMARK    1  A    between atoms: C2_2  and  C3_3 
REMARK    2  A    between atoms: C4_4  and  C5_5 
REMARK    3  A    between atoms: C6_6  and  C7_7 
REMARK    4  A    between atoms: C11_16  and  C12_17 
REMARK    5  A    between atoms: C12_17  and  C13_18 
REMARK    6  A    between atoms: C14_19  and  C15_20 
REMARK    7  A    between atoms: C14_19  and  O2_22 
REMARK    8  A    between atoms: O2_22  and  C17_23 
ROOT
HETATM    1  C7  UNL     1      24.307   0.669  52.804  1.00  0.00     0.197 C 
HETATM    2  O1  UNL     1      25.273  -0.335  52.655  1.00  0.00    -0.331 OA
HETATM    3  C8  UNL     1      26.547  -0.685  52.938  1.00  0.00     0.357 A 
HETATM    4  C9  UNL     1      27.557  -1.725  53.008  1.00  0.00     0.373 A 
HETATM    5  S1  UNL     1      28.898  -0.410  53.645  1.00  0.00     0.106 SA
HETATM    6  C10 UNL     1      27.736   1.044  53.617  1.00  0.00     0.299 A 
HETATM    7  N1  UNL     1      27.716  -0.201  53.360  1.00  0.00     0.097 N 
HETATM    8  N2  UNL     1      27.128   2.387  53.717  1.00  0.00    -0.249 N 
HETATM    9  N3  UNL     1      25.771   2.750  53.710  1.00  0.00    -0.178 NA
HETATM   10  C11 UNL     1      24.794   2.037  53.142  1.00  0.00     0.068 C 
HETATM   11  H10 UNL     1      28.119   2.583  53.762  1.00  0.00     0.191 HD
ENDROOT
BRANCH  10  12
HETATM   12  C12 UNL     1      23.772   3.031  52.646  1.00  0.00     0.089 C 
BRANCH  12  13
HETATM   13  C13 UNL     1      23.854   3.255  51.196  1.00  0.00     0.016 C 
HETATM   14  C14 UNL     1      23.657   4.364  50.504  1.00  0.00     0.064 C 
BRANCH  14  15
HETATM   15  C15 UNL     1      23.300   5.623  51.146  1.00  0.00     0.026 C 
HETATM   16  C16 UNL     1      24.197   6.571  51.373  1.00  0.00     0.014 C 
ENDBRANCH  14  15
BRANCH  14  17
HETATM   17  O2  UNL     1      23.792   4.330  49.144  1.00  0.00    -0.352 OA
BRANCH  17  18
HETATM   18  C17 UNL     1      23.247   5.302  48.277  1.00  0.00     0.171 C 
HETATM   19  C18 UNL     1      22.316   4.568  47.338  1.00  0.00     0.034 C 
ENDBRANCH  17  18
ENDBRANCH  14  17
ENDBRANCH  12  13
ENDBRANCH  10  12
BRANCH   1  20
HETATM   20  C6  UNL     1      23.238   0.222  53.698  1.00  0.00     0.010 C 
HETATM   21  C5  UNL     1      22.048  -0.159  53.306  1.00  0.00    -0.005 C 
BRANCH  21  22
HETATM   22  C4  UNL     1      21.798  -0.126  51.849  1.00  0.00    -0.017 C 
HETATM   23  C3  UNL     1      21.421   0.332  50.687  1.00  0.00     0.041 C 
BRANCH  23  24
HETATM   24  C2  UNL     1      20.850   1.474  50.060  1.00  0.00    -0.027 C 
HETATM   25  C1  UNL     1      21.376   1.362  48.831  1.00  0.00     0.007 C 
ENDBRANCH  23  24
ENDBRANCH  21  22
ENDBRANCH   1  20
TORSDOF 8
ENDMDL
MODEL 7
REMARK VINA RESULT:      -6.2      4.046      6.726
REMARK  8 active torsions:
REMARK  status: ('A' for Active; 'I' for Inactive)
REMARK    1  A    between atoms: C2_2  and  C3_3 
REMARK    2  A    between atoms: C4_4  and  C5_5 
REMARK    3  A    between atoms: C6_6  and  C7_7 
REMARK    4  A    between atoms: C11_16  and  C12_17 
REMARK    5  A    between atoms: C12_17  and  C13_18 
REMARK    6  A    between atoms: C14_19  and  C15_20 
REMARK    7  A    between atoms: C14_19  and  O2_22 
REMARK    8  A    between atoms: O2_22  and  C17_23 
ROOT
HETATM    1  C7  UNL     1      20.880   1.747  51.968  1.00  0.00     0.197 C 
HETATM    2  O1  UNL     1      19.652   1.134  51.686  1.00  0.00    -0.331 OA
HETATM    3  C8  UNL     1      18.764   0.207  52.105  1.00  0.00     0.357 A 
HETATM    4  C9  UNL     1      17.429  -0.357  52.017  1.00  0.00     0.373 A 
HETATM    5  S1  UNL     1      17.887  -1.713  53.389  1.00  0.00     0.106 SA
HETATM    6  C10 UNL     1      19.635  -1.123  53.634  1.00  0.00     0.299 A 
HETATM    7  N1  UNL     1      18.615  -0.826  52.936  1.00  0.00     0.097 N 
HETATM    8  N2  UNL     1      21.032  -0.946  54.082  1.00  0.00    -0.249 N 
HETATM    9  N3  UNL     1      21.893   0.148  53.896  1.00  0.00    -0.178 NA
HETATM   10  C11 UNL     1      21.802   1.027  52.893  1.00  0.00     0.068 C 
HETATM   11  H10 UNL     1      20.799  -1.869  54.425  1.00  0.00     0.191 HD
ENDROOT
BRANCH  10  12
HETATM   12  C12 UNL     1      23.212   1.465  52.579  1.00  0.00     0.089 C 
BRANCH  12  13
HETATM   13  C13 UNL     1      24.225   0.667  53.284  1.00  0.00     0.016 C 
HETATM   14  C14 UNL     1      25.498   0.473  52.987  1.00  0.00     0.064 C 
BRANCH  14  15
HETATM   15  C15 UNL     1      26.121   1.081  51.818  1.00  0.00     0.026 C 
HETATM   16  C16 UNL     1      26.920   2.133  51.918  1.00  0.00     0.014 C 
ENDBRANCH  14  15
BRANCH  14  17
HETATM   17  O2  UNL     1      26.256  -0.321  53.803  1.00  0.00    -0.352 OA
BRANCH  17  18
HETATM   18  C17 UNL     1      26.847   0.127  55.004  1.00  0.00     0.171 C 
HETATM   19  C18 UNL     1      28.339   0.163  54.763  1.00  0.00     0.034 C 
ENDBRANCH  17  18
ENDBRANCH  14  17
ENDBRANCH  12  13
ENDBRANCH  10  12
BRANCH   1  20
HETATM   20  C6  UNL     1      20.678   3.143  52.358  1.00  0.00     0.010 C 
HETATM   21  C5  UNL     1      21.005   4.177  51.624  1.00  0.00    -0.005 C 
BRANCH  21  22
HETATM   22  C4  UNL     1      21.619   3.880  50.312  1.00  0.00    -0.017 C 
HETATM   23  C3  UNL     1      22.486   3.906  49.338  1.00  0.00     0.041 C 
BRANCH  23  24
HETATM   24  C2  UNL     1      23.739   4.465  48.962  1.00  0.00    -0.027 C 
HETATM   25  C1  UNL     1      24.573   3.528  49.435  1.00  0.00     0.007 C 
ENDBRANCH  23  24
ENDBRANCH  21  22
ENDBRANCH   1  20
TORSDOF 8
ENDMDL
MODEL 8
REMARK VINA RESULT:      -6.1      3.768      6.540
REMARK  8 active torsions:
REMARK  status: ('A' for Active; 'I' for Inactive)
REMARK    1  A    between atoms: C2_2  and  C3_3 
REMARK    2  A    between atoms: C4_4  and  C5_5 
REMARK    3  A    between atoms: C6_6  and  C7_7 
REMARK    4  A    between atoms: C11_16  and  C12_17 
REMARK    5  A    between atoms: C12_17  and  C13_18 
REMARK    6  A    between atoms: C14_19  and  C15_20 
REMARK    7  A    between atoms: C14_19  and  O2_22 
REMARK    8  A    between atoms: O2_22  and  C17_23 
ROOT
HETATM    1  C7  UNL     1      22.152   3.600  50.809  1.00  0.00     0.197 C 
HETATM    2  O1  UNL     1      21.451   4.606  50.131  1.00  0.00    -0.331 OA
HETATM    3  C8  UNL     1      21.487   5.898  49.740  1.00  0.00     0.357 A 
HETATM    4  C9  UNL     1      20.941   6.954  48.907  1.00  0.00     0.373 A 
HETATM    5  S1  UNL     1      22.248   8.247  49.650  1.00  0.00     0.106 SA
HETATM    6  C10 UNL     1      23.071   7.022  50.786  1.00  0.00     0.299 A 
HETATM    7  N1  UNL     1      22.128   7.052  49.934  1.00  0.00     0.097 N 
HETATM    8  N2  UNL     1      23.938   6.358  51.780  1.00  0.00    -0.249 N 
HETATM    9  N3  UNL     1      24.131   4.987  52.016  1.00  0.00    -0.178 NA
HETATM   10  C11 UNL     1      23.239   4.032  51.733  1.00  0.00     0.068 C 
HETATM   11  H10 UNL     1      24.102   7.340  51.957  1.00  0.00     0.191 HD
ENDROOT
BRANCH  10  12
HETATM   12  C12 UNL     1      23.414   2.959  52.780  1.00  0.00     0.089 C 
BRANCH  12  13
HETATM   13  C13 UNL     1      24.764   2.948  53.361  1.00  0.00     0.016 C 
HETATM   14  C14 UNL     1      25.638   1.959  53.438  1.00  0.00     0.064 C 
BRANCH  14  15
HETATM   15  C15 UNL     1      25.352   0.632  52.908  1.00  0.00     0.026 C 
HETATM   16  C16 UNL     1      25.231  -0.426  53.698  1.00  0.00     0.014 C 
ENDBRANCH  14  15
BRANCH  14  17
HETATM   17  O2  UNL     1      26.849   2.188  54.031  1.00  0.00    -0.352 OA
BRANCH  17  18
HETATM   18  C17 UNL     1      28.070   2.247  53.325  1.00  0.00     0.171 C 
HETATM   19  C18 UNL     1      28.958   1.172  53.909  1.00  0.00     0.034 C 
ENDBRANCH  17  18
ENDBRANCH  14  17
ENDBRANCH  12  13
ENDBRANCH  10  12
BRANCH   1  20
HETATM   20  C6  UNL     1      22.597   2.567  49.872  1.00  0.00     0.010 C 
HETATM   21  C5  UNL     1      22.236   1.309  49.922  1.00  0.00    -0.005 C 
BRANCH  21  22
HETATM   22  C4  UNL     1      21.312   0.937  51.016  1.00  0.00    -0.017 C 
HETATM   23  C3  UNL     1      20.881   0.365  52.106  1.00  0.00     0.041 C 
BRANCH  23  24
HETATM   24  C2  UNL     1      21.282  -0.516  53.148  1.00  0.00    -0.027 C 
HETATM   25  C1  UNL     1      21.186   0.303  54.206  1.00  0.00     0.007 C 
ENDBRANCH  23  24
ENDBRANCH  21  22
ENDBRANCH   1  20
TORSDOF 8
ENDMDL
MODEL 9
REMARK VINA RESULT:      -5.9      3.658      6.322
REMARK  8 active torsions:
REMARK  status: ('A' for Active; 'I' for Inactive)
REMARK    1  A    between atoms: C2_2  and  C3_3 
REMARK    2  A    between atoms: C4_4  and  C5_5 
REMARK    3  A    between atoms: C6_6  and  C7_7 
REMARK    4  A    between atoms: C11_16  and  C12_17 
REMARK    5  A    between atoms: C12_17  and  C13_18 
REMARK    6  A    between atoms: C14_19  and  C15_20 
REMARK    7  A    between atoms: C14_19  and  O2_22 
REMARK    8  A    between atoms: O2_22  and  C17_23 
ROOT
HETATM    1  C7  UNL     1      22.172   0.933  51.791  1.00  0.00     0.197 C 
HETATM    2  O1  UNL     1      23.532   1.243  51.654  1.00  0.00    -0.331 OA
HETATM    3  C8  UNL     1      24.781   0.904  52.041  1.00  0.00     0.357 A 
HETATM    4  C9  UNL     1      26.213   1.013  51.830  1.00  0.00     0.373 A 
HETATM    5  S1  UNL     1      26.553  -0.178  53.378  1.00  0.00     0.106 SA
HETATM    6  C10 UNL     1      24.757  -0.432  53.795  1.00  0.00     0.299 A 
HETATM    7  N1  UNL     1      25.461   0.193  52.941  1.00  0.00     0.097 N 
HETATM    8  N2  UNL     1      23.480  -0.851  54.409  1.00  0.00    -0.249 N 
HETATM    9  N3  UNL     1      22.176  -0.764  53.894  1.00  0.00    -0.178 NA
HETATM   10  C11 UNL     1      21.774   0.127  52.982  1.00  0.00     0.068 C 
HETATM   11  H10 UNL     1      24.161  -1.093  55.116  1.00  0.00     0.191 HD
ENDROOT
BRANCH  10  12
HETATM   12  C12 UNL     1      20.330   0.435  53.291  1.00  0.00     0.089 C 
BRANCH  12  13
HETATM   13  C13 UNL     1      19.560  -0.763  53.654  1.00  0.00     0.016 C 
HETATM   14  C14 UNL     1      18.363  -1.148  53.246  1.00  0.00     0.064 C 
BRANCH  14  15
HETATM   15  C15 UNL     1      17.581  -0.367  52.296  1.00  0.00     0.026 C 
HETATM   16  C16 UNL     1      17.940  -0.247  51.026  1.00  0.00     0.014 C 
ENDBRANCH  14  15
BRANCH  14  17
HETATM   17  O2  UNL     1      17.842  -2.318  53.727  1.00  0.00    -0.352 OA
BRANCH  17  18
HETATM   18  C17 UNL     1      16.771  -3.008  53.121  1.00  0.00     0.171 C 
HETATM   19  C18 UNL     1      16.980  -4.476  53.418  1.00  0.00     0.034 C 
ENDBRANCH  17  18
ENDBRANCH  14  17
ENDBRANCH  12  13
ENDBRANCH  10  12
BRANCH   1  20
HETATM   20  C6  UNL     1      21.645   0.378  50.543  1.00  0.00     0.010 C 
HETATM   21  C5  UNL     1      21.333   1.085  49.486  1.00  0.00    -0.005 C 
BRANCH  21  22
HETATM   22  C4  UNL     1      21.540   2.546  49.592  1.00  0.00    -0.017 C 
HETATM   23  C3  UNL     1      22.099   3.713  49.429  1.00  0.00     0.041 C 
BRANCH  23  24
HETATM   24  C2  UNL     1      23.220   4.348  48.825  1.00  0.00    -0.027 C 
HETATM   25  C1  UNL     1      24.214   3.580  49.295  1.00  0.00     0.007 C 
ENDBRANCH  23  24
ENDBRANCH  21  22
ENDBRANCH   1  20
TORSDOF 8
ENDMDL
