MODEL 1
REMARK VINA RESULT:      -8.2      0.000      0.000
REMARK  7 active torsions:
REMARK  status: ('A' for Active; 'I' for Inactive)
REMARK    1  A    between atoms: C2_2  and  C3_3 
REMARK    2  A    between atoms: C3_3  and  C4_4 
REMARK    3  A    between atoms: N1_7  and  C7_8 
REMARK    4  A    between atoms: C10_12  and  C11_13 
REMARK    5  A    between atoms: C12_15  and  C13_16 
REMARK    6  A    between atoms: N4_19  and  C15_20 
REMARK    7  A    between atoms: C23_30  and  N7_31 
ROOT
HETATM    1  C11 UNL     1      18.150   3.431  51.513  1.00  0.00     0.143 A 
HETATM    2  N2  UNL     1      19.128   2.680  52.074  1.00  0.00    -0.239 NA
HETATM    3  C12 UNL     1      20.435   2.886  51.808  1.00  0.00     0.088 A 
HETATM    4  C22 UNL     1      20.838   3.884  50.940  1.00  0.00     0.151 A 
HETATM    5  N6  UNL     1      19.876   4.654  50.363  1.00  0.00    -0.244 NA
HETATM    6  C23 UNL     1      18.588   4.417  50.653  1.00  0.00     0.133 A 
ENDROOT
BRANCH   1   7
HETATM    7  C10 UNL     1      16.760   3.170  51.833  1.00  0.00     0.162 C 
HETATM    8  N1  UNL     1      15.885   2.119  51.456  1.00  0.00    -0.332 N 
HETATM    9  C6  UNL     1      14.842   2.105  52.481  1.00  0.00     0.189 C 
HETATM   10  C5  UNL     1      14.785   3.564  52.788  1.00  0.00     0.055 C 
HETATM   11  C4  UNL     1      13.729   4.276  53.145  1.00  0.00     0.037 C 
HETATM   12  N8  UNL     1      16.122   4.013  52.609  1.00  0.00    -0.231 NA
BRANCH   8  13
HETATM   13  C7  UNL     1      16.086   1.331  50.314  1.00  0.00     0.130 C 
HETATM   14  C8  UNL     1      16.720   0.178  50.396  1.00  0.00     0.105 C 
HETATM   15  C9  UNL     1      17.280  -0.415  51.634  1.00  0.00     0.084 C 
HETATM   16  F1  UNL     1      16.952  -0.636  49.350  1.00  0.00    -0.210 F 
ENDBRANCH   8  13
BRANCH  11  17
HETATM   17  C3  UNL     1      12.437   3.630  53.274  1.00  0.00     0.053 C 
BRANCH  17  18
HETATM   18  C2  UNL     1      12.069   3.133  54.446  1.00  0.00    -0.155 C 
HETATM   19  C1  UNL     1      11.676   2.402  55.477  1.00  0.00     0.096 C 
ENDBRANCH  17  18
ENDBRANCH  11  17
ENDBRANCH   1   7
BRANCH   6  20
HETATM   20  N7  UNL     1      17.618   5.245  50.027  1.00  0.00    -0.285 NA
HETATM   21  H26 UNL     1      17.282   5.243  49.026  1.00  0.00     0.125 HD
HETATM   22  H27 UNL     1      17.435   5.069  49.007  1.00  0.00     0.125 HD
ENDBRANCH   6  20
BRANCH   3  23
HETATM   23  C13 UNL     1      21.464   2.053  52.433  1.00  0.00     0.030 A 
HETATM   24  C14 UNL     1      21.336   0.890  53.165  1.00  0.00     0.154 A 
HETATM   25  N3  UNL     1      22.579   0.478  53.540  1.00  0.00    -0.184 NA
HETATM   26  N4  UNL     1      23.478   1.337  53.074  1.00  0.00    -0.276 N 
HETATM   27  C21 UNL     1      22.837   2.324  52.384  1.00  0.00     0.128 A 
BRANCH  26  28
HETATM   28  C15 UNL     1      24.918   1.227  53.274  1.00  0.00     0.113 C 
HETATM   29  C16 UNL     1      25.271  -0.073  53.929  1.00  0.00     0.057 C 
HETATM   30  C17 UNL     1      26.054  -0.995  53.022  1.00  0.00     0.274 C 
HETATM   31  N5  UNL     1      27.244  -0.372  52.497  1.00  0.00     0.084 N 
HETATM   32  C18 UNL     1      28.386  -0.555  53.377  1.00  0.00     0.309 C 
HETATM   33  C19 UNL     1      27.103   1.033  52.244  1.00  0.00     0.274 C 
HETATM   34  C20 UNL     1      25.680   1.458  51.990  1.00  0.00     0.057 C 
ENDBRANCH  26  28
ENDBRANCH   3  23
TORSDOF 7
ENDMDL
MODEL 2
REMARK VINA RESULT:      -8.2      3.948      6.665
REMARK  7 active torsions:
REMARK  status: ('A' for Active; 'I' for Inactive)
REMARK    1  A    between atoms: C2_2  and  C3_3 
REMARK    2  A    between atoms: C3_3  and  C4_4 
REMARK    3  A    between atoms: N1_7  and  C7_8 
REMARK    4  A    between atoms: C10_12  and  C11_13 
REMARK    5  A    between atoms: C12_15  and  C13_16 
REMARK    6  A    between atoms: N4_19  and  C15_20 
REMARK    7  A    between atoms: C23_30  and  N7_31 
ROOT
HETATM    1  C11 UNL     1      21.455   3.600  51.385  1.00  0.00     0.143 A 
HETATM    2  N2  UNL     1      22.213   2.669  52.012  1.00  0.00    -0.239 NA
HETATM    3  C12 UNL     1      21.671   1.661  52.726  1.00  0.00     0.088 A 
HETATM    4  C22 UNL     1      20.300   1.531  52.851  1.00  0.00     0.151 A 
HETATM    5  N6  UNL     1      19.513   2.453  52.231  1.00  0.00    -0.244 NA
HETATM    6  C23 UNL     1      20.092   3.440  51.531  1.00  0.00     0.133 A 
ENDROOT
BRANCH   1   7
HETATM    7  C10 UNL     1      22.087   4.663  50.629  1.00  0.00     0.162 C 
HETATM    8  N1  UNL     1      22.684   4.684  49.343  1.00  0.00    -0.332 N 
HETATM    9  C6  UNL     1      22.644   6.084  48.926  1.00  0.00     0.189 C 
HETATM   10  C5  UNL     1      22.813   6.737  50.257  1.00  0.00     0.055 C 
HETATM   11  C4  UNL     1      23.429   7.876  50.528  1.00  0.00     0.037 C 
HETATM   12  N8  UNL     1      22.160   5.858  51.164  1.00  0.00    -0.231 NA
BRANCH   8  13
HETATM   13  C7  UNL     1      23.173   3.532  48.711  1.00  0.00     0.130 C 
HETATM   14  C8  UNL     1      22.404   2.831  47.901  1.00  0.00     0.105 C 
HETATM   15  C9  UNL     1      20.994   3.141  47.564  1.00  0.00     0.084 C 
HETATM   16  F1  UNL     1      22.797   1.717  47.256  1.00  0.00    -0.210 F 
ENDBRANCH   8  13
BRANCH  11  17
HETATM   17  C3  UNL     1      24.040   8.636  49.455  1.00  0.00     0.053 C 
BRANCH  17  18
HETATM   18  C2  UNL     1      25.330   8.934  49.516  1.00  0.00    -0.155 C 
HETATM   19  C1  UNL     1      26.556   9.323  49.828  1.00  0.00     0.096 C 
ENDBRANCH  17  18
ENDBRANCH  11  17
ENDBRANCH   1   7
BRANCH   6  20
HETATM   20  N7  UNL     1      19.232   4.379  50.899  1.00  0.00    -0.285 NA
HETATM   21  H26 UNL     1      19.382   4.934  50.014  1.00  0.00     0.125 HD
HETATM   22  H27 UNL     1      19.585   4.820  50.013  1.00  0.00     0.125 HD
ENDBRANCH   6  20
BRANCH   3  23
HETATM   23  C13 UNL     1      22.523   0.674  53.391  1.00  0.00     0.030 A 
HETATM   24  C14 UNL     1      22.177  -0.406  54.178  1.00  0.00     0.154 A 
HETATM   25  N3  UNL     1      23.319  -1.035  54.573  1.00  0.00    -0.184 NA
HETATM   26  N4  UNL     1      24.364  -0.392  54.067  1.00  0.00    -0.276 N 
HETATM   27  C21 UNL     1      23.922   0.668  53.331  1.00  0.00     0.128 A 
BRANCH  26  28
HETATM   28  C15 UNL     1      25.756  -0.771  54.273  1.00  0.00     0.113 C 
HETATM   29  C16 UNL     1      26.381  -1.235  52.992  1.00  0.00     0.057 C 
HETATM   30  C17 UNL     1      27.461  -0.301  52.493  1.00  0.00     0.274 C 
HETATM   31  N5  UNL     1      28.485  -0.065  53.480  1.00  0.00     0.084 N 
HETATM   32  C18 UNL     1      29.549  -1.052  53.406  1.00  0.00     0.309 C 
HETATM   33  C19 UNL     1      28.000  -0.040  54.829  1.00  0.00     0.274 C 
HETATM   34  C20 UNL     1      26.544   0.334  54.938  1.00  0.00     0.057 C 
ENDBRANCH  26  28
ENDBRANCH   3  23
TORSDOF 7
ENDMDL
MODEL 3
REMARK VINA RESULT:      -8.0      4.074      6.304
REMARK  7 active torsions:
REMARK  status: ('A' for Active; 'I' for Inactive)
REMARK    1  A    between atoms: C2_2  and  C3_3 
REMARK    2  A    between atoms: C3_3  and  C4_4 
REMARK    3  A    between atoms: N1_7  and  C7_8 
REMARK    4  A    between atoms: C10_12  and  C11_13 
REMARK    5  A    between atoms: C12_15  and  C13_16 
REMARK    6  A    between atoms: N4_19  and  C15_20 
REMARK    7  A    between atoms: C23_30  and  N7_31 
ROOT
HETATM    1  C11 UNL     1      20.894   2.672  51.052  1.00  0.00     0.143 A 
HETATM    2  N2  UNL     1      21.753   1.996  51.853  1.00  0.00    -0.239 NA
HETATM    3  C12 UNL     1      21.421   0.826  52.438  1.00  0.00     0.088 A 
HETATM    4  C22 UNL     1      20.176   0.257  52.243  1.00  0.00     0.151 A 
HETATM    5  N6  UNL     1      19.294   0.915  51.442  1.00  0.00    -0.244 NA
HETATM    6  C23 UNL     1      19.662   2.076  50.879  1.00  0.00     0.133 A 
ENDROOT
BRANCH   1   7
HETATM    7  C10 UNL     1      21.299   3.925  50.447  1.00  0.00     0.162 C 
HETATM    8  N1  UNL     1      22.232   4.222  49.421  1.00  0.00    -0.332 N 
HETATM    9  C6  UNL     1      21.817   5.520  48.891  1.00  0.00     0.189 C 
HETATM   10  C5  UNL     1      21.287   6.133  50.144  1.00  0.00     0.055 C 
HETATM   11  C4  UNL     1      21.314   7.408  50.497  1.00  0.00     0.037 C 
HETATM   12  N8  UNL     1      20.747   5.036  50.870  1.00  0.00    -0.231 NA
BRANCH   8  13
HETATM   13  C7  UNL     1      23.290   3.367  49.080  1.00  0.00     0.130 C 
HETATM   14  C8  UNL     1      24.518   3.620  49.489  1.00  0.00     0.105 C 
HETATM   15  C9  UNL     1      24.932   4.777  50.318  1.00  0.00     0.084 C 
HETATM   16  F1  UNL     1      25.585   2.850  49.206  1.00  0.00    -0.210 F 
ENDBRANCH   8  13
BRANCH  11  17
HETATM   17  C3  UNL     1      21.917   8.386  49.611  1.00  0.00     0.053 C 
BRANCH  17  18
HETATM   18  C2  UNL     1      23.230   8.561  49.628  1.00  0.00    -0.155 C 
HETATM   19  C1  UNL     1      24.544   8.498  49.780  1.00  0.00     0.096 C 
ENDBRANCH  17  18
ENDBRANCH  11  17
ENDBRANCH   1   7
BRANCH   6  20
HETATM   20  N7  UNL     1      18.708   2.727  50.050  1.00  0.00    -0.285 NA
HETATM   21  H26 UNL     1      18.365   2.459  49.089  1.00  0.00     0.125 HD
HETATM   22  H27 UNL     1      18.513   2.282  49.118  1.00  0.00     0.125 HD
ENDBRANCH   6  20
BRANCH   3  23
HETATM   23  C13 UNL     1      22.375   0.125  53.299  1.00  0.00     0.030 A 
HETATM   24  C14 UNL     1      22.149  -0.698  54.383  1.00  0.00     0.154 A 
HETATM   25  N3  UNL     1      23.351  -1.118  54.864  1.00  0.00    -0.184 NA
HETATM   26  N4  UNL     1      24.321  -0.591  54.126  1.00  0.00    -0.276 N 
HETATM   27  C21 UNL     1      23.766   0.183  53.149  1.00  0.00     0.128 A 
BRANCH  26  28
HETATM   28  C15 UNL     1      25.745  -0.813  54.338  1.00  0.00     0.113 C 
HETATM   29  C16 UNL     1      26.414  -1.252  53.071  1.00  0.00     0.057 C 
HETATM   30  C17 UNL     1      27.388  -0.228  52.535  1.00  0.00     0.274 C 
HETATM   31  N5  UNL     1      28.383   0.150  53.508  1.00  0.00     0.084 N 
HETATM   32  C18 UNL     1      29.546  -0.720  53.462  1.00  0.00     0.309 C 
HETATM   33  C19 UNL     1      27.899   0.170  54.857  1.00  0.00     0.274 C 
HETATM   34  C20 UNL     1      26.412   0.392  54.961  1.00  0.00     0.057 C 
ENDBRANCH  26  28
ENDBRANCH   3  23
TORSDOF 7
ENDMDL
MODEL 4
REMARK VINA RESULT:      -8.0      5.891      8.444
REMARK  7 active torsions:
REMARK  status: ('A' for Active; 'I' for Inactive)
REMARK    1  A    between atoms: C2_2  and  C3_3 
REMARK    2  A    between atoms: C3_3  and  C4_4 
REMARK    3  A    between atoms: N1_7  and  C7_8 
REMARK    4  A    between atoms: C10_12  and  C11_13 
REMARK    5  A    between atoms: C12_15  and  C13_16 
REMARK    6  A    between atoms: N4_19  and  C15_20 
REMARK    7  A    between atoms: C23_30  and  N7_31 
ROOT
HETATM    1  C11 UNL     1      23.753   5.376  50.876  1.00  0.00     0.143 A 
HETATM    2  N2  UNL     1      24.920   5.970  50.528  1.00  0.00    -0.239 NA
HETATM    3  C12 UNL     1      25.009   7.295  50.290  1.00  0.00     0.088 A 
HETATM    4  C22 UNL     1      23.901   8.116  50.390  1.00  0.00     0.151 A 
HETATM    5  N6  UNL     1      22.715   7.545  50.738  1.00  0.00    -0.244 NA
HETATM    6  C23 UNL     1      22.668   6.223  50.966  1.00  0.00     0.133 A 
ENDROOT
BRANCH   1   7
HETATM    7  C10 UNL     1      23.710   3.948  51.122  1.00  0.00     0.162 C 
HETATM    8  N1  UNL     1      23.903   2.835  50.265  1.00  0.00    -0.332 N 
HETATM    9  C6  UNL     1      24.268   1.730  51.150  1.00  0.00     0.189 C 
HETATM   10  C5  UNL     1      23.458   2.103  52.347  1.00  0.00     0.055 C 
HETATM   11  C4  UNL     1      22.881   1.294  53.219  1.00  0.00     0.037 C 
HETATM   12  N8  UNL     1      23.451   3.525  52.335  1.00  0.00    -0.231 NA
BRANCH   8  13
HETATM   13  C7  UNL     1      23.747   2.906  48.873  1.00  0.00     0.130 C 
HETATM   14  C8  UNL     1      22.689   2.382  48.287  1.00  0.00     0.105 C 
HETATM   15  C9  UNL     1      21.578   1.681  48.975  1.00  0.00     0.084 C 
HETATM   16  F1  UNL     1      22.464   2.409  46.960  1.00  0.00    -0.210 F 
ENDBRANCH   8  13
BRANCH  11  17
HETATM   17  C3  UNL     1      23.005  -0.142  53.058  1.00  0.00     0.053 C 
BRANCH  17  18
HETATM   18  C2  UNL     1      22.127  -0.944  53.643  1.00  0.00    -0.155 C 
HETATM   19  C1  UNL     1      21.246  -1.552  54.422  1.00  0.00     0.096 C 
ENDBRANCH  17  18
ENDBRANCH  11  17
ENDBRANCH   1   7
BRANCH   6  20
HETATM   20  N7  UNL     1      21.409   5.671  51.327  1.00  0.00    -0.285 NA
HETATM   21  H26 UNL     1      21.127   5.171  52.213  1.00  0.00     0.125 HD
HETATM   22  H27 UNL     1      21.349   5.212  52.271  1.00  0.00     0.125 HD
ENDBRANCH   6  20
BRANCH   3  23
HETATM   23  C13 UNL     1      26.288   7.902  49.916  1.00  0.00     0.030 A 
HETATM   24  C14 UNL     1      26.832   9.115  50.285  1.00  0.00     0.154 A 
HETATM   25  N3  UNL     1      28.047   9.244  49.682  1.00  0.00    -0.184 NA
HETATM   26  N4  UNL     1      28.284   8.161  48.951  1.00  0.00    -0.276 N 
HETATM   27  C21 UNL     1      27.227   7.306  49.065  1.00  0.00     0.128 A 
BRANCH  26  28
HETATM   28  C15 UNL     1      29.486   7.937  48.159  1.00  0.00     0.113 C 
HETATM   29  C16 UNL     1      30.681   8.569  48.806  1.00  0.00     0.057 C 
HETATM   30  C17 UNL     1      31.687   7.555  49.300  1.00  0.00     0.274 C 
HETATM   31  N5  UNL     1      32.115   6.651  48.262  1.00  0.00     0.084 N 
HETATM   32  C18 UNL     1      33.258   7.167  47.529  1.00  0.00     0.309 C 
HETATM   33  C19 UNL     1      31.090   6.329  47.312  1.00  0.00     0.274 C 
HETATM   34  C20 UNL     1      29.694   6.469  47.862  1.00  0.00     0.057 C 
ENDBRANCH  26  28
ENDBRANCH   3  23
TORSDOF 7
ENDMDL
MODEL 5
REMARK VINA RESULT:      -7.9     10.595     14.686
REMARK  7 active torsions:
REMARK  status: ('A' for Active; 'I' for Inactive)
REMARK    1  A    between atoms: C2_2  and  C3_3 
REMARK    2  A    between atoms: C3_3  and  C4_4 
REMARK    3  A    between atoms: N1_7  and  C7_8 
REMARK    4  A    between atoms: C10_12  and  C11_13 
REMARK    5  A    between atoms: C12_15  and  C13_16 
REMARK    6  A    between atoms: N4_19  and  C15_20 
REMARK    7  A    between atoms: C23_30  and  N7_31 
ROOT
HETATM    1  C11 UNL     1      31.092   5.943  48.096  1.00  0.00     0.143 A 
HETATM    2  N2  UNL     1      31.600   6.073  46.846  1.00  0.00    -0.239 NA
HETATM    3  C12 UNL     1      32.925   6.009  46.599  1.00  0.00     0.088 A 
HETATM    4  C22 UNL     1      33.834   5.806  47.621  1.00  0.00     0.151 A 
HETATM    5  N6  UNL     1      33.351   5.672  48.886  1.00  0.00    -0.244 NA
HETATM    6  C23 UNL     1      32.027   5.742  49.091  1.00  0.00     0.133 A 
ENDROOT
BRANCH   1   7
HETATM    7  C10 UNL     1      29.660   6.020  48.309  1.00  0.00     0.162 C 
HETATM    8  N1  UNL     1      28.782   7.125  48.445  1.00  0.00    -0.332 N 
HETATM    9  C6  UNL     1      27.460   6.608  48.097  1.00  0.00     0.189 C 
HETATM   10  C5  UNL     1      27.604   5.213  48.609  1.00  0.00     0.055 C 
HETATM   11  C4  UNL     1      26.667   4.442  49.135  1.00  0.00     0.037 C 
HETATM   12  N8  UNL     1      28.977   4.905  48.404  1.00  0.00    -0.231 NA
BRANCH   8  13
HETATM   13  C7  UNL     1      29.215   8.399  48.839  1.00  0.00     0.130 C 
HETATM   14  C8  UNL     1      29.550   9.304  47.940  1.00  0.00     0.105 C 
HETATM   15  C9  UNL     1      29.521   9.114  46.470  1.00  0.00     0.084 C 
HETATM   16  F1  UNL     1      29.973  10.547  48.236  1.00  0.00    -0.210 F 
ENDBRANCH   8  13
BRANCH  11  17
HETATM   17  C3  UNL     1      25.312   4.944  49.261  1.00  0.00     0.053 C 
BRANCH  17  18
HETATM   18  C2  UNL     1      24.295   4.094  49.231  1.00  0.00    -0.155 C 
HETATM   19  C1  UNL     1      23.464   3.073  49.096  1.00  0.00     0.096 C 
ENDBRANCH  17  18
ENDBRANCH  11  17
ENDBRANCH   1   7
BRANCH   6  20
HETATM   20  N7  UNL     1      31.567   5.597  50.427  1.00  0.00    -0.285 NA
HETATM   21  H26 UNL     1      31.371   4.716  50.975  1.00  0.00     0.125 HD
HETATM   22  H27 UNL     1      31.437   4.614  50.777  1.00  0.00     0.125 HD
ENDBRANCH   6  20
BRANCH   3  23
HETATM   23  C13 UNL     1      33.437   6.154  45.235  1.00  0.00     0.030 A 
HETATM   24  C14 UNL     1      33.943   7.267  44.594  1.00  0.00     0.154 A 
HETATM   25  N3  UNL     1      34.295   6.912  43.328  1.00  0.00    -0.184 NA
HETATM   26  N4  UNL     1      34.029   5.624  43.150  1.00  0.00    -0.276 N 
HETATM   27  C21 UNL     1      33.500   5.114  44.299  1.00  0.00     0.128 A 
BRANCH  26  28
HETATM   28  C15 UNL     1      34.271   4.885  41.917  1.00  0.00     0.113 C 
HETATM   29  C16 UNL     1      33.030   4.178  41.462  1.00  0.00     0.057 C 
HETATM   30  C17 UNL     1      32.476   4.736  40.171  1.00  0.00     0.274 C 
HETATM   31  N5  UNL     1      33.452   4.742  39.109  1.00  0.00     0.084 N 
HETATM   32  C18 UNL     1      33.454   3.494  38.365  1.00  0.00     0.309 C 
HETATM   33  C19 UNL     1      34.792   4.993  39.552  1.00  0.00     0.274 C 
HETATM   34  C20 UNL     1      34.865   5.767  40.843  1.00  0.00     0.057 C 
ENDBRANCH  26  28
ENDBRANCH   3  23
TORSDOF 7
ENDMDL
MODEL 6
REMARK VINA RESULT:      -7.7      6.052      8.345
REMARK  7 active torsions:
REMARK  status: ('A' for Active; 'I' for Inactive)
REMARK    1  A    between atoms: C2_2  and  C3_3 
REMARK    2  A    between atoms: C3_3  and  C4_4 
REMARK    3  A    between atoms: N1_7  and  C7_8 
REMARK    4  A    between atoms: C10_12  and  C11_13 
REMARK    5  A    between atoms: C12_15  and  C13_16 
REMARK    6  A    between atoms: N4_19  and  C15_20 
REMARK    7  A    between atoms: C23_30  and  N7_31 
ROOT
HETATM    1  C11 UNL     1      23.613   5.200  50.605  1.00  0.00     0.143 A 
HETATM    2  N2  UNL     1      24.839   5.051  50.048  1.00  0.00    -0.239 NA
HETATM    3  C12 UNL     1      25.558   6.102  49.601  1.00  0.00     0.088 A 
HETATM    4  C22 UNL     1      25.071   7.393  49.695  1.00  0.00     0.151 A 
HETATM    5  N6  UNL     1      23.842   7.571  50.252  1.00  0.00    -0.244 NA
HETATM    6  C23 UNL     1      23.158   6.500  50.682  1.00  0.00     0.133 A 
ENDROOT
BRANCH   1   7
HETATM    7  C10 UNL     1      22.881   4.038  51.069  1.00  0.00     0.162 C 
HETATM    8  N1  UNL     1      22.911   3.329  52.297  1.00  0.00    -0.332 N 
HETATM    9  C6  UNL     1      21.625   2.638  52.372  1.00  0.00     0.189 C 
HETATM   10  C5  UNL     1      21.413   2.368  50.919  1.00  0.00     0.055 C 
HETATM   11  C4  UNL     1      20.808   1.328  50.369  1.00  0.00     0.037 C 
HETATM   12  N8  UNL     1      22.009   3.480  50.265  1.00  0.00    -0.231 NA
BRANCH   8  13
HETATM   13  C7  UNL     1      24.007   3.365  53.172  1.00  0.00     0.130 C 
HETATM   14  C8  UNL     1      24.861   2.362  53.220  1.00  0.00     0.105 C 
HETATM   15  C9  UNL     1      24.791   1.125  52.406  1.00  0.00     0.084 C 
HETATM   16  F1  UNL     1      25.936   2.319  54.030  1.00  0.00    -0.210 F 
ENDBRANCH   8  13
BRANCH  11  17
HETATM   17  C3  UNL     1      20.260   0.285  51.215  1.00  0.00     0.053 C 
BRANCH  17  18
HETATM   18  C2  UNL     1      18.946   0.133  51.297  1.00  0.00    -0.155 C 
HETATM   19  C1  UNL     1      17.697  -0.273  51.461  1.00  0.00     0.096 C 
ENDBRANCH  17  18
ENDBRANCH  11  17
ENDBRANCH   1   7
BRANCH   6  20
HETATM   20  N7  UNL     1      21.880   6.734  51.257  1.00  0.00    -0.285 NA
HETATM   21  H26 UNL     1      21.022   6.118  51.253  1.00  0.00     0.125 HD
HETATM   22  H27 UNL     1      21.161   5.976  51.133  1.00  0.00     0.125 HD
ENDBRANCH   6  20
BRANCH   3  23
HETATM   23  C13 UNL     1      26.880   5.902  49.004  1.00  0.00     0.030 A 
HETATM   24  C14 UNL     1      27.583   4.735  48.784  1.00  0.00     0.154 A 
HETATM   25  N3  UNL     1      28.772   5.052  48.200  1.00  0.00    -0.184 NA
HETATM   26  N4  UNL     1      28.841   6.369  48.046  1.00  0.00    -0.276 N 
HETATM   27  C21 UNL     1      27.696   6.935  48.526  1.00  0.00     0.128 A 
BRANCH  26  28
HETATM   28  C15 UNL     1      29.966   7.082  47.454  1.00  0.00     0.113 C 
HETATM   29  C16 UNL     1      29.829   8.561  47.655  1.00  0.00     0.057 C 
HETATM   30  C17 UNL     1      30.884   9.128  48.577  1.00  0.00     0.274 C 
HETATM   31  N5  UNL     1      32.223   8.815  48.143  1.00  0.00     0.084 N 
HETATM   32  C18 UNL     1      32.743   9.812  47.222  1.00  0.00     0.309 C 
HETATM   33  C19 UNL     1      32.347   7.530  47.518  1.00  0.00     0.274 C 
HETATM   34  C20 UNL     1      31.289   6.547  47.950  1.00  0.00     0.057 C 
ENDBRANCH  26  28
ENDBRANCH   3  23
TORSDOF 7
ENDMDL
MODEL 7
REMARK VINA RESULT:      -7.7      2.601     10.275
REMARK  7 active torsions:
REMARK  status: ('A' for Active; 'I' for Inactive)
REMARK    1  A    between atoms: C2_2  and  C3_3 
REMARK    2  A    between atoms: C3_3  and  C4_4 
REMARK    3  A    between atoms: N1_7  and  C7_8 
REMARK    4  A    between atoms: C10_12  and  C11_13 
REMARK    5  A    between atoms: C12_15  and  C13_16 
REMARK    6  A    between atoms: N4_19  and  C15_20 
REMARK    7  A    between atoms: C23_30  and  N7_31 
ROOT
HETATM    1  C11 UNL     1      22.337  -0.143  53.410  1.00  0.00     0.143 A 
HETATM    2  N2  UNL     1      21.499   0.406  52.497  1.00  0.00    -0.239 NA
HETATM    3  C12 UNL     1      20.176   0.140  52.483  1.00  0.00     0.088 A 
HETATM    4  C22 UNL     1      19.610  -0.714  53.411  1.00  0.00     0.151 A 
HETATM    5  N6  UNL     1      20.428  -1.279  54.340  1.00  0.00    -0.244 NA
HETATM    6  C23 UNL     1      21.738  -0.990  54.319  1.00  0.00     0.133 A 
ENDROOT
BRANCH   1   7
HETATM    7  C10 UNL     1      23.751   0.175  53.381  1.00  0.00     0.162 C 
HETATM    8  N1  UNL     1      24.443   1.412  53.408  1.00  0.00    -0.332 N 
HETATM    9  C6  UNL     1      25.783   1.090  53.895  1.00  0.00     0.189 C 
HETATM   10  C5  UNL     1      25.933  -0.272  53.304  1.00  0.00     0.055 C 
HETATM   11  C4  UNL     1      27.040  -0.847  52.865  1.00  0.00     0.037 C 
HETATM   12  N8  UNL     1      24.616  -0.808  53.321  1.00  0.00    -0.231 NA
BRANCH   8  13
HETATM   13  C7  UNL     1      23.853   2.625  53.023  1.00  0.00     0.130 C 
HETATM   14  C8  UNL     1      24.038   3.107  51.810  1.00  0.00     0.105 C 
HETATM   15  C9  UNL     1      24.849   2.476  50.742  1.00  0.00     0.084 C 
HETATM   16  F1  UNL     1      23.508   4.261  51.364  1.00  0.00    -0.210 F 
ENDBRANCH   8  13
BRANCH  11  17
HETATM   17  C3  UNL     1      28.299  -0.129  52.933  1.00  0.00     0.053 C 
BRANCH  17  18
HETATM   18  C2  UNL     1      29.347  -0.699  53.510  1.00  0.00    -0.155 C 
HETATM   19  C1  UNL     1      30.357  -1.462  53.895  1.00  0.00     0.096 C 
ENDBRANCH  17  18
ENDBRANCH  11  17
ENDBRANCH   1   7
BRANCH   6  20
HETATM   20  N7  UNL     1      22.554  -1.603  55.308  1.00  0.00    -0.285 NA
HETATM   21  H26 UNL     1      23.391  -2.234  55.187  1.00  0.00     0.125 HD
HETATM   22  H27 UNL     1      23.347  -2.201  54.961  1.00  0.00     0.125 HD
ENDBRANCH   6  20
BRANCH   3  23
HETATM   23  C13 UNL     1      19.303   0.752  51.481  1.00  0.00     0.030 A 
HETATM   24  C14 UNL     1      19.533   1.006  50.144  1.00  0.00     0.154 A 
HETATM   25  N3  UNL     1      18.421   1.591  49.618  1.00  0.00    -0.184 NA
HETATM   26  N4  UNL     1      17.505   1.713  50.571  1.00  0.00    -0.276 N 
HETATM   27  C21 UNL     1      18.004   1.209  51.737  1.00  0.00     0.128 A 
BRANCH  26  28
HETATM   28  C15 UNL     1      16.181   2.295  50.387  1.00  0.00     0.113 C 
HETATM   29  C16 UNL     1      15.246   1.855  51.472  1.00  0.00     0.057 C 
HETATM   30  C17 UNL     1      14.826   2.989  52.380  1.00  0.00     0.274 C 
HETATM   31  N5  UNL     1      14.250   4.093  51.655  1.00  0.00     0.084 N 
HETATM   32  C18 UNL     1      12.815   3.937  51.478  1.00  0.00     0.309 C 
HETATM   33  C19 UNL     1      14.832   4.308  50.362  1.00  0.00     0.274 C 
HETATM   34  C20 UNL     1      16.246   3.798  50.247  1.00  0.00     0.057 C 
ENDBRANCH  26  28
ENDBRANCH   3  23
TORSDOF 7
ENDMDL
MODEL 8
REMARK VINA RESULT:      -7.6      8.146     13.345
REMARK  7 active torsions:
REMARK  status: ('A' for Active; 'I' for Inactive)
REMARK    1  A    between atoms: C2_2  and  C3_3 
REMARK    2  A    between atoms: C3_3  and  C4_4 
REMARK    3  A    between atoms: N1_7  and  C7_8 
REMARK    4  A    between atoms: C10_12  and  C11_13 
REMARK    5  A    between atoms: C12_15  and  C13_16 
REMARK    6  A    between atoms: N4_19  and  C15_20 
REMARK    7  A    between atoms: C23_30  and  N7_31 
ROOT
HETATM    1  C11 UNL     1      28.513   7.622  47.977  1.00  0.00     0.143 A 
HETATM    2  N2  UNL     1      27.797   6.798  48.779  1.00  0.00    -0.239 NA
HETATM    3  C12 UNL     1      26.463   6.642  48.644  1.00  0.00     0.088 A 
HETATM    4  C22 UNL     1      25.760   7.323  47.668  1.00  0.00     0.151 A 
HETATM    5  N6  UNL     1      26.454   8.157  46.847  1.00  0.00    -0.244 NA
HETATM    6  C23 UNL     1      27.779   8.285  47.015  1.00  0.00     0.133 A 
ENDROOT
BRANCH   1   7
HETATM    7  C10 UNL     1      29.944   7.754  48.163  1.00  0.00     0.162 C 
HETATM    8  N1  UNL     1      30.714   8.605  48.997  1.00  0.00    -0.332 N 
HETATM    9  C6  UNL     1      32.000   7.927  49.150  1.00  0.00     0.189 C 
HETATM   10  C5  UNL     1      32.092   7.279  47.809  1.00  0.00     0.055 C 
HETATM   11  C4  UNL     1      33.182   7.038  47.099  1.00  0.00     0.037 C 
HETATM   12  N8  UNL     1      30.744   6.981  47.470  1.00  0.00    -0.231 NA
BRANCH   8  13
HETATM   13  C7  UNL     1      30.230   9.818  49.505  1.00  0.00     0.130 C 
HETATM   14  C8  UNL     1      30.544  10.962  48.929  1.00  0.00     0.105 C 
HETATM   15  C9  UNL     1      31.405  11.120  47.732  1.00  0.00     0.084 C 
HETATM   16  F1  UNL     1      30.120  12.167  49.353  1.00  0.00    -0.210 F 
ENDBRANCH   8  13
BRANCH  11  17
HETATM   17  C3  UNL     1      34.480   7.422  47.622  1.00  0.00     0.053 C 
BRANCH  17  18
HETATM   18  C2  UNL     1      35.150   6.577  48.393  1.00  0.00    -0.155 C 
HETATM   19  C1  UNL     1      35.576   5.612  49.193  1.00  0.00     0.096 C 
ENDBRANCH  17  18
ENDBRANCH  11  17
ENDBRANCH   1   7
BRANCH   6  20
HETATM   20  N7  UNL     1      28.463   9.167  46.135  1.00  0.00    -0.285 NA
HETATM   21  H26 UNL     1      28.070   9.886  45.469  1.00  0.00     0.125 HD
HETATM   22  H27 UNL     1      27.867   9.810  45.554  1.00  0.00     0.125 HD
ENDBRANCH   6  20
BRANCH   3  23
HETATM   23  C13 UNL     1      25.723   5.743  49.531  1.00  0.00     0.030 A 
HETATM   24  C14 UNL     1      24.584   5.975  50.275  1.00  0.00     0.154 A 
HETATM   25  N3  UNL     1      24.267   4.834  50.946  1.00  0.00    -0.184 NA
HETATM   26  N4  UNL     1      25.162   3.897  50.654  1.00  0.00    -0.276 N 
HETATM   27  C21 UNL     1      26.079   4.413  49.784  1.00  0.00     0.128 A 
BRANCH  26  28
HETATM   28  C15 UNL     1      25.153   2.540  51.184  1.00  0.00     0.113 C 
HETATM   29  C16 UNL     1      26.546   2.001  51.304  1.00  0.00     0.057 C 
HETATM   30  C17 UNL     1      26.972   1.787  52.739  1.00  0.00     0.274 C 
HETATM   31  N5  UNL     1      26.057   0.944  53.466  1.00  0.00     0.084 N 
HETATM   32  C18 UNL     1      26.398  -0.463  53.340  1.00  0.00     0.309 C 
HETATM   33  C19 UNL     1      24.685   1.102  53.078  1.00  0.00     0.274 C 
HETATM   34  C20 UNL     1      24.381   2.451  52.480  1.00  0.00     0.057 C 
ENDBRANCH  26  28
ENDBRANCH   3  23
TORSDOF 7
ENDMDL
MODEL 9
REMARK VINA RESULT:      -7.5      3.265     10.259
REMARK  7 active torsions:
REMARK  status: ('A' for Active; 'I' for Inactive)
REMARK    1  A    between atoms: C2_2  and  C3_3 
REMARK    2  A    between atoms: C3_3  and  C4_4 
REMARK    3  A    between atoms: N1_7  and  C7_8 
REMARK    4  A    between atoms: C10_12  and  C11_13 
REMARK    5  A    between atoms: C12_15  and  C13_16 
REMARK    6  A    between atoms: N4_19  and  C15_20 
REMARK    7  A    between atoms: C23_30  and  N7_31 
ROOT
HETATM    1  C11 UNL     1      21.951  -0.138  53.213  1.00  0.00     0.143 A 
HETATM    2  N2  UNL     1      21.113   0.309  52.246  1.00  0.00    -0.239 NA
HETATM    3  C12 UNL     1      19.800  -0.001  52.233  1.00  0.00     0.088 A 
HETATM    4  C22 UNL     1      19.244  -0.798  53.216  1.00  0.00     0.151 A 
HETATM    5  N6  UNL     1      20.063  -1.261  54.200  1.00  0.00    -0.244 NA
HETATM    6  C23 UNL     1      21.363  -0.931  54.177  1.00  0.00     0.133 A 
ENDROOT
BRANCH   1   7
HETATM    7  C10 UNL     1      23.355   0.223  53.182  1.00  0.00     0.162 C 
HETATM    8  N1  UNL     1      24.006   1.483  53.179  1.00  0.00    -0.332 N 
HETATM    9  C6  UNL     1      25.354   1.216  53.679  1.00  0.00     0.189 C 
HETATM   10  C5  UNL     1      25.550  -0.156  53.124  1.00  0.00     0.055 C 
HETATM   11  C4  UNL     1      26.677  -0.706  52.705  1.00  0.00     0.037 C 
HETATM   12  N8  UNL     1      24.251  -0.733  53.150  1.00  0.00    -0.231 NA
BRANCH   8  13
HETATM   13  C7  UNL     1      23.381   2.665  52.760  1.00  0.00     0.130 C 
HETATM   14  C8  UNL     1      23.627   3.171  51.568  1.00  0.00     0.105 C 
HETATM   15  C9  UNL     1      24.548   2.596  50.558  1.00  0.00     0.084 C 
HETATM   16  F1  UNL     1      23.068   4.299  51.091  1.00  0.00    -0.210 F 
ENDBRANCH   8  13
BRANCH  11  17
HETATM   17  C3  UNL     1      27.912   0.053  52.759  1.00  0.00     0.053 C 
BRANCH  17  18
HETATM   18  C2  UNL     1      28.960  -0.449  53.395  1.00  0.00    -0.155 C 
HETATM   19  C1  UNL     1      30.065  -1.064  53.788  1.00  0.00     0.096 C 
ENDBRANCH  17  18
ENDBRANCH  11  17
ENDBRANCH   1   7
BRANCH   6  20
HETATM   20  N7  UNL     1      22.180  -1.437  55.224  1.00  0.00    -0.285 NA
HETATM   21  H26 UNL     1      22.485  -2.429  55.414  1.00  0.00     0.125 HD
HETATM   22  H27 UNL     1      22.360  -2.472  55.223  1.00  0.00     0.125 HD
ENDBRANCH   6  20
BRANCH   3  23
HETATM   23  C13 UNL     1      18.926   0.500  51.171  1.00  0.00     0.030 A 
HETATM   24  C14 UNL     1      19.078   1.595  50.344  1.00  0.00     0.154 A 
HETATM   25  N3  UNL     1      18.002   1.659  49.512  1.00  0.00    -0.184 NA
HETATM   26  N4  UNL     1      17.183   0.650  49.785  1.00  0.00    -0.276 N 
HETATM   27  C21 UNL     1      17.712  -0.091  50.801  1.00  0.00     0.128 A 
BRANCH  26  28
HETATM   28  C15 UNL     1      15.923   0.389  49.100  1.00  0.00     0.113 C 
HETATM   29  C16 UNL     1      15.824  -1.049  48.689  1.00  0.00     0.057 C 
HETATM   30  C17 UNL     1      14.744  -1.800  49.433  1.00  0.00     0.274 C 
HETATM   31  N5  UNL     1      13.453  -1.168  49.318  1.00  0.00     0.084 N 
HETATM   32  C18 UNL     1      12.724  -1.631  48.149  1.00  0.00     0.309 C 
HETATM   33  C19 UNL     1      13.508   0.264  49.264  1.00  0.00     0.274 C 
HETATM   34  C20 UNL     1      14.737   0.843  49.918  1.00  0.00     0.057 C 
ENDBRANCH  26  28
ENDBRANCH   3  23
TORSDOF 7
ENDMDL
