MODEL 1
REMARK VINA RESULT:      -8.0      0.000      0.000
REMARK  5 active torsions:
REMARK  status: ('A' for Active; 'I' for Inactive)
REMARK    1  A    between atoms: C7_9  and  N3_10 
REMARK    2  A    between atoms: N3_10  and  C8_11 
REMARK    3  A    between atoms: C8_11  and  C9_12 
REMARK    4  A    between atoms: C12_16  and  N4_17 
REMARK    5  A    between atoms: N4_17  and  C13_18 
ROOT
HETATM    1  N1  UNL     1      19.157   0.607  51.038  1.00  0.00    -0.191 NA
HETATM    2  C1  UNL     1      19.932   0.259  51.823  1.00  0.00     0.103 C 
HETATM    3  C2  UNL     1      20.897  -0.155  52.782  1.00  0.00     0.089 A 
HETATM    4  C3  UNL     1      20.491  -0.873  53.890  1.00  0.00     0.142 A 
HETATM    5  N2  UNL     1      21.324  -1.312  54.855  1.00  0.00    -0.259 NA
HETATM    6  C4  UNL     1      22.640  -1.021  54.711  1.00  0.00     0.069 A 
HETATM    7  C5  UNL     1      23.541  -1.448  55.674  1.00  0.00     0.035 A 
HETATM    8  C6  UNL     1      24.874  -1.144  55.512  1.00  0.00     0.031 A 
HETATM    9  C7  UNL     1      25.383  -0.436  54.448  1.00  0.00     0.029 A 
HETATM   10  C10 UNL     1      24.438  -0.040  53.526  1.00  0.00     0.045 A 
HETATM   11  C11 UNL     1      23.092  -0.299  53.609  1.00  0.00     0.023 A 
HETATM   12  C12 UNL     1      22.235   0.149  52.624  1.00  0.00     0.067 A 
ENDROOT
BRANCH  12  13
HETATM   13  N4  UNL     1      22.665   0.876  51.505  1.00  0.00    -0.354 N 
HETATM   14  H9  UNL     1      22.656   0.267  50.658  1.00  0.00     0.166 HD
BRANCH  13  15
HETATM   15  C13 UNL     1      23.056   2.224  51.479  1.00  0.00     0.033 A 
HETATM   16  C14 UNL     1      22.340   3.138  52.238  1.00  0.00     0.029 A 
HETATM   17  C15 UNL     1      22.764   4.462  52.182  1.00  0.00     0.004 A 
HETATM   18  C16 UNL     1      23.852   4.831  51.399  1.00  0.00     0.019 A 
HETATM   19  C17 UNL     1      24.548   3.894  50.651  1.00  0.00     0.013 A 
HETATM   20 BR1  UNL     1      26.042   4.407  49.578  1.00  0.00    -0.051 Br
HETATM   21  C18 UNL     1      24.138   2.574  50.696  1.00  0.00     0.048 A 
ENDBRANCH  13  15
ENDBRANCH  12  13
BRANCH   9  22
HETATM   22  N3  UNL     1      26.755  -0.130  54.297  1.00  0.00    -0.384 N 
HETATM   23  H4  UNL     1      27.397  -0.370  55.082  1.00  0.00     0.160 HD
BRANCH  22  24
HETATM   24  C8  UNL     1      27.278   0.487  53.119  1.00  0.00     0.189 C 
BRANCH  24  25
HETATM   25  C9  UNL     1      27.789   1.880  53.348  1.00  0.00     0.250 C 
HETATM   26  O1  UNL     1      28.233   2.616  54.211  1.00  0.00    -0.305 OA
ENDBRANCH  24  25
ENDBRANCH  22  24
ENDBRANCH   9  22
TORSDOF 5
ENDMDL
MODEL 2
REMARK VINA RESULT:      -8.0      2.614      5.294
REMARK  5 active torsions:
REMARK  status: ('A' for Active; 'I' for Inactive)
REMARK    1  A    between atoms: C7_9  and  N3_10 
REMARK    2  A    between atoms: N3_10  and  C8_11 
REMARK    3  A    between atoms: C8_11  and  C9_12 
REMARK    4  A    between atoms: C12_16  and  N4_17 
REMARK    5  A    between atoms: N4_17  and  C13_18 
ROOT
HETATM    1  N1  UNL     1      21.930  -1.556  54.390  1.00  0.00    -0.191 NA
HETATM    2  C1  UNL     1      22.101  -0.811  53.521  1.00  0.00     0.103 C 
HETATM    3  C2  UNL     1      22.330   0.105  52.458  1.00  0.00     0.089 A 
HETATM    4  C3  UNL     1      21.432   0.170  51.410  1.00  0.00     0.142 A 
HETATM    5  N2  UNL     1      21.556   1.002  50.356  1.00  0.00    -0.259 NA
HETATM    6  C4  UNL     1      22.638   1.819  50.341  1.00  0.00     0.069 A 
HETATM    7  C5  UNL     1      22.815   2.695  49.282  1.00  0.00     0.035 A 
HETATM    8  C6  UNL     1      23.919   3.518  49.283  1.00  0.00     0.031 A 
HETATM    9  C7  UNL     1      24.871   3.533  50.275  1.00  0.00     0.029 A 
HETATM   10  C10 UNL     1      24.639   2.641  51.300  1.00  0.00     0.045 A 
HETATM   11  C11 UNL     1      23.568   1.786  51.378  1.00  0.00     0.023 A 
HETATM   12  C12 UNL     1      23.436   0.932  52.454  1.00  0.00     0.067 A 
ENDROOT
BRANCH  12  13
HETATM   13  N4  UNL     1      24.358   0.879  53.510  1.00  0.00    -0.354 N 
HETATM   14  H9  UNL     1      23.930   1.271  54.377  1.00  0.00     0.166 HD
BRANCH  13  15
HETATM   15  C13 UNL     1      25.669   0.382  53.456  1.00  0.00     0.033 A 
HETATM   16  C14 UNL     1      25.878  -0.886  52.935  1.00  0.00     0.029 A 
HETATM   17  C15 UNL     1      27.193  -1.337  52.900  1.00  0.00     0.004 A 
HETATM   18  C16 UNL     1      28.233  -0.543  53.369  1.00  0.00     0.019 A 
HETATM   19  C17 UNL     1      27.993   0.722  53.885  1.00  0.00     0.013 A 
HETATM   20 BR1  UNL     1      29.426   1.809  54.527  1.00  0.00    -0.051 Br
HETATM   21  C18 UNL     1      26.690   1.184  53.926  1.00  0.00     0.048 A 
ENDBRANCH  13  15
ENDBRANCH  12  13
BRANCH   9  22
HETATM   22  N3  UNL     1      26.000   4.384  50.261  1.00  0.00    -0.384 N 
HETATM   23  H4  UNL     1      26.736   4.230  50.983  1.00  0.00     0.160 HD
BRANCH  22  24
HETATM   24  C8  UNL     1      26.159   5.431  49.302  1.00  0.00     0.189 C 
BRANCH  24  25
HETATM   25  C9  UNL     1      27.461   5.371  48.556  1.00  0.00     0.250 C 
HETATM   26  O1  UNL     1      28.527   4.784  48.523  1.00  0.00    -0.305 OA
ENDBRANCH  24  25
ENDBRANCH  22  24
ENDBRANCH   9  22
TORSDOF 5
ENDMDL
MODEL 3
REMARK VINA RESULT:      -7.7      2.179      4.675
REMARK  5 active torsions:
REMARK  status: ('A' for Active; 'I' for Inactive)
REMARK    1  A    between atoms: C7_9  and  N3_10 
REMARK    2  A    between atoms: N3_10  and  C8_11 
REMARK    3  A    between atoms: C8_11  and  C9_12 
REMARK    4  A    between atoms: C12_16  and  N4_17 
REMARK    5  A    between atoms: N4_17  and  C13_18 
ROOT
HETATM    1  N1  UNL     1      28.447   2.179  52.702  1.00  0.00    -0.191 NA
HETATM    2  C1  UNL     1      27.557   1.577  53.130  1.00  0.00     0.103 C 
HETATM    3  C2  UNL     1      26.453   0.838  53.637  1.00  0.00     0.089 A 
HETATM    4  C3  UNL     1      26.607   0.089  54.789  1.00  0.00     0.142 A 
HETATM    5  N2  UNL     1      25.627  -0.646  55.352  1.00  0.00    -0.259 NA
HETATM    6  C4  UNL     1      24.420  -0.637  54.735  1.00  0.00     0.069 A 
HETATM    7  C5  UNL     1      23.376  -1.374  55.271  1.00  0.00     0.035 A 
HETATM    8  C6  UNL     1      22.156  -1.354  54.632  1.00  0.00     0.031 A 
HETATM    9  C7  UNL     1      21.897  -0.643  53.483  1.00  0.00     0.029 A 
HETATM   10  C10 UNL     1      22.974   0.069  53.000  1.00  0.00     0.045 A 
HETATM   11  C11 UNL     1      24.221   0.105  53.572  1.00  0.00     0.023 A 
HETATM   12  C12 UNL     1      25.229   0.855  52.999  1.00  0.00     0.067 A 
ENDROOT
BRANCH  12  13
HETATM   13  N4  UNL     1      25.055   1.609  51.830  1.00  0.00    -0.354 N 
HETATM   14  H9  UNL     1      25.292   1.032  50.994  1.00  0.00     0.166 HD
BRANCH  13  15
HETATM   15  C13 UNL     1      24.626   2.943  51.749  1.00  0.00     0.033 A 
HETATM   16  C14 UNL     1      23.883   3.468  52.795  1.00  0.00     0.029 A 
HETATM   17  C15 UNL     1      23.481   4.794  52.672  1.00  0.00     0.004 A 
HETATM   18  C16 UNL     1      23.815   5.539  51.547  1.00  0.00     0.019 A 
HETATM   19  C17 UNL     1      24.559   4.987  50.515  1.00  0.00     0.013 A 
HETATM   20 BR1  UNL     1      25.016   6.016  48.974  1.00  0.00    -0.051 Br
HETATM   21  C18 UNL     1      24.967   3.670  50.625  1.00  0.00     0.048 A 
ENDBRANCH  13  15
ENDBRANCH  12  13
BRANCH   9  22
HETATM   22  N3  UNL     1      20.639  -0.633  52.837  1.00  0.00    -0.384 N 
HETATM   23  H4  UNL     1      19.980  -1.414  53.043  1.00  0.00     0.160 HD
BRANCH  22  24
HETATM   24  C8  UNL     1      20.252   0.398  51.928  1.00  0.00     0.189 C 
BRANCH  24  25
HETATM   25  C9  UNL     1      19.837   1.672  52.606  1.00  0.00     0.250 C 
HETATM   26  O1  UNL     1      20.179   2.828  52.781  1.00  0.00    -0.305 OA
ENDBRANCH  24  25
ENDBRANCH  22  24
ENDBRANCH   9  22
TORSDOF 5
ENDMDL
MODEL 4
REMARK VINA RESULT:      -7.6      2.125      4.657
REMARK  5 active torsions:
REMARK  status: ('A' for Active; 'I' for Inactive)
REMARK    1  A    between atoms: C7_9  and  N3_10 
REMARK    2  A    between atoms: N3_10  and  C8_11 
REMARK    3  A    between atoms: C8_11  and  C9_12 
REMARK    4  A    between atoms: C12_16  and  N4_17 
REMARK    5  A    between atoms: N4_17  and  C13_18 
ROOT
HETATM    1  N1  UNL     1      27.454   0.102  54.238  1.00  0.00    -0.191 NA
HETATM    2  C1  UNL     1      26.324  -0.145  54.287  1.00  0.00     0.103 C 
HETATM    3  C2  UNL     1      24.935  -0.443  54.327  1.00  0.00     0.089 A 
HETATM    4  C3  UNL     1      24.438  -1.235  55.345  1.00  0.00     0.142 A 
HETATM    5  N2  UNL     1      23.140  -1.577  55.475  1.00  0.00    -0.259 NA
HETATM    6  C4  UNL     1      22.283  -1.103  54.537  1.00  0.00     0.069 A 
HETATM    7  C5  UNL     1      20.936  -1.422  54.622  1.00  0.00     0.035 A 
HETATM    8  C6  UNL     1      20.079  -0.932  53.662  1.00  0.00     0.031 A 
HETATM    9  C7  UNL     1      20.470  -0.137  52.610  1.00  0.00     0.029 A 
HETATM   10  C10 UNL     1      21.818   0.146  52.581  1.00  0.00     0.045 A 
HETATM   11  C11 UNL     1      22.742  -0.300  53.495  1.00  0.00     0.023 A 
HETATM   12  C12 UNL     1      24.072   0.046  53.366  1.00  0.00     0.067 A 
ENDROOT
BRANCH  12  13
HETATM   13  N4  UNL     1      24.558   0.852  52.327  1.00  0.00    -0.354 N 
HETATM   14  H9  UNL     1      25.283   0.334  51.784  1.00  0.00     0.166 HD
BRANCH  13  15
HETATM   15  C13 UNL     1      24.160   2.163  52.026  1.00  0.00     0.033 A 
HETATM   16  C14 UNL     1      24.098   3.092  53.054  1.00  0.00     0.029 A 
HETATM   17  C15 UNL     1      23.699   4.379  52.708  1.00  0.00     0.004 A 
HETATM   18  C16 UNL     1      23.381   4.699  51.393  1.00  0.00     0.019 A 
HETATM   19  C17 UNL     1      23.452   3.748  50.386  1.00  0.00     0.013 A 
HETATM   20 BR1  UNL     1      23.016   4.194  48.581  1.00  0.00    -0.051 Br
HETATM   21  C18 UNL     1      23.848   2.464  50.714  1.00  0.00     0.048 A 
ENDBRANCH  13  15
ENDBRANCH  12  13
BRANCH   9  22
HETATM   22  N3  UNL     1      19.577   0.358  51.632  1.00  0.00    -0.384 N 
HETATM   23  H4  UNL     1      18.692  -0.168  51.469  1.00  0.00     0.160 HD
BRANCH  22  24
HETATM   24  C8  UNL     1      19.848   1.538  50.874  1.00  0.00     0.189 C 
BRANCH  24  25
HETATM   25  C9  UNL     1      19.719   2.806  51.668  1.00  0.00     0.250 C 
HETATM   26  O1  UNL     1      20.163   3.382  52.645  1.00  0.00    -0.305 OA
ENDBRANCH  24  25
ENDBRANCH  22  24
ENDBRANCH   9  22
TORSDOF 5
ENDMDL
MODEL 5
REMARK VINA RESULT:      -7.5      3.026      5.112
REMARK  5 active torsions:
REMARK  status: ('A' for Active; 'I' for Inactive)
REMARK    1  A    between atoms: C7_9  and  N3_10 
REMARK    2  A    between atoms: N3_10  and  C8_11 
REMARK    3  A    between atoms: C8_11  and  C9_12 
REMARK    4  A    between atoms: C12_16  and  N4_17 
REMARK    5  A    between atoms: N4_17  and  C13_18 
ROOT
HETATM    1  N1  UNL     1      27.168   2.499  51.157  1.00  0.00    -0.191 NA
HETATM    2  C1  UNL     1      26.588   1.825  51.897  1.00  0.00     0.103 C 
HETATM    3  C2  UNL     1      25.860   0.995  52.793  1.00  0.00     0.089 A 
HETATM    4  C3  UNL     1      26.519   0.387  53.845  1.00  0.00     0.142 A 
HETATM    5  N2  UNL     1      25.924  -0.417  54.749  1.00  0.00    -0.259 NA
HETATM    6  C4  UNL     1      24.593  -0.629  54.601  1.00  0.00     0.069 A 
HETATM    7  C5  UNL     1      23.929  -1.447  55.503  1.00  0.00     0.035 A 
HETATM    8  C6  UNL     1      22.578  -1.652  55.338  1.00  0.00     0.031 A 
HETATM    9  C7  UNL     1      21.829  -1.095  54.327  1.00  0.00     0.029 A 
HETATM   10  C10 UNL     1      22.544  -0.293  53.465  1.00  0.00     0.045 A 
HETATM   11  C11 UNL     1      23.890  -0.035  53.555  1.00  0.00     0.023 A 
HETATM   12  C12 UNL     1      24.505   0.786  52.631  1.00  0.00     0.067 A 
ENDROOT
BRANCH  12  13
HETATM   13  N4  UNL     1      23.820   1.396  51.571  1.00  0.00    -0.354 N 
HETATM   14  H9  UNL     1      23.900   0.811  50.711  1.00  0.00     0.166 HD
BRANCH  13  15
HETATM   15  C13 UNL     1      23.118   2.611  51.613  1.00  0.00     0.033 A 
HETATM   16  C14 UNL     1      23.506   3.571  52.536  1.00  0.00     0.029 A 
HETATM   17  C15 UNL     1      22.782   4.759  52.541  1.00  0.00     0.004 A 
HETATM   18  C16 UNL     1      21.726   4.955  51.659  1.00  0.00     0.019 A 
HETATM   19  C17 UNL     1      21.361   3.976  50.747  1.00  0.00     0.013 A 
HETATM   20 BR1  UNL     1      19.909   4.252  49.538  1.00  0.00    -0.051 Br
HETATM   21  C18 UNL     1      22.072   2.789  50.730  1.00  0.00     0.048 A 
ENDBRANCH  13  15
ENDBRANCH  12  13
BRANCH   9  22
HETATM   22  N3  UNL     1      20.441  -1.316  54.171  1.00  0.00    -0.384 N 
HETATM   23  H4  UNL     1      20.029  -2.161  54.621  1.00  0.00     0.160 HD
BRANCH  22  24
HETATM   24  C8  UNL     1      19.602  -0.430  53.428  1.00  0.00     0.189 C 
BRANCH  24  25
HETATM   25  C9  UNL     1      18.282  -1.034  53.043  1.00  0.00     0.250 C 
HETATM   26  O1  UNL     1      17.487  -1.109  52.124  1.00  0.00    -0.305 OA
ENDBRANCH  24  25
ENDBRANCH  22  24
ENDBRANCH   9  22
TORSDOF 5
ENDMDL
MODEL 6
REMARK VINA RESULT:      -7.4      2.100      3.403
REMARK  5 active torsions:
REMARK  status: ('A' for Active; 'I' for Inactive)
REMARK    1  A    between atoms: C7_9  and  N3_10 
REMARK    2  A    between atoms: N3_10  and  C8_11 
REMARK    3  A    between atoms: C8_11  and  C9_12 
REMARK    4  A    between atoms: C12_16  and  N4_17 
REMARK    5  A    between atoms: N4_17  and  C13_18 
ROOT
HETATM    1  N1  UNL     1      21.628   6.297  51.067  1.00  0.00    -0.191 NA
HETATM    2  C1  UNL     1      21.713   5.204  51.435  1.00  0.00     0.103 C 
HETATM    3  C2  UNL     1      21.835   3.864  51.897  1.00  0.00     0.089 A 
HETATM    4  C3  UNL     1      20.706   3.073  51.994  1.00  0.00     0.142 A 
HETATM    5  N2  UNL     1      20.712   1.793  52.418  1.00  0.00    -0.259 NA
HETATM    6  C4  UNL     1      21.912   1.267  52.767  1.00  0.00     0.069 A 
HETATM    7  C5  UNL     1      21.978  -0.045  53.210  1.00  0.00     0.035 A 
HETATM    8  C6  UNL     1      23.204  -0.564  53.560  1.00  0.00     0.031 A 
HETATM    9  C7  UNL     1      24.386   0.137  53.501  1.00  0.00     0.029 A 
HETATM   10  C10 UNL     1      24.256   1.434  53.052  1.00  0.00     0.045 A 
HETATM   11  C11 UNL     1      23.075   2.030  52.684  1.00  0.00     0.023 A 
HETATM   12  C12 UNL     1      23.062   3.340  52.249  1.00  0.00     0.067 A 
ENDROOT
BRANCH  12  13
HETATM   13  N4  UNL     1      24.218   4.129  52.156  1.00  0.00    -0.354 N 
HETATM   14  H9  UNL     1      24.378   4.634  53.054  1.00  0.00     0.166 HD
BRANCH  13  15
HETATM   15  C13 UNL     1      25.062   4.252  51.042  1.00  0.00     0.033 A 
HETATM   16  C14 UNL     1      25.844   3.166  50.678  1.00  0.00     0.029 A 
HETATM   17  C15 UNL     1      26.665   3.332  49.567  1.00  0.00     0.004 A 
HETATM   18  C16 UNL     1      26.689   4.535  48.871  1.00  0.00     0.019 A 
HETATM   19  C17 UNL     1      25.897   5.605  49.261  1.00  0.00     0.013 A 
HETATM   20 BR1  UNL     1      25.934   7.255  48.300  1.00  0.00    -0.051 Br
HETATM   21  C18 UNL     1      25.075   5.454  50.362  1.00  0.00     0.048 A 
ENDBRANCH  13  15
ENDBRANCH  12  13
BRANCH   9  22
HETATM   22  N3  UNL     1      25.638  -0.410  53.865  1.00  0.00    -0.384 N 
HETATM   23  H4  UNL     1      25.895  -1.341  53.474  1.00  0.00     0.160 HD
BRANCH  22  24
HETATM   24  C8  UNL     1      26.545   0.266  54.737  1.00  0.00     0.189 C 
BRANCH  24  25
HETATM   25  C9  UNL     1      27.794   0.742  54.053  1.00  0.00     0.250 C 
HETATM   26  O1  UNL     1      28.194   1.262  53.026  1.00  0.00    -0.305 OA
ENDBRANCH  24  25
ENDBRANCH  22  24
ENDBRANCH   9  22
TORSDOF 5
ENDMDL
MODEL 7
REMARK VINA RESULT:      -7.3      2.230      2.572
REMARK  5 active torsions:
REMARK  status: ('A' for Active; 'I' for Inactive)
REMARK    1  A    between atoms: C7_9  and  N3_10 
REMARK    2  A    between atoms: N3_10  and  C8_11 
REMARK    3  A    between atoms: C8_11  and  C9_12 
REMARK    4  A    between atoms: C12_16  and  N4_17 
REMARK    5  A    between atoms: N4_17  and  C13_18 
ROOT
HETATM    1  N1  UNL     1      19.076   3.547  51.945  1.00  0.00    -0.191 NA
HETATM    2  C1  UNL     1      19.886   2.805  52.308  1.00  0.00     0.103 C 
HETATM    3  C2  UNL     1      20.895   1.907  52.750  1.00  0.00     0.089 A 
HETATM    4  C3  UNL     1      20.559   0.870  53.600  1.00  0.00     0.142 A 
HETATM    5  N2  UNL     1      21.439  -0.035  54.076  1.00  0.00    -0.259 NA
HETATM    6  C4  UNL     1      22.730   0.097  53.683  1.00  0.00     0.069 A 
HETATM    7  C5  UNL     1      23.676  -0.806  54.142  1.00  0.00     0.035 A 
HETATM    8  C6  UNL     1      24.983  -0.658  53.733  1.00  0.00     0.031 A 
HETATM    9  C7  UNL     1      25.422   0.336  52.891  1.00  0.00     0.029 A 
HETATM   10  C10 UNL     1      24.435   1.201  52.469  1.00  0.00     0.045 A 
HETATM   11  C11 UNL     1      23.111   1.128  52.827  1.00  0.00     0.023 A 
HETATM   12  C12 UNL     1      22.207   2.052  52.343  1.00  0.00     0.067 A 
ENDROOT
BRANCH  12  13
HETATM   13  N4  UNL     1      22.565   3.097  51.481  1.00  0.00    -0.354 N 
HETATM   14  H9  UNL     1      22.934   3.903  52.031  1.00  0.00     0.166 HD
BRANCH  13  15
HETATM   15  C13 UNL     1      22.461   3.104  50.081  1.00  0.00     0.033 A 
HETATM   16  C14 UNL     1      22.280   1.897  49.423  1.00  0.00     0.029 A 
HETATM   17  C15 UNL     1      22.181   1.951  48.036  1.00  0.00     0.004 A 
HETATM   18  C16 UNL     1      22.265   3.164  47.361  1.00  0.00     0.019 A 
HETATM   19  C17 UNL     1      22.447   4.355  48.048  1.00  0.00     0.013 A 
HETATM   20 BR1  UNL     1      22.560   6.018  47.115  1.00  0.00    -0.051 Br
HETATM   21  C18 UNL     1      22.546   4.317  49.427  1.00  0.00     0.048 A 
ENDBRANCH  13  15
ENDBRANCH  12  13
BRANCH   9  22
HETATM   22  N3  UNL     1      26.768   0.475  52.481  1.00  0.00    -0.384 N 
HETATM   23  H4  UNL     1      26.964   1.062  51.642  1.00  0.00     0.160 HD
BRANCH  22  24
HETATM   24  C8  UNL     1      27.848  -0.154  53.172  1.00  0.00     0.189 C 
BRANCH  24  25
HETATM   25  C9  UNL     1      28.260   0.566  54.424  1.00  0.00     0.250 C 
HETATM   26  O1  UNL     1      29.049   1.393  54.847  1.00  0.00    -0.305 OA
ENDBRANCH  24  25
ENDBRANCH  22  24
ENDBRANCH   9  22
TORSDOF 5
ENDMDL
MODEL 8
REMARK VINA RESULT:      -7.3      3.251      5.291
REMARK  5 active torsions:
REMARK  status: ('A' for Active; 'I' for Inactive)
REMARK    1  A    between atoms: C7_9  and  N3_10 
REMARK    2  A    between atoms: N3_10  and  C8_11 
REMARK    3  A    between atoms: C8_11  and  C9_12 
REMARK    4  A    between atoms: C12_16  and  N4_17 
REMARK    5  A    between atoms: N4_17  and  C13_18 
ROOT
HETATM    1  N1  UNL     1      26.723   3.192  50.573  1.00  0.00    -0.191 NA
HETATM    2  C1  UNL     1      26.163   2.438  51.249  1.00  0.00     0.103 C 
HETATM    3  C2  UNL     1      25.458   1.516  52.070  1.00  0.00     0.089 A 
HETATM    4  C3  UNL     1      26.154   0.516  52.723  1.00  0.00     0.142 A 
HETATM    5  N2  UNL     1      25.582  -0.407  53.523  1.00  0.00    -0.259 NA
HETATM    6  C4  UNL     1      24.238  -0.331  53.685  1.00  0.00     0.069 A 
HETATM    7  C5  UNL     1      23.598  -1.255  54.498  1.00  0.00     0.035 A 
HETATM    8  C6  UNL     1      22.233  -1.164  54.652  1.00  0.00     0.031 A 
HETATM    9  C7  UNL     1      21.448  -0.209  54.048  1.00  0.00     0.029 A 
HETATM   10  C10 UNL     1      22.142   0.679  53.255  1.00  0.00     0.045 A 
HETATM   11  C11 UNL     1      23.499   0.661  53.046  1.00  0.00     0.023 A 
HETATM   12  C12 UNL     1      24.089   1.603  52.227  1.00  0.00     0.067 A 
ENDROOT
BRANCH  12  13
HETATM   13  N4  UNL     1      23.368   2.612  51.573  1.00  0.00    -0.354 N 
HETATM   14  H9  UNL     1      23.295   3.453  52.185  1.00  0.00     0.166 HD
BRANCH  13  15
HETATM   15  C13 UNL     1      22.810   2.545  50.287  1.00  0.00     0.033 A 
HETATM   16  C14 UNL     1      22.221   1.358  49.879  1.00  0.00     0.029 A 
HETATM   17  C15 UNL     1      21.681   1.338  48.597  1.00  0.00     0.004 A 
HETATM   18  C16 UNL     1      21.739   2.461  47.780  1.00  0.00     0.019 A 
HETATM   19  C17 UNL     1      22.336   3.635  48.216  1.00  0.00     0.013 A 
HETATM   20 BR1  UNL     1      22.412   5.175  47.090  1.00  0.00    -0.051 Br
HETATM   21  C18 UNL     1      22.877   3.670  49.488  1.00  0.00     0.048 A 
ENDBRANCH  13  15
ENDBRANCH  12  13
BRANCH   9  22
HETATM   22  N3  UNL     1      20.046  -0.130  54.216  1.00  0.00    -0.384 N 
HETATM   23  H4  UNL     1      19.680   0.067  55.172  1.00  0.00     0.160 HD
BRANCH  22  24
HETATM   24  C8  UNL     1      19.133  -0.311  53.133  1.00  0.00     0.189 C 
BRANCH  24  25
HETATM   25  C9  UNL     1      18.159  -1.433  53.348  1.00  0.00     0.250 C 
HETATM   26  O1  UNL     1      18.059  -2.543  53.840  1.00  0.00    -0.305 OA
ENDBRANCH  24  25
ENDBRANCH  22  24
ENDBRANCH   9  22
TORSDOF 5
ENDMDL
MODEL 9
REMARK VINA RESULT:      -7.2      2.570      5.202
REMARK  5 active torsions:
REMARK  status: ('A' for Active; 'I' for Inactive)
REMARK    1  A    between atoms: C7_9  and  N3_10 
REMARK    2  A    between atoms: N3_10  and  C8_11 
REMARK    3  A    between atoms: C8_11  and  C9_12 
REMARK    4  A    between atoms: C12_16  and  N4_17 
REMARK    5  A    between atoms: N4_17  and  C13_18 
ROOT
HETATM    1  N1  UNL     1      28.295   2.471  53.862  1.00  0.00    -0.191 NA
HETATM    2  C1  UNL     1      27.302   1.888  53.758  1.00  0.00     0.103 C 
HETATM    3  C2  UNL     1      26.073   1.185  53.618  1.00  0.00     0.089 A 
HETATM    4  C3  UNL     1      26.018  -0.158  53.940  1.00  0.00     0.142 A 
HETATM    5  N2  UNL     1      24.906  -0.915  53.843  1.00  0.00    -0.259 NA
HETATM    6  C4  UNL     1      23.780  -0.301  53.402  1.00  0.00     0.069 A 
HETATM    7  C5  UNL     1      22.608  -1.031  53.284  1.00  0.00     0.035 A 
HETATM    8  C6  UNL     1      21.474  -0.392  52.835  1.00  0.00     0.031 A 
HETATM    9  C7  UNL     1      21.422   0.939  52.489  1.00  0.00     0.029 A 
HETATM   10  C10 UNL     1      22.618   1.610  52.628  1.00  0.00     0.045 A 
HETATM   11  C11 UNL     1      23.793   1.052  53.068  1.00  0.00     0.023 A 
HETATM   12  C12 UNL     1      24.934   1.822  53.167  1.00  0.00     0.067 A 
ENDROOT
BRANCH  12  13
HETATM   13  N4  UNL     1      24.973   3.184  52.838  1.00  0.00    -0.354 N 
HETATM   14  H9  UNL     1      24.979   3.761  53.707  1.00  0.00     0.166 HD
BRANCH  13  15
HETATM   15  C13 UNL     1      25.002   3.735  51.547  1.00  0.00     0.033 A 
HETATM   16  C14 UNL     1      25.958   3.281  50.652  1.00  0.00     0.029 A 
HETATM   17  C15 UNL     1      25.948   3.854  49.385  1.00  0.00     0.004 A 
HETATM   18  C16 UNL     1      25.020   4.833  49.051  1.00  0.00     0.019 A 
HETATM   19  C17 UNL     1      24.075   5.268  49.969  1.00  0.00     0.013 A 
HETATM   20 BR1  UNL     1      22.801   6.613  49.504  1.00  0.00    -0.051 Br
HETATM   21  C18 UNL     1      24.072   4.706  51.233  1.00  0.00     0.048 A 
ENDBRANCH  13  15
ENDBRANCH  12  13
BRANCH   9  22
HETATM   22  N3  UNL     1      20.249   1.581  52.028  1.00  0.00    -0.384 N 
HETATM   23  H4  UNL     1      19.919   2.423  52.545  1.00  0.00     0.160 HD
BRANCH  22  24
HETATM   24  C8  UNL     1      19.517   1.116  50.893  1.00  0.00     0.189 C 
BRANCH  24  25
HETATM   25  C9  UNL     1      20.246   1.297  49.592  1.00  0.00     0.250 C 
HETATM   26  O1  UNL     1      21.237   0.936  48.983  1.00  0.00    -0.305 OA
ENDBRANCH  24  25
ENDBRANCH  22  24
ENDBRANCH   9  22
TORSDOF 5
ENDMDL
