MODEL 1
REMARK VINA RESULT:      -6.5      0.000      0.000
REMARK  3 active torsions:
REMARK  status: ('A' for Active; 'I' for Inactive)
REMARK    1  A    between atoms: N1_1  and  C1_2 
REMARK    2  A    between atoms: C1_2  and  C2_3 
REMARK    3  A    between atoms: C2_3  and  N2_4 
ROOT
HETATM    1  N2  UNL     1      21.479   1.212  52.458  1.00  0.00    -0.366 N 
HETATM    2  C3  UNL     1      20.979   1.162  53.805  1.00  0.00     0.102 C 
HETATM    3  C4  UNL     1      20.363  -0.018  53.928  1.00  0.00     0.015 C 
HETATM    4  P1  UNL     1      21.428  -1.313  54.065  1.00  0.00     0.049 P 
HETATM    5  C5  UNL     1      23.130  -0.815  54.003  1.00  0.00    -0.035 C 
HETATM    6  C6  UNL     1      24.230  -0.475  53.976  1.00  0.00     0.059 C 
HETATM    7  O1  UNL     1      25.406  -0.089  53.945  1.00  0.00    -0.303 OA
HETATM    8  C7  UNL     1      26.420   0.121  54.857  1.00  0.00     0.192 C 
HETATM    9  C8  UNL     1      27.491   0.810  53.858  1.00  0.00     0.066 C 
HETATM   10  C9  UNL     1      26.407   1.571  53.062  1.00  0.00    -0.056 A 
HETATM   11  C10 UNL     1      25.711   2.415  53.875  1.00  0.00     0.010 A 
HETATM   12  C11 UNL     1      24.532   2.824  53.295  1.00  0.00     0.037 A 
HETATM   13  C12 UNL     1      24.296   2.312  52.043  1.00  0.00     0.071 A 
HETATM   14  C13 UNL     1      25.114   1.470  51.356  1.00  0.00     0.037 A 
HETATM   15  C14 UNL     1      26.308   0.998  51.831  1.00  0.00     0.010 A 
HETATM   16  O2  UNL     1      23.135   2.671  51.440  1.00  0.00    -0.332 OA
HETATM   17  C15 UNL     1      21.896   2.549  52.054  1.00  0.00     0.300 C 
ENDROOT
BRANCH   1  18
HETATM   18  C2  UNL     1      21.634   0.324  51.334  1.00  0.00     0.154 C 
BRANCH  18  19
HETATM   19  C1  UNL     1      20.748   0.788  50.156  1.00  0.00     0.286 C 
BRANCH  19  20
HETATM   20  N1  UNL     1      21.509   1.054  48.974  1.00  0.00     0.079 N 
HETATM   21  H1  UNL     1      21.060   0.810  48.082  1.00  0.00     0.312 HD
HETATM   22  H2  UNL     1      22.457   0.655  49.050  1.00  0.00     0.312 HD
ENDBRANCH  19  20
ENDBRANCH  18  19
ENDBRANCH   1  18
TORSDOF 3
ENDMDL
MODEL 2
REMARK VINA RESULT:      -6.4      2.728      5.230
REMARK  3 active torsions:
REMARK  status: ('A' for Active; 'I' for Inactive)
REMARK    1  A    between atoms: N1_1  and  C1_2 
REMARK    2  A    between atoms: C1_2  and  C2_3 
REMARK    3  A    between atoms: C2_3  and  N2_4 
ROOT
HETATM    1  N2  UNL     1      26.585   1.344  52.206  1.00  0.00    -0.366 N 
HETATM    2  C3  UNL     1      26.419  -0.037  51.845  1.00  0.00     0.102 C 
HETATM    3  C4  UNL     1      26.684  -0.743  52.949  1.00  0.00     0.015 C 
HETATM    4  P1  UNL     1      25.448  -0.685  54.088  1.00  0.00     0.049 P 
HETATM    5  C5  UNL     1      24.076   0.311  53.566  1.00  0.00    -0.035 C 
HETATM    6  C6  UNL     1      23.186   0.949  53.208  1.00  0.00     0.059 C 
HETATM    7  O1  UNL     1      22.240   1.638  52.805  1.00  0.00    -0.303 OA
HETATM    8  C7  UNL     1      20.987   1.413  52.274  1.00  0.00     0.192 C 
HETATM    9  C8  UNL     1      20.618   2.943  51.895  1.00  0.00     0.066 C 
HETATM   10  C9  UNL     1      22.063   3.290  51.472  1.00  0.00    -0.056 A 
HETATM   11  C10 UNL     1      22.471   2.496  50.443  1.00  0.00     0.010 A 
HETATM   12  C11 UNL     1      23.838   2.524  50.288  1.00  0.00     0.037 A 
HETATM   13  C12 UNL     1      24.504   3.327  51.180  1.00  0.00     0.071 A 
HETATM   14  C13 UNL     1      23.934   4.076  52.163  1.00  0.00     0.037 A 
HETATM   15  C14 UNL     1      22.588   4.126  52.410  1.00  0.00     0.010 A 
HETATM   16  O2  UNL     1      25.856   3.371  51.079  1.00  0.00    -0.332 OA
HETATM   17  C15 UNL     1      26.648   2.231  51.050  1.00  0.00     0.300 C 
ENDROOT
BRANCH   1  18
HETATM   18  C2  UNL     1      26.782   2.130  53.397  1.00  0.00     0.154 C 
BRANCH  18  19
HETATM   19  C1  UNL     1      28.283   2.432  53.601  1.00  0.00     0.286 C 
BRANCH  19  20
HETATM   20  N1  UNL     1      28.873   1.605  54.608  1.00  0.00     0.079 N 
HETATM   21  H1  UNL     1      29.550   2.063  55.232  1.00  0.00     0.312 HD
HETATM   22  H2  UNL     1      29.253   0.739  54.197  1.00  0.00     0.312 HD
ENDBRANCH  19  20
ENDBRANCH  18  19
ENDBRANCH   1  18
TORSDOF 3
ENDMDL
MODEL 3
REMARK VINA RESULT:      -6.1      2.866      5.109
REMARK  3 active torsions:
REMARK  status: ('A' for Active; 'I' for Inactive)
REMARK    1  A    between atoms: N1_1  and  C1_2 
REMARK    2  A    between atoms: C1_2  and  C2_3 
REMARK    3  A    between atoms: C2_3  and  N2_4 
ROOT
HETATM    1  N2  UNL     1      24.110   3.720  50.327  1.00  0.00    -0.366 N 
HETATM    2  C3  UNL     1      25.078   2.852  49.715  1.00  0.00     0.102 C 
HETATM    3  C4  UNL     1      26.242   3.109  50.320  1.00  0.00     0.015 C 
HETATM    4  P1  UNL     1      26.344   2.458  51.868  1.00  0.00     0.049 P 
HETATM    5  C5  UNL     1      24.876   1.587  52.348  1.00  0.00    -0.035 C 
HETATM    6  C6  UNL     1      23.921   1.012  52.640  1.00  0.00     0.059 C 
HETATM    7  O1  UNL     1      22.887   0.399  52.935  1.00  0.00    -0.303 OA
HETATM    8  C7  UNL     1      22.486  -0.919  53.010  1.00  0.00     0.192 C 
HETATM    9  C8  UNL     1      20.913  -0.667  53.292  1.00  0.00     0.066 C 
HETATM   10  C9  UNL     1      20.842   0.565  52.362  1.00  0.00    -0.056 A 
HETATM   11  C10 UNL     1      21.179   0.228  51.085  1.00  0.00     0.010 A 
HETATM   12  C11 UNL     1      21.476   1.337  50.327  1.00  0.00     0.037 A 
HETATM   13  C12 UNL     1      21.377   2.534  50.991  1.00  0.00     0.071 A 
HETATM   14  C13 UNL     1      21.012   2.699  52.292  1.00  0.00     0.037 A 
HETATM   15  C14 UNL     1      20.695   1.672  53.139  1.00  0.00     0.010 A 
HETATM   16  O2  UNL     1      21.681   3.655  50.290  1.00  0.00    -0.332 OA
HETATM   17  C15 UNL     1      22.863   3.802  49.577  1.00  0.00     0.300 C 
ENDROOT
BRANCH   1  18
HETATM   18  C2  UNL     1      24.025   4.610  51.457  1.00  0.00     0.154 C 
BRANCH  18  19
HETATM   19  C1  UNL     1      24.043   6.081  50.985  1.00  0.00     0.286 C 
BRANCH  19  20
HETATM   20  N1  UNL     1      24.508   6.974  52.001  1.00  0.00     0.079 N 
HETATM   21  H1  UNL     1      24.305   7.971  51.857  1.00  0.00     0.312 HD
HETATM   22  H2  UNL     1      25.505   6.809  52.207  1.00  0.00     0.312 HD
ENDBRANCH  19  20
ENDBRANCH  18  19
ENDBRANCH   1  18
TORSDOF 3
ENDMDL
MODEL 4
REMARK VINA RESULT:      -6.0     10.588     12.399
REMARK  3 active torsions:
REMARK  status: ('A' for Active; 'I' for Inactive)
REMARK    1  A    between atoms: N1_1  and  C1_2 
REMARK    2  A    between atoms: C1_2  and  C2_3 
REMARK    3  A    between atoms: C2_3  and  N2_4 
ROOT
HETATM    1  N2  UNL     1      30.724   7.444  47.757  1.00  0.00    -0.366 N 
HETATM    2  C3  UNL     1      29.949   7.568  46.553  1.00  0.00     0.102 C 
HETATM    3  C4  UNL     1      30.118   8.826  46.132  1.00  0.00     0.015 C 
HETATM    4  P1  UNL     1      31.621   9.094  45.428  1.00  0.00     0.049 P 
HETATM    5  C5  UNL     1      32.645   7.646  45.415  1.00  0.00    -0.035 C 
HETATM    6  C6  UNL     1      33.293   6.693  45.400  1.00  0.00     0.059 C 
HETATM    7  O1  UNL     1      33.974   5.659  45.394  1.00  0.00    -0.303 OA
HETATM    8  C7  UNL     1      34.334   4.698  44.472  1.00  0.00     0.192 C 
HETATM    9  C8  UNL     1      35.066   3.670  45.484  1.00  0.00     0.066 C 
HETATM   10  C9  UNL     1      34.062   3.927  46.630  1.00  0.00    -0.056 A 
HETATM   11  C10 UNL     1      32.796   3.598  46.248  1.00  0.00     0.010 A 
HETATM   12  C11 UNL     1      31.852   4.142  47.088  1.00  0.00     0.037 A 
HETATM   13  C12 UNL     1      32.360   4.892  48.119  1.00  0.00     0.071 A 
HETATM   14  C13 UNL     1      33.679   5.121  48.368  1.00  0.00     0.037 A 
HETATM   15  C14 UNL     1      34.703   4.632  47.603  1.00  0.00     0.010 A 
HETATM   16  O2  UNL     1      31.466   5.467  48.962  1.00  0.00    -0.332 OA
HETATM   17  C15 UNL     1      30.404   6.243  48.520  1.00  0.00     0.300 C 
ENDROOT
BRANCH   1  18
HETATM   18  C2  UNL     1      31.704   8.204  48.490  1.00  0.00     0.154 C 
BRANCH  18  19
HETATM   19  C1  UNL     1      31.067   8.825  49.754  1.00  0.00     0.286 C 
BRANCH  19  20
HETATM   20  N1  UNL     1      30.586  10.152  49.525  1.00  0.00     0.079 N 
HETATM   21  H1  UNL     1      29.584  10.241  49.312  1.00  0.00     0.312 HD
HETATM   22  H2  UNL     1      31.172  10.642  48.832  1.00  0.00     0.312 HD
ENDBRANCH  19  20
ENDBRANCH  18  19
ENDBRANCH   1  18
TORSDOF 3
ENDMDL
MODEL 5
REMARK VINA RESULT:      -5.7      3.116      5.905
REMARK  3 active torsions:
REMARK  status: ('A' for Active; 'I' for Inactive)
REMARK    1  A    between atoms: N1_1  and  C1_2 
REMARK    2  A    between atoms: C1_2  and  C2_3 
REMARK    3  A    between atoms: C2_3  and  N2_4 
ROOT
HETATM    1  N2  UNL     1      23.902   3.652  51.661  1.00  0.00    -0.366 N 
HETATM    2  C3  UNL     1      23.538   4.675  52.603  1.00  0.00     0.102 C 
HETATM    3  C4  UNL     1      23.597   5.832  51.935  1.00  0.00     0.015 C 
HETATM    4  P1  UNL     1      22.303   6.060  50.886  1.00  0.00     0.049 P 
HETATM    5  C5  UNL     1      21.159   4.704  50.897  1.00  0.00    -0.035 C 
HETATM    6  C6  UNL     1      20.417   3.823  50.926  1.00  0.00     0.059 C 
HETATM    7  O1  UNL     1      19.632   2.867  50.972  1.00  0.00    -0.303 OA
HETATM    8  C7  UNL     1      18.404   2.601  51.541  1.00  0.00     0.192 C 
HETATM    9  C8  UNL     1      18.323   1.023  51.190  1.00  0.00     0.066 C 
HETATM   10  C9  UNL     1      19.834   0.795  51.418  1.00  0.00    -0.056 A 
HETATM   11  C10 UNL     1      20.184   1.111  52.697  1.00  0.00     0.010 A 
HETATM   12  C11 UNL     1      21.545   1.266  52.830  1.00  0.00     0.037 A 
HETATM   13  C12 UNL     1      22.262   1.077  51.675  1.00  0.00     0.071 A 
HETATM   14  C13 UNL     1      21.749   0.752  50.458  1.00  0.00     0.037 A 
HETATM   15  C14 UNL     1      20.415   0.572  50.208  1.00  0.00     0.010 A 
HETATM   16  O2  UNL     1      23.607   1.241  51.752  1.00  0.00    -0.332 OA
HETATM   17  C15 UNL     1      24.199   2.373  52.294  1.00  0.00     0.300 C 
ENDROOT
BRANCH   1  18
HETATM   18  C2  UNL     1      24.132   3.526  50.244  1.00  0.00     0.154 C 
BRANCH  18  19
HETATM   19  C1  UNL     1      25.640   3.346  49.958  1.00  0.00     0.286 C 
BRANCH  19  20
HETATM   20  N1  UNL     1      26.373   4.565  50.112  1.00  0.00     0.079 N 
HETATM   21  H1  UNL     1      25.841   5.373  50.461  1.00  0.00     0.312 HD
HETATM   22  H2  UNL     1      26.896   4.791  49.253  1.00  0.00     0.312 HD
ENDBRANCH  19  20
ENDBRANCH  18  19
ENDBRANCH   1  18
TORSDOF 3
ENDMDL
MODEL 6
REMARK VINA RESULT:      -5.7      3.353      5.459
REMARK  3 active torsions:
REMARK  status: ('A' for Active; 'I' for Inactive)
REMARK    1  A    between atoms: N1_1  and  C1_2 
REMARK    2  A    between atoms: C1_2  and  C2_3 
REMARK    3  A    between atoms: C2_3  and  N2_4 
ROOT
HETATM    1  N2  UNL     1      23.219   4.317  49.649  1.00  0.00    -0.366 N 
HETATM    2  C3  UNL     1      22.118   4.744  48.829  1.00  0.00     0.102 C 
HETATM    3  C4  UNL     1      22.402   4.338  47.587  1.00  0.00     0.015 C 
HETATM    4  P1  UNL     1      22.186   2.685  47.363  1.00  0.00     0.049 P 
HETATM    5  C5  UNL     1      21.641   1.855  48.833  1.00  0.00    -0.035 C 
HETATM    6  C6  UNL     1      21.273   1.332  49.791  1.00  0.00     0.059 C 
HETATM    7  O1  UNL     1      20.877   0.789  50.831  1.00  0.00    -0.303 OA
HETATM    8  C7  UNL     1      19.680   0.314  51.325  1.00  0.00     0.192 C 
HETATM    9  C8  UNL     1      20.167  -0.022  52.831  1.00  0.00     0.066 C 
HETATM   10  C9  UNL     1      21.103   1.205  52.907  1.00  0.00    -0.056 A 
HETATM   11  C10 UNL     1      20.400   2.361  52.746  1.00  0.00     0.010 A 
HETATM   12  C11 UNL     1      21.224   3.422  52.448  1.00  0.00     0.037 A 
HETATM   13  C12 UNL     1      22.560   3.113  52.376  1.00  0.00     0.071 A 
HETATM   14  C13 UNL     1      23.108   1.884  52.576  1.00  0.00     0.037 A 
HETATM   15  C14 UNL     1      22.388   0.759  52.876  1.00  0.00     0.010 A 
HETATM   16  O2  UNL     1      23.410   4.123  52.064  1.00  0.00    -0.332 OA
HETATM   17  C15 UNL     1      23.230   4.948  50.963  1.00  0.00     0.300 C 
ENDROOT
BRANCH   1  18
HETATM   18  C2  UNL     1      24.385   3.478  49.534  1.00  0.00     0.154 C 
BRANCH  18  19
HETATM   19  C1  UNL     1      25.665   4.341  49.476  1.00  0.00     0.286 C 
BRANCH  19  20
HETATM   20  N1  UNL     1      26.648   3.922  50.427  1.00  0.00     0.079 N 
HETATM   21  H1  UNL     1      26.301   3.696  51.368  1.00  0.00     0.312 HD
HETATM   22  H2  UNL     1      27.437   4.586  50.458  1.00  0.00     0.312 HD
ENDBRANCH  19  20
ENDBRANCH  18  19
ENDBRANCH   1  18
TORSDOF 3
ENDMDL
MODEL 7
REMARK VINA RESULT:      -5.7      2.973      4.763
REMARK  3 active torsions:
REMARK  status: ('A' for Active; 'I' for Inactive)
REMARK    1  A    between atoms: N1_1  and  C1_2 
REMARK    2  A    between atoms: C1_2  and  C2_3 
REMARK    3  A    between atoms: C2_3  and  N2_4 
ROOT
HETATM    1  N2  UNL     1      20.237   0.909  51.367  1.00  0.00    -0.366 N 
HETATM    2  C3  UNL     1      19.467   1.225  50.195  1.00  0.00     0.102 C 
HETATM    3  C4  UNL     1      18.240   1.528  50.629  1.00  0.00     0.015 C 
HETATM    4  P1  UNL     1      18.144   3.048  51.342  1.00  0.00     0.049 P 
HETATM    5  C5  UNL     1      19.701   3.897  51.367  1.00  0.00    -0.035 C 
HETATM    6  C6  UNL     1      20.716   4.443  51.362  1.00  0.00     0.059 C 
HETATM    7  O1  UNL     1      21.815   5.012  51.348  1.00  0.00    -0.303 OA
HETATM    8  C7  UNL     1      22.421   6.009  50.611  1.00  0.00     0.192 C 
HETATM    9  C8  UNL     1      23.910   5.884  51.234  1.00  0.00     0.066 C 
HETATM   10  C9  UNL     1      23.838   4.345  51.352  1.00  0.00    -0.056 A 
HETATM   11  C10 UNL     1      23.646   3.774  50.129  1.00  0.00     0.010 A 
HETATM   12  C11 UNL     1      23.221   2.470  50.237  1.00  0.00     0.037 A 
HETATM   13  C12 UNL     1      23.078   2.014  51.524  1.00  0.00     0.071 A 
HETATM   14  C13 UNL     1      23.324   2.726  52.657  1.00  0.00     0.037 A 
HETATM   15  C14 UNL     1      23.749   4.027  52.672  1.00  0.00     0.010 A 
HETATM   16  O2  UNL     1      22.641   0.739  51.681  1.00  0.00    -0.332 OA
HETATM   17  C15 UNL     1      21.501   0.251  51.059  1.00  0.00     0.300 C 
ENDROOT
BRANCH   1  18
HETATM   18  C2  UNL     1      20.100   0.991  52.799  1.00  0.00     0.154 C 
BRANCH  18  19
HETATM   19  C1  UNL     1      19.823  -0.408  53.394  1.00  0.00     0.286 C 
BRANCH  19  20
HETATM   20  N1  UNL     1      20.611  -0.669  54.559  1.00  0.00     0.079 N 
HETATM   21  H1  UNL     1      21.577  -0.981  54.392  1.00  0.00     0.312 HD
HETATM   22  H2  UNL     1      20.112  -1.296  55.208  1.00  0.00     0.312 HD
ENDBRANCH  19  20
ENDBRANCH  18  19
ENDBRANCH   1  18
TORSDOF 3
ENDMDL
MODEL 8
REMARK VINA RESULT:      -5.5     10.544     12.093
REMARK  3 active torsions:
REMARK  status: ('A' for Active; 'I' for Inactive)
REMARK    1  A    between atoms: N1_1  and  C1_2 
REMARK    2  A    between atoms: C1_2  and  C2_3 
REMARK    3  A    between atoms: C2_3  and  N2_4 
ROOT
HETATM    1  N2  UNL     1      31.502   8.351  47.602  1.00  0.00    -0.366 N 
HETATM    2  C3  UNL     1      31.009   8.073  48.923  1.00  0.00     0.102 C 
HETATM    3  C4  UNL     1      29.684   7.936  48.802  1.00  0.00     0.015 C 
HETATM    4  P1  UNL     1      29.228   6.473  48.109  1.00  0.00     0.049 P 
HETATM    5  C5  UNL     1      30.613   5.449  47.685  1.00  0.00    -0.035 C 
HETATM    6  C6  UNL     1      31.522   4.789  47.428  1.00  0.00     0.059 C 
HETATM    7  O1  UNL     1      32.511   4.095  47.160  1.00  0.00    -0.303 OA
HETATM    8  C7  UNL     1      33.149   3.000  47.705  1.00  0.00     0.192 C 
HETATM    9  C8  UNL     1      34.444   2.979  46.735  1.00  0.00     0.066 C 
HETATM   10  C9  UNL     1      34.539   4.520  46.665  1.00  0.00    -0.056 A 
HETATM   11  C10 UNL     1      34.724   5.051  47.906  1.00  0.00     0.010 A 
HETATM   12  C11 UNL     1      34.452   6.400  47.929  1.00  0.00     0.037 A 
HETATM   13  C12 UNL     1      34.058   6.930  46.726  1.00  0.00     0.071 A 
HETATM   14  C13 UNL     1      33.929   6.249  45.555  1.00  0.00     0.037 A 
HETATM   15  C14 UNL     1      34.171   4.909  45.413  1.00  0.00     0.010 A 
HETATM   16  O2  UNL     1      33.759   8.253  46.704  1.00  0.00    -0.332 OA
HETATM   17  C15 UNL     1      32.875   8.842  47.598  1.00  0.00     0.300 C 
ENDROOT
BRANCH   1  18
HETATM   18  C2  UNL     1      31.011   8.354  46.247  1.00  0.00     0.154 C 
BRANCH  18  19
HETATM   19  C1  UNL     1      30.812   9.803  45.749  1.00  0.00     0.286 C 
BRANCH  19  20
HETATM   20  N1  UNL     1      29.555  10.350  46.154  1.00  0.00     0.079 N 
HETATM   21  H1  UNL     1      29.558  11.340  46.430  1.00  0.00     0.312 HD
HETATM   22  H2  UNL     1      29.106   9.754  46.867  1.00  0.00     0.312 HD
ENDBRANCH  19  20
ENDBRANCH  18  19
ENDBRANCH   1  18
TORSDOF 3
ENDMDL
MODEL 9
REMARK VINA RESULT:      -5.4     10.226     11.798
REMARK  3 active torsions:
REMARK  status: ('A' for Active; 'I' for Inactive)
REMARK    1  A    between atoms: N1_1  and  C1_2 
REMARK    2  A    between atoms: C1_2  and  C2_3 
REMARK    3  A    between atoms: C2_3  and  N2_4 
ROOT
HETATM    1  N2  UNL     1      29.114   8.707  47.659  1.00  0.00    -0.366 N 
HETATM    2  C3  UNL     1      29.327   9.449  46.447  1.00  0.00     0.102 C 
HETATM    3  C4  UNL     1      29.337  10.739  46.799  1.00  0.00     0.015 C 
HETATM    4  P1  UNL     1      30.756  11.207  47.569  1.00  0.00     0.049 P 
HETATM    5  C5  UNL     1      31.915   9.875  47.748  1.00  0.00    -0.035 C 
HETATM    6  C6  UNL     1      32.663   9.004  47.844  1.00  0.00     0.059 C 
HETATM    7  O1  UNL     1      33.453   8.056  47.936  1.00  0.00    -0.303 OA
HETATM    8  C7  UNL     1      34.598   7.634  47.292  1.00  0.00     0.192 C 
HETATM    9  C8  UNL     1      34.756   6.197  48.019  1.00  0.00     0.066 C 
HETATM   10  C9  UNL     1      33.233   5.941  48.065  1.00  0.00    -0.056 A 
HETATM   11  C10 UNL     1      32.707   5.926  46.808  1.00  0.00     0.010 A 
HETATM   12  C11 UNL     1      31.337   6.065  46.826  1.00  0.00     0.037 A 
HETATM   13  C12 UNL     1      30.787   6.188  48.078  1.00  0.00     0.071 A 
HETATM   14  C13 UNL     1      31.467   6.175  49.256  1.00  0.00     0.037 A 
HETATM   15  C14 UNL     1      32.826   6.044  49.360  1.00  0.00     0.010 A 
HETATM   16  O2  UNL     1      29.442   6.348  48.145  1.00  0.00    -0.332 OA
HETATM   17  C15 UNL     1      28.759   7.313  47.419  1.00  0.00     0.300 C 
ENDROOT
BRANCH   1  18
HETATM   18  C2  UNL     1      29.081   8.950  49.079  1.00  0.00     0.154 C 
BRANCH  18  19
HETATM   19  C1  UNL     1      27.621   9.013  49.580  1.00  0.00     0.286 C 
BRANCH  19  20
HETATM   20  N1  UNL     1      27.538   9.275  50.984  1.00  0.00     0.079 N 
HETATM   21  H1  UNL     1      27.440   8.453  51.593  1.00  0.00     0.312 HD
HETATM   22  H2  UNL     1      26.822   9.989  51.183  1.00  0.00     0.312 HD
ENDBRANCH  19  20
ENDBRANCH  18  19
ENDBRANCH   1  18
TORSDOF 3
ENDMDL
