MODEL 1
REMARK VINA RESULT:      -8.4      0.000      0.000
REMARK  4 active torsions:
REMARK  status: ('A' for Active; 'I' for Inactive)
REMARK    1  A    between atoms: O1_2  and  C2_3 
REMARK    2  A    between atoms: C6_9  and  N3_10 
REMARK    3  A    between atoms: N3_10  and  C7_11 
REMARK    4  A    between atoms: C18_22  and  O2_23 
ROOT
HETATM    1  C2  UNL     1      20.993   0.455  52.203  1.00  0.00     0.103 A 
HETATM    2  C3  UNL     1      21.305   1.016  50.986  1.00  0.00     0.072 A 
HETATM    3  C4  UNL     1      22.497   1.681  50.835  1.00  0.00     0.075 A 
HETATM    4  N1  UNL     1      22.763   2.223  49.610  1.00  0.00    -0.241 NA
HETATM    5  C5  UNL     1      23.910   2.887  49.389  1.00  0.00     0.236 A 
HETATM    6  N2  UNL     1      24.778   3.011  50.374  1.00  0.00    -0.224 NA
HETATM    7  C6  UNL     1      24.618   2.521  51.605  1.00  0.00     0.142 A 
HETATM    8  C16 UNL     1      23.441   1.840  51.829  1.00  0.00     0.042 A 
HETATM    9  C17 UNL     1      23.075   1.261  53.012  1.00  0.00     0.057 A 
HETATM   10  C18 UNL     1      21.900   0.584  53.232  1.00  0.00     0.102 A 
ENDROOT
BRANCH   7  11
HETATM   11  N3  UNL     1      25.538   2.645  52.671  1.00  0.00    -0.340 N 
HETATM   12  H6  UNL     1      25.486   3.411  53.353  1.00  0.00     0.167 HD
BRANCH  11  13
HETATM   13  C7  UNL     1      26.628   1.802  52.978  1.00  0.00     0.034 A 
HETATM   14  C8  UNL     1      27.837   2.278  53.433  1.00  0.00     0.030 A 
HETATM   15  C9  UNL     1      28.929   1.492  53.735  1.00  0.00     0.010 A 
HETATM   16  C10 UNL     1      28.849   0.123  53.585  1.00  0.00    -0.052 A 
HETATM   17  C11 UNL     1      27.662  -0.412  53.132  1.00  0.00    -0.050 A 
HETATM   18  C15 UNL     1      29.829  -0.973  53.821  1.00  0.00     0.039 C 
HETATM   19  C12 UNL     1      26.610   0.429  52.848  1.00  0.00     0.037 A 
HETATM   20  C13 UNL     1      27.748  -1.909  53.026  1.00  0.00     0.039 C 
HETATM   21  C14 UNL     1      29.245  -2.102  52.982  1.00  0.00     0.009 C 
ENDBRANCH  11  13
ENDBRANCH   7  11
BRANCH  10  22
HETATM   22  O2  UNL     1      21.574   0.012  54.455  1.00  0.00    -0.353 OA
HETATM   23  C19 UNL     1      22.209  -1.199  54.831  1.00  0.00     0.210 C 
ENDBRANCH  10  22
BRANCH   1  24
HETATM   24  O1  UNL     1      19.806  -0.230  52.421  1.00  0.00    -0.353 OA
HETATM   25  C1  UNL     1      18.650   0.020  51.632  1.00  0.00     0.210 C 
ENDBRANCH   1  24
TORSDOF 4
ENDMDL
MODEL 2
REMARK VINA RESULT:      -8.2      2.159      3.568
REMARK  4 active torsions:
REMARK  status: ('A' for Active; 'I' for Inactive)
REMARK    1  A    between atoms: O1_2  and  C2_3 
REMARK    2  A    between atoms: C6_9  and  N3_10 
REMARK    3  A    between atoms: N3_10  and  C7_11 
REMARK    4  A    between atoms: C18_22  and  O2_23 
ROOT
HETATM    1  C2  UNL     1      19.030  -0.093  51.950  1.00  0.00     0.103 A 
HETATM    2  C3  UNL     1      19.359  -0.750  53.114  1.00  0.00     0.072 A 
HETATM    3  C4  UNL     1      20.669  -0.778  53.526  1.00  0.00     0.075 A 
HETATM    4  N1  UNL     1      20.949  -1.443  54.685  1.00  0.00    -0.241 NA
HETATM    5  C5  UNL     1      22.208  -1.512  55.150  1.00  0.00     0.236 A 
HETATM    6  N2  UNL     1      23.174  -0.928  54.468  1.00  0.00    -0.224 NA
HETATM    7  C6  UNL     1      23.011  -0.255  53.327  1.00  0.00     0.142 A 
HETATM    8  C16 UNL     1      21.719  -0.185  52.854  1.00  0.00     0.042 A 
HETATM    9  C17 UNL     1      21.329   0.451  51.709  1.00  0.00     0.057 A 
HETATM   10  C18 UNL     1      20.040   0.518  51.238  1.00  0.00     0.102 A 
ENDROOT
BRANCH   7  11
HETATM   11  N3  UNL     1      24.035   0.377  52.586  1.00  0.00    -0.340 N 
HETATM   12  H6  UNL     1      23.874   0.758  51.646  1.00  0.00     0.167 HD
BRANCH  11  13
HETATM   13  C7  UNL     1      25.378   0.587  52.967  1.00  0.00     0.034 A 
HETATM   14  C8  UNL     1      25.859   1.814  53.366  1.00  0.00     0.030 A 
HETATM   15  C9  UNL     1      27.163   2.065  53.736  1.00  0.00     0.010 A 
HETATM   16  C10 UNL     1      28.088   1.042  53.719  1.00  0.00    -0.052 A 
HETATM   17  C11 UNL     1      27.664  -0.209  53.328  1.00  0.00    -0.050 A 
HETATM   18  C15 UNL     1      29.538   0.993  54.054  1.00  0.00     0.039 C 
HETATM   19  C12 UNL     1      26.348  -0.393  52.971  1.00  0.00     0.037 A 
HETATM   20  C13 UNL     1      28.794  -1.201  53.367  1.00  0.00     0.039 C 
HETATM   21  C14 UNL     1      29.984  -0.272  53.333  1.00  0.00     0.009 C 
ENDBRANCH  11  13
ENDBRANCH   7  11
BRANCH  10  22
HETATM   22  O2  UNL     1      19.695   1.179  50.067  1.00  0.00    -0.353 OA
HETATM   23  C19 UNL     1      20.680   1.340  49.060  1.00  0.00     0.210 C 
ENDBRANCH  10  22
BRANCH   1  24
HETATM   24  O1  UNL     1      17.727  -0.027  51.480  1.00  0.00    -0.353 OA
HETATM   25  C1  UNL     1      16.615  -0.219  52.345  1.00  0.00     0.210 C 
ENDBRANCH   1  24
TORSDOF 4
ENDMDL
MODEL 3
REMARK VINA RESULT:      -8.0      2.127      6.615
REMARK  4 active torsions:
REMARK  status: ('A' for Active; 'I' for Inactive)
REMARK    1  A    between atoms: O1_2  and  C2_3 
REMARK    2  A    between atoms: C6_9  and  N3_10 
REMARK    3  A    between atoms: N3_10  and  C7_11 
REMARK    4  A    between atoms: C18_22  and  O2_23 
ROOT
HETATM    1  C2  UNL     1      27.165  -0.217  53.383  1.00  0.00     0.103 A 
HETATM    2  C3  UNL     1      27.455   0.660  52.363  1.00  0.00     0.072 A 
HETATM    3  C4  UNL     1      26.498   1.554  51.950  1.00  0.00     0.075 A 
HETATM    4  N1  UNL     1      26.830   2.404  50.934  1.00  0.00    -0.241 NA
HETATM    5  C5  UNL     1      25.945   3.306  50.477  1.00  0.00     0.236 A 
HETATM    6  N2  UNL     1      24.746   3.359  51.024  1.00  0.00    -0.224 NA
HETATM    7  C6  UNL     1      24.320   2.578  52.019  1.00  0.00     0.142 A 
HETATM    8  C16 UNL     1      25.230   1.655  52.485  1.00  0.00     0.042 A 
HETATM    9  C17 UNL     1      25.004   0.759  53.493  1.00  0.00     0.057 A 
HETATM   10  C18 UNL     1      25.913  -0.161  53.955  1.00  0.00     0.102 A 
ENDROOT
BRANCH   7  11
HETATM   11  N3  UNL     1      23.040   2.623  52.616  1.00  0.00    -0.340 N 
HETATM   12  H6  UNL     1      22.844   3.197  53.445  1.00  0.00     0.167 HD
BRANCH  11  13
HETATM   13  C7  UNL     1      21.872   1.938  52.217  1.00  0.00     0.034 A 
HETATM   14  C8  UNL     1      21.220   2.197  51.032  1.00  0.00     0.030 A 
HETATM   15  C9  UNL     1      20.073   1.559  50.609  1.00  0.00     0.010 A 
HETATM   16  C10 UNL     1      19.501   0.584  51.400  1.00  0.00    -0.052 A 
HETATM   17  C11 UNL     1      20.110   0.282  52.599  1.00  0.00    -0.050 A 
HETATM   18  C15 UNL     1      18.292  -0.267  51.228  1.00  0.00     0.039 C 
HETATM   19  C12 UNL     1      21.254   0.956  52.962  1.00  0.00     0.037 A 
HETATM   20  C13 UNL     1      19.360  -0.797  53.331  1.00  0.00     0.039 C 
HETATM   21  C14 UNL     1      18.010  -0.704  52.660  1.00  0.00     0.009 C 
ENDBRANCH  11  13
ENDBRANCH   7  11
BRANCH  10  22
HETATM   22  O2  UNL     1      25.633  -1.050  54.984  1.00  0.00    -0.353 OA
HETATM   23  C19 UNL     1      24.289  -1.198  55.410  1.00  0.00     0.210 C 
ENDBRANCH  10  22
BRANCH   1  24
HETATM   24  O1  UNL     1      28.087  -1.144  53.847  1.00  0.00    -0.353 OA
HETATM   25  C1  UNL     1      29.484  -0.882  53.816  1.00  0.00     0.210 C 
ENDBRANCH   1  24
TORSDOF 4
ENDMDL
MODEL 4
REMARK VINA RESULT:      -7.9      3.261      5.708
REMARK  4 active torsions:
REMARK  status: ('A' for Active; 'I' for Inactive)
REMARK    1  A    between atoms: O1_2  and  C2_3 
REMARK    2  A    between atoms: C6_9  and  N3_10 
REMARK    3  A    between atoms: N3_10  and  C7_11 
REMARK    4  A    between atoms: C18_22  and  O2_23 
ROOT
HETATM    1  C2  UNL     1      23.030  -0.048  53.039  1.00  0.00     0.103 A 
HETATM    2  C3  UNL     1      24.335   0.070  53.459  1.00  0.00     0.072 A 
HETATM    3  C4  UNL     1      25.189   0.907  52.782  1.00  0.00     0.075 A 
HETATM    4  N1  UNL     1      26.474   0.990  53.235  1.00  0.00    -0.241 NA
HETATM    5  C5  UNL     1      27.366   1.788  52.622  1.00  0.00     0.236 A 
HETATM    6  N2  UNL     1      26.982   2.490  51.574  1.00  0.00    -0.224 NA
HETATM    7  C6  UNL     1      25.754   2.482  51.052  1.00  0.00     0.142 A 
HETATM    8  C16 UNL     1      24.841   1.664  51.682  1.00  0.00     0.042 A 
HETATM    9  C17 UNL     1      23.535   1.505  51.315  1.00  0.00     0.057 A 
HETATM   10  C18 UNL     1      22.628   0.687  51.944  1.00  0.00     0.102 A 
ENDROOT
BRANCH   7  11
HETATM   11  N3  UNL     1      25.327   3.230  49.931  1.00  0.00    -0.340 N 
HETATM   12  H6  UNL     1      24.494   2.972  49.387  1.00  0.00     0.167 HD
BRANCH  11  13
HETATM   13  C7  UNL     1      25.920   4.388  49.383  1.00  0.00     0.034 A 
HETATM   14  C8  UNL     1      25.213   5.541  49.130  1.00  0.00     0.030 A 
HETATM   15  C9  UNL     1      25.750   6.690  48.587  1.00  0.00     0.010 A 
HETATM   16  C10 UNL     1      27.089   6.730  48.258  1.00  0.00    -0.052 A 
HETATM   17  C11 UNL     1      27.848   5.602  48.489  1.00  0.00    -0.050 A 
HETATM   18  C15 UNL     1      27.948   7.794  47.669  1.00  0.00     0.039 C 
HETATM   19  C12 UNL     1      27.249   4.489  49.034  1.00  0.00     0.037 A 
HETATM   20  C13 UNL     1      29.277   5.817  48.075  1.00  0.00     0.039 C 
HETATM   21  C14 UNL     1      29.124   6.988  47.134  1.00  0.00     0.009 C 
ENDBRANCH  11  13
ENDBRANCH   7  11
BRANCH  10  22
HETATM   22  O2  UNL     1      21.308   0.560  51.531  1.00  0.00    -0.353 OA
HETATM   23  C19 UNL     1      20.608   1.724  51.125  1.00  0.00     0.210 C 
ENDBRANCH  10  22
BRANCH   1  24
HETATM   24  O1  UNL     1      22.117  -0.874  53.679  1.00  0.00    -0.353 OA
HETATM   25  C1  UNL     1      22.329  -1.323  55.011  1.00  0.00     0.210 C 
ENDBRANCH   1  24
TORSDOF 4
ENDMDL
MODEL 5
REMARK VINA RESULT:      -7.7      3.462      5.860
REMARK  4 active torsions:
REMARK  status: ('A' for Active; 'I' for Inactive)
REMARK    1  A    between atoms: O1_2  and  C2_3 
REMARK    2  A    between atoms: C6_9  and  N3_10 
REMARK    3  A    between atoms: N3_10  and  C7_11 
REMARK    4  A    between atoms: C18_22  and  O2_23 
ROOT
HETATM    1  C2  UNL     1      24.951   0.419  53.597  1.00  0.00     0.103 A 
HETATM    2  C3  UNL     1      23.870   0.226  52.767  1.00  0.00     0.072 A 
HETATM    3  C4  UNL     1      23.472   1.241  51.932  1.00  0.00     0.075 A 
HETATM    4  N1  UNL     1      22.393   1.005  51.128  1.00  0.00    -0.241 NA
HETATM    5  C5  UNL     1      21.946   1.952  50.286  1.00  0.00     0.236 A 
HETATM    6  N2  UNL     1      22.563   3.116  50.246  1.00  0.00    -0.224 NA
HETATM    7  C6  UNL     1      23.623   3.450  50.986  1.00  0.00     0.142 A 
HETATM    8  C16 UNL     1      24.079   2.477  51.849  1.00  0.00     0.042 A 
HETATM    9  C17 UNL     1      25.145   2.607  52.695  1.00  0.00     0.057 A 
HETATM   10  C18 UNL     1      25.597   1.636  53.555  1.00  0.00     0.102 A 
ENDROOT
BRANCH   7  11
HETATM   11  N3  UNL     1      24.295   4.692  50.954  1.00  0.00    -0.340 N 
HETATM   12  H6  UNL     1      24.023   5.476  51.559  1.00  0.00     0.167 HD
BRANCH  11  13
HETATM   13  C7  UNL     1      25.388   5.067  50.143  1.00  0.00     0.034 A 
HETATM   14  C8  UNL     1      26.270   4.154  49.609  1.00  0.00     0.030 A 
HETATM   15  C9  UNL     1      27.355   4.477  48.821  1.00  0.00     0.010 A 
HETATM   16  C10 UNL     1      27.614   5.798  48.521  1.00  0.00    -0.052 A 
HETATM   17  C11 UNL     1      26.764   6.757  49.029  1.00  0.00    -0.050 A 
HETATM   18  C15 UNL     1      28.680   6.455  47.716  1.00  0.00     0.039 C 
HETATM   19  C12 UNL     1      25.699   6.367  49.809  1.00  0.00     0.037 A 
HETATM   20  C13 UNL     1      27.189   8.136  48.607  1.00  0.00     0.039 C 
HETATM   21  C14 UNL     1      28.633   7.885  48.240  1.00  0.00     0.009 C 
ENDBRANCH  11  13
ENDBRANCH   7  11
BRANCH  10  22
HETATM   22  O2  UNL     1      26.687   1.817  54.395  1.00  0.00    -0.353 OA
HETATM   23  C19 UNL     1      27.981   1.905  53.823  1.00  0.00     0.210 C 
ENDBRANCH  10  22
BRANCH   1  24
HETATM   24  O1  UNL     1      25.405  -0.566  54.463  1.00  0.00    -0.353 OA
HETATM   25  C1  UNL     1      24.544  -1.165  55.422  1.00  0.00     0.210 C 
ENDBRANCH   1  24
TORSDOF 4
ENDMDL
MODEL 6
REMARK VINA RESULT:      -7.7      2.841      7.931
REMARK  4 active torsions:
REMARK  status: ('A' for Active; 'I' for Inactive)
REMARK    1  A    between atoms: O1_2  and  C2_3 
REMARK    2  A    between atoms: C6_9  and  N3_10 
REMARK    3  A    between atoms: N3_10  and  C7_11 
REMARK    4  A    between atoms: C18_22  and  O2_23 
ROOT
HETATM    1  C2  UNL     1      26.932   0.239  53.165  1.00  0.00     0.103 A 
HETATM    2  C3  UNL     1      26.321  -0.484  54.164  1.00  0.00     0.072 A 
HETATM    3  C4  UNL     1      24.950  -0.505  54.238  1.00  0.00     0.075 A 
HETATM    4  N1  UNL     1      24.387  -1.235  55.246  1.00  0.00    -0.241 NA
HETATM    5  C5  UNL     1      23.052  -1.301  55.382  1.00  0.00     0.236 A 
HETATM    6  N2  UNL     1      22.289  -0.649  54.527  1.00  0.00    -0.224 NA
HETATM    7  C6  UNL     1      22.734   0.091  53.510  1.00  0.00     0.142 A 
HETATM    8  C16 UNL     1      24.103   0.157  53.372  1.00  0.00     0.042 A 
HETATM    9  C17 UNL     1      24.769   0.855  52.405  1.00  0.00     0.057 A 
HETATM   10  C18 UNL     1      26.135   0.920  52.271  1.00  0.00     0.102 A 
ENDROOT
BRANCH   7  11
HETATM   11  N3  UNL     1      21.929   0.795  52.585  1.00  0.00    -0.340 N 
HETATM   12  H6  UNL     1      22.249   1.658  52.128  1.00  0.00     0.167 HD
BRANCH  11  13
HETATM   13  C7  UNL     1      20.628   0.472  52.145  1.00  0.00     0.034 A 
HETATM   14  C8  UNL     1      20.133   0.863  50.922  1.00  0.00     0.030 A 
HETATM   15  C9  UNL     1      18.866   0.577  50.457  1.00  0.00     0.010 A 
HETATM   16  C10 UNL     1      17.997  -0.150  51.243  1.00  0.00    -0.052 A 
HETATM   17  C11 UNL     1      18.438  -0.569  52.480  1.00  0.00    -0.050 A 
HETATM   18  C15 UNL     1      16.597  -0.611  51.033  1.00  0.00     0.039 C 
HETATM   19  C12 UNL     1      19.715  -0.251  52.883  1.00  0.00     0.037 A 
HETATM   20  C13 UNL     1      17.370  -1.345  53.202  1.00  0.00     0.039 C 
HETATM   21  C14 UNL     1      16.139  -0.884  52.459  1.00  0.00     0.009 C 
ENDBRANCH  11  13
ENDBRANCH   7  11
BRANCH  10  22
HETATM   22  O2  UNL     1      26.764   1.645  51.267  1.00  0.00    -0.353 OA
HETATM   23  C19 UNL     1      26.224   2.902  50.895  1.00  0.00     0.210 C 
ENDBRANCH  10  22
BRANCH   1  24
HETATM   24  O1  UNL     1      28.312   0.301  53.034  1.00  0.00    -0.353 OA
HETATM   25  C1  UNL     1      29.148   0.652  54.129  1.00  0.00     0.210 C 
ENDBRANCH   1  24
TORSDOF 4
ENDMDL
MODEL 7
REMARK VINA RESULT:      -7.6      2.947      6.915
REMARK  4 active torsions:
REMARK  status: ('A' for Active; 'I' for Inactive)
REMARK    1  A    between atoms: O1_2  and  C2_3 
REMARK    2  A    between atoms: C6_9  and  N3_10 
REMARK    3  A    between atoms: N3_10  and  C7_11 
REMARK    4  A    between atoms: C18_22  and  O2_23 
ROOT
HETATM    1  C2  UNL     1      25.734   3.325  50.899  1.00  0.00     0.103 A 
HETATM    2  C3  UNL     1      26.451   2.153  50.976  1.00  0.00     0.072 A 
HETATM    3  C4  UNL     1      26.018   1.151  51.810  1.00  0.00     0.075 A 
HETATM    4  N1  UNL     1      26.763   0.007  51.854  1.00  0.00    -0.241 NA
HETATM    5  C5  UNL     1      26.400  -1.016  52.648  1.00  0.00     0.236 A 
HETATM    6  N2  UNL     1      25.314  -0.899  53.385  1.00  0.00    -0.224 NA
HETATM    7  C6  UNL     1      24.518   0.172  53.417  1.00  0.00     0.142 A 
HETATM    8  C16 UNL     1      24.891   1.218  52.603  1.00  0.00     0.042 A 
HETATM    9  C17 UNL     1      24.223   2.404  52.482  1.00  0.00     0.057 A 
HETATM   10  C18 UNL     1      24.598   3.447  51.670  1.00  0.00     0.102 A 
ENDROOT
BRANCH   7  11
HETATM   11  N3  UNL     1      23.350   0.311  54.202  1.00  0.00    -0.340 N 
HETATM   12  H6  UNL     1      23.366   0.747  55.131  1.00  0.00     0.167 HD
BRANCH  11  13
HETATM   13  C7  UNL     1      22.036  -0.094  53.882  1.00  0.00     0.034 A 
HETATM   14  C8  UNL     1      21.453  -1.223  54.411  1.00  0.00     0.030 A 
HETATM   15  C9  UNL     1      20.178  -1.661  54.119  1.00  0.00     0.010 A 
HETATM   16  C10 UNL     1      19.395  -0.945  53.237  1.00  0.00    -0.052 A 
HETATM   17  C11 UNL     1      19.927   0.195  52.675  1.00  0.00    -0.050 A 
HETATM   18  C15 UNL     1      18.011  -1.151  52.727  1.00  0.00     0.039 C 
HETATM   19  C12 UNL     1      21.206   0.577  53.010  1.00  0.00     0.037 A 
HETATM   20  C13 UNL     1      18.944   0.849  51.742  1.00  0.00     0.039 C 
HETATM   21  C14 UNL     1      18.015  -0.307  51.459  1.00  0.00     0.009 C 
ENDBRANCH  11  13
ENDBRANCH   7  11
BRANCH  10  22
HETATM   22  O2  UNL     1      23.883   4.634  51.582  1.00  0.00    -0.353 OA
HETATM   23  C19 UNL     1      23.001   4.977  52.638  1.00  0.00     0.210 C 
ENDBRANCH  10  22
BRANCH   1  24
HETATM   24  O1  UNL     1      26.117   4.375  50.077  1.00  0.00    -0.353 OA
HETATM   25  C1  UNL     1      27.078   4.198  49.045  1.00  0.00     0.210 C 
ENDBRANCH   1  24
TORSDOF 4
ENDMDL
MODEL 8
REMARK VINA RESULT:      -7.6      4.020      6.689
REMARK  4 active torsions:
REMARK  status: ('A' for Active; 'I' for Inactive)
REMARK    1  A    between atoms: O1_2  and  C2_3 
REMARK    2  A    between atoms: C6_9  and  N3_10 
REMARK    3  A    between atoms: N3_10  and  C7_11 
REMARK    4  A    between atoms: C18_22  and  O2_23 
ROOT
HETATM    1  C2  UNL     1      26.104   0.459  53.911  1.00  0.00     0.103 A 
HETATM    2  C3  UNL     1      24.899   0.607  53.264  1.00  0.00     0.072 A 
HETATM    3  C4  UNL     1      24.821   1.422  52.161  1.00  0.00     0.075 A 
HETATM    4  N1  UNL     1      23.605   1.539  51.552  1.00  0.00    -0.241 NA
HETATM    5  C5  UNL     1      23.453   2.319  50.468  1.00  0.00     0.236 A 
HETATM    6  N2  UNL     1      24.498   2.973  49.999  1.00  0.00    -0.224 NA
HETATM    7  C6  UNL     1      25.728   2.929  50.516  1.00  0.00     0.142 A 
HETATM    8  C16 UNL     1      25.880   2.128  51.627  1.00  0.00     0.042 A 
HETATM    9  C17 UNL     1      27.047   1.940  52.313  1.00  0.00     0.057 A 
HETATM   10  C18 UNL     1      27.196   1.142  53.421  1.00  0.00     0.102 A 
ENDROOT
BRANCH   7  11
HETATM   11  N3  UNL     1      26.857   3.622  50.025  1.00  0.00    -0.340 N 
HETATM   12  H6  UNL     1      27.815   3.285  50.179  1.00  0.00     0.167 HD
BRANCH  11  13
HETATM   13  C7  UNL     1      26.883   4.824  49.285  1.00  0.00     0.034 A 
HETATM   14  C8  UNL     1      25.774   5.620  49.113  1.00  0.00     0.030 A 
HETATM   15  C9  UNL     1      25.752   6.795  48.391  1.00  0.00     0.010 A 
HETATM   16  C10 UNL     1      26.905   7.243  47.779  1.00  0.00    -0.052 A 
HETATM   17  C11 UNL     1      28.048   6.485  47.917  1.00  0.00    -0.050 A 
HETATM   18  C15 UNL     1      27.201   8.443  46.949  1.00  0.00     0.039 C 
HETATM   19  C12 UNL     1      28.001   5.322  48.652  1.00  0.00     0.037 A 
HETATM   20  C13 UNL     1      29.205   7.115  47.190  1.00  0.00     0.039 C 
HETATM   21  C14 UNL     1      28.474   8.019  46.228  1.00  0.00     0.009 C 
ENDBRANCH  11  13
ENDBRANCH   7  11
BRANCH  10  22
HETATM   22  O2  UNL     1      28.407   0.983  54.083  1.00  0.00    -0.353 OA
HETATM   23  C19 UNL     1      29.356   0.072  53.554  1.00  0.00     0.210 C 
ENDBRANCH  10  22
BRANCH   1  24
HETATM   24  O1  UNL     1      26.250  -0.349  55.030  1.00  0.00    -0.353 OA
HETATM   25  C1  UNL     1      25.126  -0.938  55.672  1.00  0.00     0.210 C 
ENDBRANCH   1  24
TORSDOF 4
ENDMDL
MODEL 9
REMARK VINA RESULT:      -7.5      2.898      4.260
REMARK  4 active torsions:
REMARK  status: ('A' for Active; 'I' for Inactive)
REMARK    1  A    between atoms: O1_2  and  C2_3 
REMARK    2  A    between atoms: C6_9  and  N3_10 
REMARK    3  A    between atoms: N3_10  and  C7_11 
REMARK    4  A    between atoms: C18_22  and  O2_23 
ROOT
HETATM    1  C2  UNL     1      23.386   4.673  48.967  1.00  0.00     0.103 A 
HETATM    2  C3  UNL     1      22.533   3.731  49.495  1.00  0.00     0.072 A 
HETATM    3  C4  UNL     1      22.904   3.045  50.626  1.00  0.00     0.075 A 
HETATM    4  N1  UNL     1      22.026   2.119  51.113  1.00  0.00    -0.241 NA
HETATM    5  C5  UNL     1      22.321   1.409  52.216  1.00  0.00     0.236 A 
HETATM    6  N2  UNL     1      23.473   1.619  52.822  1.00  0.00    -0.224 NA
HETATM    7  C6  UNL     1      24.399   2.496  52.431  1.00  0.00     0.142 A 
HETATM    8  C16 UNL     1      24.094   3.223  51.301  1.00  0.00     0.042 A 
HETATM    9  C17 UNL     1      24.896   4.170  50.729  1.00  0.00     0.057 A 
HETATM   10  C18 UNL     1      24.590   4.892  49.601  1.00  0.00     0.102 A 
ENDROOT
BRANCH   7  11
HETATM   11  N3  UNL     1      25.637   2.732  53.070  1.00  0.00    -0.340 N 
HETATM   12  H6  UNL     1      25.882   3.647  53.467  1.00  0.00     0.167 HD
BRANCH  11  13
HETATM   13  C7  UNL     1      26.698   1.822  53.270  1.00  0.00     0.034 A 
HETATM   14  C8  UNL     1      27.948   2.213  53.695  1.00  0.00     0.030 A 
HETATM   15  C9  UNL     1      29.014   1.360  53.893  1.00  0.00     0.010 A 
HETATM   16  C10 UNL     1      28.862   0.009  53.660  1.00  0.00    -0.052 A 
HETATM   17  C11 UNL     1      27.631  -0.440  53.232  1.00  0.00    -0.050 A 
HETATM   18  C15 UNL     1      29.798  -1.143  53.778  1.00  0.00     0.039 C 
HETATM   19  C12 UNL     1      26.608   0.464  53.055  1.00  0.00     0.037 A 
HETATM   20  C13 UNL     1      27.639  -1.931  53.028  1.00  0.00     0.039 C 
HETATM   21  C14 UNL     1      29.122  -2.187  52.899  1.00  0.00     0.009 C 
ENDBRANCH  11  13
ENDBRANCH   7  11
BRANCH  10  22
HETATM   22  O2  UNL     1      25.441   5.846  49.058  1.00  0.00    -0.353 OA
HETATM   23  C19 UNL     1      26.793   5.494  48.817  1.00  0.00     0.210 C 
ENDBRANCH  10  22
BRANCH   1  24
HETATM   24  O1  UNL     1      23.072   5.401  47.827  1.00  0.00    -0.353 OA
HETATM   25  C1  UNL     1      21.740   5.816  47.556  1.00  0.00     0.210 C 
ENDBRANCH   1  24
TORSDOF 4
ENDMDL
