MODEL 1
REMARK VINA RESULT:      -8.7      0.000      0.000
REMARK  3 active torsions:
REMARK  status: ('A' for Active; 'I' for Inactive)
REMARK    1  A    between atoms: N1_1  and  C1_2 
REMARK    2  A    between atoms: C9_11  and  N3_12 
REMARK    3  A    between atoms: N3_12  and  C10_13 
ROOT
HETATM    1  C1  UNL     1      27.998   1.798  53.709  1.00  0.00     0.026 A 
HETATM    2  C2  UNL     1      28.368   0.750  54.561  1.00  0.00     0.032 A 
HETATM    3  C3  UNL     1      27.397  -0.136  54.983  1.00  0.00     0.040 A 
HETATM    4  C4  UNL     1      26.108   0.051  54.549  1.00  0.00     0.086 A 
HETATM    5  C5  UNL     1      25.684   1.059  53.714  1.00  0.00    -0.004 A 
HETATM    6  C6  UNL     1      26.696   1.939  53.305  1.00  0.00     0.040 A 
HETATM    7  C7  UNL     1      24.460   1.534  53.084  1.00  0.00     0.161 C 
HETATM    8  N2  UNL     1      23.324   0.677  53.153  1.00  0.00    -0.379 N 
HETATM    9  C8  UNL     1      23.049  -0.327  54.126  1.00  0.00     0.129 A 
HETATM   10  C9  UNL     1      21.978  -0.943  54.584  1.00  0.00     0.162 A 
HETATM   11  N4  UNL     1      22.837  -1.680  55.461  1.00  0.00    -0.202 NA
HETATM   12  C16 UNL     1      23.900  -1.091  55.029  1.00  0.00     0.203 A 
HETATM   13  O1  UNL     1      25.277  -0.919  55.066  1.00  0.00    -0.289 OA
HETATM   14  H8  UNL     1      22.588   0.773  52.417  1.00  0.00     0.160 HD
ENDROOT
BRANCH  10  15
HETATM   15  N3  UNL     1      20.570  -1.078  54.504  1.00  0.00    -0.339 N 
HETATM   16  H9  UNL     1      19.870  -1.424  55.190  1.00  0.00     0.167 HD
BRANCH  15  17
HETATM   17  C10 UNL     1      19.695  -0.770  53.430  1.00  0.00     0.035 A 
HETATM   18  C11 UNL     1      18.435  -1.355  53.487  1.00  0.00     0.029 A 
HETATM   19  C12 UNL     1      17.472  -1.156  52.530  1.00  0.00     0.004 A 
HETATM   20  C13 UNL     1      17.822  -0.327  51.480  1.00  0.00     0.019 A 
HETATM   21  C14 UNL     1      19.032   0.279  51.357  1.00  0.00     0.013 A 
HETATM   22 BR1  UNL     1      19.494   1.429  49.894  1.00  0.00    -0.051 Br
HETATM   23  C15 UNL     1      19.955   0.041  52.347  1.00  0.00     0.048 A 
ENDBRANCH  15  17
ENDBRANCH  10  15
BRANCH   1  24
HETATM   24  N1  UNL     1      29.035   2.673  53.312  1.00  0.00    -0.399 N 
HETATM   25  H1  UNL     1      29.062   3.408  52.571  1.00  0.00     0.156 HD
HETATM   26  H2  UNL     1      29.981   2.654  53.781  1.00  0.00     0.156 HD
ENDBRANCH   1  24
TORSDOF 3
ENDMDL
MODEL 2
REMARK VINA RESULT:      -8.6      3.010      8.037
REMARK  3 active torsions:
REMARK  status: ('A' for Active; 'I' for Inactive)
REMARK    1  A    between atoms: N1_1  and  C1_2 
REMARK    2  A    between atoms: C9_11  and  N3_12 
REMARK    3  A    between atoms: N3_12  and  C10_13 
ROOT
HETATM    1  C1  UNL     1      18.847  -0.912  53.232  1.00  0.00     0.026 A 
HETATM    2  C2  UNL     1      18.538  -0.326  51.999  1.00  0.00     0.032 A 
HETATM    3  C3  UNL     1      19.536   0.336  51.311  1.00  0.00     0.040 A 
HETATM    4  C4  UNL     1      20.789   0.391  51.868  1.00  0.00     0.086 A 
HETATM    5  C5  UNL     1      21.153  -0.164  53.073  1.00  0.00    -0.004 A 
HETATM    6  C6  UNL     1      20.115  -0.829  53.744  1.00  0.00     0.040 A 
HETATM    7  C7  UNL     1      22.327  -0.293  53.924  1.00  0.00     0.161 C 
HETATM    8  N2  UNL     1      23.578   0.098  53.363  1.00  0.00    -0.379 N 
HETATM    9  C8  UNL     1      23.803   1.024  52.304  1.00  0.00     0.129 A 
HETATM   10  C9  UNL     1      24.805   1.775  51.892  1.00  0.00     0.162 A 
HETATM   11  N4  UNL     1      23.958   2.240  50.835  1.00  0.00    -0.202 NA
HETATM   12  C16 UNL     1      22.963   1.515  51.219  1.00  0.00     0.203 A 
HETATM   13  O1  UNL     1      21.653   1.086  51.051  1.00  0.00    -0.289 OA
HETATM   14  H8  UNL     1      24.449  -0.328  53.752  1.00  0.00     0.160 HD
ENDROOT
BRANCH  10  15
HETATM   15  N3  UNL     1      26.146   2.176  52.110  1.00  0.00    -0.339 N 
HETATM   16  H9  UNL     1      26.650   3.056  51.876  1.00  0.00     0.167 HD
BRANCH  15  17
HETATM   17  C10 UNL     1      27.210   1.469  52.727  1.00  0.00     0.035 A 
HETATM   18  C11 UNL     1      28.086   2.232  53.490  1.00  0.00     0.029 A 
HETATM   19  C12 UNL     1      29.163   1.700  54.153  1.00  0.00     0.004 A 
HETATM   20  C13 UNL     1      29.341   0.335  54.025  1.00  0.00     0.019 A 
HETATM   21  C14 UNL     1      28.527  -0.475  53.298  1.00  0.00     0.013 A 
HETATM   22 BR1  UNL     1      28.791  -2.368  53.137  1.00  0.00    -0.051 Br
HETATM   23  C15 UNL     1      27.465   0.116  52.656  1.00  0.00     0.048 A 
ENDBRANCH  15  17
ENDBRANCH  10  15
BRANCH   1  24
HETATM   24  N1  UNL     1      17.785  -1.575  53.890  1.00  0.00    -0.399 N 
HETATM   25  H1  UNL     1      17.733  -2.527  54.315  1.00  0.00     0.156 HD
HETATM   26  H2  UNL     1      16.845  -1.112  54.020  1.00  0.00     0.156 HD
ENDBRANCH   1  24
TORSDOF 3
ENDMDL
MODEL 3
REMARK VINA RESULT:      -8.4      1.118      1.507
REMARK  3 active torsions:
REMARK  status: ('A' for Active; 'I' for Inactive)
REMARK    1  A    between atoms: N1_1  and  C1_2 
REMARK    2  A    between atoms: C9_11  and  N3_12 
REMARK    3  A    between atoms: N3_12  and  C10_13 
ROOT
HETATM    1  C1  UNL     1      28.157   1.838  53.732  1.00  0.00     0.026 A 
HETATM    2  C2  UNL     1      28.527   0.767  54.554  1.00  0.00     0.032 A 
HETATM    3  C3  UNL     1      27.551  -0.119  54.967  1.00  0.00     0.040 A 
HETATM    4  C4  UNL     1      26.259   0.091  54.554  1.00  0.00     0.086 A 
HETATM    5  C5  UNL     1      25.835   1.122  53.748  1.00  0.00    -0.004 A 
HETATM    6  C6  UNL     1      26.852   2.002  53.347  1.00  0.00     0.040 A 
HETATM    7  C7  UNL     1      24.609   1.625  53.145  1.00  0.00     0.161 C 
HETATM    8  N2  UNL     1      23.465   0.779  53.208  1.00  0.00    -0.379 N 
HETATM    9  C8  UNL     1      23.192  -0.245  54.160  1.00  0.00     0.129 A 
HETATM   10  C9  UNL     1      22.119  -0.861  54.617  1.00  0.00     0.162 A 
HETATM   11  N4  UNL     1      22.981  -1.628  55.466  1.00  0.00    -0.202 NA
HETATM   12  C16 UNL     1      24.045  -1.040  55.035  1.00  0.00     0.203 A 
HETATM   13  O1  UNL     1      25.424  -0.883  55.058  1.00  0.00    -0.289 OA
HETATM   14  H8  UNL     1      22.721   0.899  52.484  1.00  0.00     0.160 HD
ENDROOT
BRANCH  10  15
HETATM   15  N3  UNL     1      20.710  -0.980  54.551  1.00  0.00    -0.339 N 
HETATM   16  H9  UNL     1      20.010  -1.294  55.254  1.00  0.00     0.167 HD
BRANCH  15  17
HETATM   17  C10 UNL     1      19.830  -0.696  53.474  1.00  0.00     0.035 A 
HETATM   18  C11 UNL     1      20.349   0.100  52.460  1.00  0.00     0.029 A 
HETATM   19  C12 UNL     1      19.630   0.463  51.349  1.00  0.00     0.004 A 
HETATM   20  C13 UNL     1      18.333  -0.011  51.283  1.00  0.00     0.019 A 
HETATM   21  C14 UNL     1      17.758  -0.793  52.235  1.00  0.00     0.013 A 
HETATM   22 BR1  UNL     1      15.957  -1.442  52.122  1.00  0.00    -0.051 Br
HETATM   23  C15 UNL     1      18.528  -1.122  53.325  1.00  0.00     0.048 A 
ENDBRANCH  15  17
ENDBRANCH  10  15
BRANCH   1  24
HETATM   24  N1  UNL     1      29.198   2.711  53.342  1.00  0.00    -0.399 N 
HETATM   25  H1  UNL     1      29.174   3.604  52.802  1.00  0.00     0.156 HD
HETATM   26  H2  UNL     1      30.205   2.512  53.590  1.00  0.00     0.156 HD
ENDBRANCH   1  24
TORSDOF 3
ENDMDL
MODEL 4
REMARK VINA RESULT:      -8.0      1.681      2.142
REMARK  3 active torsions:
REMARK  status: ('A' for Active; 'I' for Inactive)
REMARK    1  A    between atoms: N1_1  and  C1_2 
REMARK    2  A    between atoms: C9_11  and  N3_12 
REMARK    3  A    between atoms: N3_12  and  C10_13 
ROOT
HETATM    1  C1  UNL     1      25.948   2.527  51.539  1.00  0.00     0.026 A 
HETATM    2  C2  UNL     1      26.699   1.813  52.480  1.00  0.00     0.032 A 
HETATM    3  C3  UNL     1      26.068   0.847  53.239  1.00  0.00     0.040 A 
HETATM    4  C4  UNL     1      24.728   0.629  53.037  1.00  0.00     0.086 A 
HETATM    5  C5  UNL     1      23.937   1.296  52.131  1.00  0.00    -0.004 A 
HETATM    6  C6  UNL     1      24.611   2.270  51.377  1.00  0.00     0.040 A 
HETATM    7  C7  UNL     1      22.555   1.323  51.674  1.00  0.00     0.161 C 
HETATM    8  N2  UNL     1      21.708   0.266  52.119  1.00  0.00    -0.379 N 
HETATM    9  C8  UNL     1      21.852  -0.526  53.295  1.00  0.00     0.129 A 
HETATM   10  C9  UNL     1      21.058  -1.252  54.057  1.00  0.00     0.162 A 
HETATM   11  N4  UNL     1      22.198  -1.554  54.871  1.00  0.00    -0.202 NA
HETATM   12  C16 UNL     1      22.994  -0.850  54.140  1.00  0.00     0.203 A 
HETATM   13  O1  UNL     1      24.267  -0.362  53.876  1.00  0.00    -0.289 OA
HETATM   14  H8  UNL     1      20.877   0.020  51.536  1.00  0.00     0.160 HD
ENDROOT
BRANCH  10  15
HETATM   15  N3  UNL     1      19.741  -1.721  54.279  1.00  0.00    -0.339 N 
HETATM   16  H9  UNL     1      19.319  -2.247  55.071  1.00  0.00     0.167 HD
BRANCH  15  17
HETATM   17  C10 UNL     1      18.591  -1.602  53.456  1.00  0.00     0.035 A 
HETATM   18  C11 UNL     1      17.658  -2.626  53.564  1.00  0.00     0.029 A 
HETATM   19  C12 UNL     1      16.493  -2.659  52.840  1.00  0.00     0.004 A 
HETATM   20  C13 UNL     1      16.285  -1.600  51.976  1.00  0.00     0.019 A 
HETATM   21  C14 UNL     1      17.150  -0.565  51.817  1.00  0.00     0.013 A 
HETATM   22 BR1  UNL     1      16.840   0.897  50.615  1.00  0.00    -0.051 Br
HETATM   23  C15 UNL     1      18.300  -0.588  52.569  1.00  0.00     0.048 A 
ENDBRANCH  15  17
ENDBRANCH  10  15
BRANCH   1  24
HETATM   24  N1  UNL     1      26.648   3.502  50.794  1.00  0.00    -0.399 N 
HETATM   25  H1  UNL     1      27.042   4.426  51.078  1.00  0.00     0.156 HD
HETATM   26  H2  UNL     1      26.854   3.367  49.767  1.00  0.00     0.156 HD
ENDBRANCH   1  24
TORSDOF 3
ENDMDL
MODEL 5
REMARK VINA RESULT:      -8.0      4.094      7.671
REMARK  3 active torsions:
REMARK  status: ('A' for Active; 'I' for Inactive)
REMARK    1  A    between atoms: N1_1  and  C1_2 
REMARK    2  A    between atoms: C9_11  and  N3_12 
REMARK    3  A    between atoms: N3_12  and  C10_13 
ROOT
HETATM    1  C1  UNL     1      21.112  -0.462  53.831  1.00  0.00     0.026 A 
HETATM    2  C2  UNL     1      22.187  -1.039  54.517  1.00  0.00     0.032 A 
HETATM    3  C3  UNL     1      23.471  -0.661  54.176  1.00  0.00     0.040 A 
HETATM    4  C4  UNL     1      23.637   0.265  53.177  1.00  0.00     0.086 A 
HETATM    5  C5  UNL     1      22.623   0.866  52.467  1.00  0.00    -0.004 A 
HETATM    6  C6  UNL     1      21.333   0.459  52.840  1.00  0.00     0.040 A 
HETATM    7  C7  UNL     1      22.443   1.838  51.399  1.00  0.00     0.161 C 
HETATM    8  N2  UNL     1      23.593   2.579  51.000  1.00  0.00    -0.379 N 
HETATM    9  C8  UNL     1      24.960   2.200  51.132  1.00  0.00     0.129 A 
HETATM   10  C9  UNL     1      26.098   2.518  50.548  1.00  0.00     0.162 A 
HETATM   11  N4  UNL     1      26.751   1.594  51.426  1.00  0.00    -0.202 NA
HETATM   12  C16 UNL     1      25.650   1.267  52.013  1.00  0.00     0.203 A 
HETATM   13  O1  UNL     1      24.975   0.521  52.970  1.00  0.00    -0.289 OA
HETATM   14  H8  UNL     1      23.449   3.514  50.556  1.00  0.00     0.160 HD
ENDROOT
BRANCH  10  15
HETATM   15  N3  UNL     1      26.736   3.303  49.556  1.00  0.00    -0.339 N 
HETATM   16  H9  UNL     1      27.391   3.048  48.790  1.00  0.00     0.167 HD
BRANCH  15  17
HETATM   17  C10 UNL     1      26.659   4.701  49.325  1.00  0.00     0.035 A 
HETATM   18  C11 UNL     1      27.664   5.243  48.533  1.00  0.00     0.029 A 
HETATM   19  C12 UNL     1      27.731   6.575  48.213  1.00  0.00     0.004 A 
HETATM   20  C13 UNL     1      26.727   7.374  48.728  1.00  0.00     0.019 A 
HETATM   21  C14 UNL     1      25.713   6.917  49.509  1.00  0.00     0.013 A 
HETATM   22 BR1  UNL     1      24.329   8.044  50.210  1.00  0.00    -0.051 Br
HETATM   23  C15 UNL     1      25.700   5.573  49.795  1.00  0.00     0.048 A 
ENDBRANCH  15  17
ENDBRANCH  10  15
BRANCH   1  24
HETATM   24  N1  UNL     1      19.823  -0.889  54.223  1.00  0.00    -0.399 N 
HETATM   25  H1  UNL     1      19.488  -1.325  55.110  1.00  0.00     0.156 HD
HETATM   26  H2  UNL     1      18.992  -0.794  53.578  1.00  0.00     0.156 HD
ENDBRANCH   1  24
TORSDOF 3
ENDMDL
MODEL 6
REMARK VINA RESULT:      -8.0      5.449      8.737
REMARK  3 active torsions:
REMARK  status: ('A' for Active; 'I' for Inactive)
REMARK    1  A    between atoms: N1_1  and  C1_2 
REMARK    2  A    between atoms: C9_11  and  N3_12 
REMARK    3  A    between atoms: N3_12  and  C10_13 
ROOT
HETATM    1  C1  UNL     1      25.097  -0.157  53.916  1.00  0.00     0.026 A 
HETATM    2  C2  UNL     1      23.762  -0.191  53.497  1.00  0.00     0.032 A 
HETATM    3  C3  UNL     1      23.351   0.691  52.517  1.00  0.00     0.040 A 
HETATM    4  C4  UNL     1      24.272   1.565  51.997  1.00  0.00     0.086 A 
HETATM    5  C5  UNL     1      25.595   1.647  52.366  1.00  0.00    -0.004 A 
HETATM    6  C6  UNL     1      25.977   0.737  53.363  1.00  0.00     0.040 A 
HETATM    7  C7  UNL     1      26.790   2.413  52.043  1.00  0.00     0.161 C 
HETATM    8  N2  UNL     1      26.728   3.250  50.892  1.00  0.00    -0.379 N 
HETATM    9  C8  UNL     1      25.569   3.823  50.295  1.00  0.00     0.129 A 
HETATM   10  C9  UNL     1      25.308   4.853  49.514  1.00  0.00     0.162 A 
HETATM   11  N4  UNL     1      23.927   4.477  49.561  1.00  0.00    -0.202 NA
HETATM   12  C16 UNL     1      24.157   3.464  50.325  1.00  0.00     0.203 A 
HETATM   13  O1  UNL     1      23.692   2.366  51.037  1.00  0.00    -0.289 OA
HETATM   14  H8  UNL     1      27.622   3.490  50.406  1.00  0.00     0.160 HD
ENDROOT
BRANCH  10  15
HETATM   15  N3  UNL     1      25.837   5.959  48.805  1.00  0.00    -0.339 N 
HETATM   16  H9  UNL     1      25.377   6.701  48.239  1.00  0.00     0.167 HD
BRANCH  15  17
HETATM   17  C10 UNL     1      27.185   6.377  48.662  1.00  0.00     0.035 A 
HETATM   18  C11 UNL     1      28.104   5.376  48.369  1.00  0.00     0.029 A 
HETATM   19  C12 UNL     1      29.444   5.615  48.197  1.00  0.00     0.004 A 
HETATM   20  C13 UNL     1      29.849   6.930  48.332  1.00  0.00     0.019 A 
HETATM   21  C14 UNL     1      29.010   7.960  48.617  1.00  0.00     0.013 A 
HETATM   22 BR1  UNL     1      29.593   9.779  48.796  1.00  0.00    -0.051 Br
HETATM   23  C15 UNL     1      27.679   7.658  48.779  1.00  0.00     0.048 A 
ENDBRANCH  15  17
ENDBRANCH  10  15
BRANCH   1  24
HETATM   24  N1  UNL     1      25.458  -1.082  54.922  1.00  0.00    -0.399 N 
HETATM   25  H1  UNL     1      24.871  -1.630  55.589  1.00  0.00     0.156 HD
HETATM   26  H2  UNL     1      26.468  -1.325  55.109  1.00  0.00     0.156 HD
ENDBRANCH   1  24
TORSDOF 3
ENDMDL
MODEL 7
REMARK VINA RESULT:      -7.5      5.217      7.738
REMARK  3 active torsions:
REMARK  status: ('A' for Active; 'I' for Inactive)
REMARK    1  A    between atoms: N1_1  and  C1_2 
REMARK    2  A    between atoms: C9_11  and  N3_12 
REMARK    3  A    between atoms: N3_12  and  C10_13 
ROOT
HETATM    1  C1  UNL     1      26.382  -0.930  52.894  1.00  0.00     0.026 A 
HETATM    2  C2  UNL     1      25.181  -0.956  53.613  1.00  0.00     0.032 A 
HETATM    3  C3  UNL     1      24.323   0.121  53.509  1.00  0.00     0.040 A 
HETATM    4  C4  UNL     1      24.686   1.172  52.704  1.00  0.00     0.086 A 
HETATM    5  C5  UNL     1      25.850   1.256  51.975  1.00  0.00    -0.004 A 
HETATM    6  C6  UNL     1      26.697   0.145  52.104  1.00  0.00     0.040 A 
HETATM    7  C7  UNL     1      26.524   2.170  51.065  1.00  0.00     0.161 C 
HETATM    8  N2  UNL     1      25.767   3.278  50.584  1.00  0.00    -0.379 N 
HETATM    9  C8  UNL     1      24.643   3.897  51.204  1.00  0.00     0.129 A 
HETATM   10  C9  UNL     1      24.053   5.074  51.148  1.00  0.00     0.162 A 
HETATM   11  N4  UNL     1      23.111   4.592  52.114  1.00  0.00    -0.202 NA
HETATM   12  C16 UNL     1      23.671   3.433  52.185  1.00  0.00     0.203 A 
HETATM   13  O1  UNL     1      23.718   2.152  52.720  1.00  0.00    -0.289 OA
HETATM   14  H8  UNL     1      26.044   3.707  49.673  1.00  0.00     0.160 HD
ENDROOT
BRANCH  10  15
HETATM   15  N3  UNL     1      24.052   6.367  50.570  1.00  0.00    -0.339 N 
HETATM   16  H9  UNL     1      23.287   7.057  50.423  1.00  0.00     0.167 HD
BRANCH  15  17
HETATM   17  C10 UNL     1      25.127   7.105  50.012  1.00  0.00     0.035 A 
HETATM   18  C11 UNL     1      25.063   8.485  50.169  1.00  0.00     0.029 A 
HETATM   19  C12 UNL     1      26.024   9.340  49.690  1.00  0.00     0.004 A 
HETATM   20  C13 UNL     1      27.085   8.751  49.028  1.00  0.00     0.019 A 
HETATM   21  C14 UNL     1      27.215   7.412  48.835  1.00  0.00     0.013 A 
HETATM   22 BR1  UNL     1      28.698   6.616  47.916  1.00  0.00    -0.051 Br
HETATM   23  C15 UNL     1      26.221   6.607  49.337  1.00  0.00     0.048 A 
ENDBRANCH  15  17
ENDBRANCH  10  15
BRANCH   1  24
HETATM   24  N1  UNL     1      27.220  -2.059  53.041  1.00  0.00    -0.399 N 
HETATM   25  H1  UNL     1      27.007  -3.079  52.984  1.00  0.00     0.156 HD
HETATM   26  H2  UNL     1      28.250  -1.956  53.246  1.00  0.00     0.156 HD
ENDBRANCH   1  24
TORSDOF 3
ENDMDL
MODEL 8
REMARK VINA RESULT:      -7.4      5.125      6.603
REMARK  3 active torsions:
REMARK  status: ('A' for Active; 'I' for Inactive)
REMARK    1  A    between atoms: N1_1  and  C1_2 
REMARK    2  A    between atoms: C9_11  and  N3_12 
REMARK    3  A    between atoms: N3_12  and  C10_13 
ROOT
HETATM    1  C1  UNL     1      27.617   7.216  48.297  1.00  0.00     0.026 A 
HETATM    2  C2  UNL     1      27.047   8.289  48.993  1.00  0.00     0.032 A 
HETATM    3  C3  UNL     1      26.035   8.031  49.897  1.00  0.00     0.040 A 
HETATM    4  C4  UNL     1      25.633   6.730  50.074  1.00  0.00     0.086 A 
HETATM    5  C5  UNL     1      26.153   5.637  49.422  1.00  0.00    -0.004 A 
HETATM    6  C6  UNL     1      27.178   5.936  48.512  1.00  0.00     0.040 A 
HETATM    7  C7  UNL     1      25.976   4.193  49.366  1.00  0.00     0.161 C 
HETATM    8  N2  UNL     1      25.151   3.604  50.368  1.00  0.00    -0.379 N 
HETATM    9  C8  UNL     1      24.105   4.226  51.108  1.00  0.00     0.129 A 
HETATM   10  C9  UNL     1      23.035   3.826  51.766  1.00  0.00     0.162 A 
HETATM   11  N4  UNL     1      22.769   5.200  52.071  1.00  0.00    -0.202 NA
HETATM   12  C16 UNL     1      23.810   5.616  51.434  1.00  0.00     0.203 A 
HETATM   13  O1  UNL     1      24.621   6.659  51.007  1.00  0.00    -0.289 OA
HETATM   14  H8  UNL     1      25.308   2.599  50.610  1.00  0.00     0.160 HD
ENDROOT
BRANCH  10  15
HETATM   15  N3  UNL     1      22.245   2.724  52.175  1.00  0.00    -0.339 N 
HETATM   16  H9  UNL     1      21.219   2.554  52.127  1.00  0.00     0.167 HD
BRANCH  15  17
HETATM   17  C10 UNL     1      22.643   1.507  52.785  1.00  0.00     0.035 A 
HETATM   18  C11 UNL     1      21.634   0.779  53.405  1.00  0.00     0.029 A 
HETATM   19  C12 UNL     1      21.853  -0.419  54.036  1.00  0.00     0.004 A 
HETATM   20  C13 UNL     1      23.156  -0.881  54.029  1.00  0.00     0.019 A 
HETATM   21  C14 UNL     1      24.193  -0.225  53.445  1.00  0.00     0.013 A 
HETATM   22 BR1  UNL     1      25.994  -0.886  53.443  1.00  0.00    -0.051 Br
HETATM   23  C15 UNL     1      23.912   0.970  52.828  1.00  0.00     0.048 A 
ENDBRANCH  15  17
ENDBRANCH  10  15
BRANCH   1  24
HETATM   24  N1  UNL     1      28.646   7.542  47.385  1.00  0.00    -0.399 N 
HETATM   25  H1  UNL     1      29.677   7.382  47.432  1.00  0.00     0.156 HD
HETATM   26  H2  UNL     1      28.438   8.035  46.475  1.00  0.00     0.156 HD
ENDBRANCH   1  24
TORSDOF 3
ENDMDL
MODEL 9
REMARK VINA RESULT:      -7.4      4.708      8.368
REMARK  3 active torsions:
REMARK  status: ('A' for Active; 'I' for Inactive)
REMARK    1  A    between atoms: N1_1  and  C1_2 
REMARK    2  A    between atoms: C9_11  and  N3_12 
REMARK    3  A    between atoms: N3_12  and  C10_13 
ROOT
HETATM    1  C1  UNL     1      21.248  -0.500  53.573  1.00  0.00     0.026 A 
HETATM    2  C2  UNL     1      20.402  -0.135  52.519  1.00  0.00     0.032 A 
HETATM    3  C3  UNL     1      20.910   0.652  51.504  1.00  0.00     0.040 A 
HETATM    4  C4  UNL     1      22.224   1.043  51.574  1.00  0.00     0.086 A 
HETATM    5  C5  UNL     1      23.102   0.717  52.582  1.00  0.00    -0.004 A 
HETATM    6  C6  UNL     1      22.553  -0.083  53.595  1.00  0.00     0.040 A 
HETATM    7  C7  UNL     1      24.490   0.945  52.959  1.00  0.00     0.161 C 
HETATM    8  N2  UNL     1      25.336   1.538  51.978  1.00  0.00    -0.379 N 
HETATM    9  C8  UNL     1      24.952   2.370  50.887  1.00  0.00     0.129 A 
HETATM   10  C9  UNL     1      25.536   3.275  50.126  1.00  0.00     0.162 A 
HETATM   11  N4  UNL     1      24.292   3.423  49.432  1.00  0.00    -0.202 NA
HETATM   12  C16 UNL     1      23.699   2.542  50.163  1.00  0.00     0.203 A 
HETATM   13  O1  UNL     1      22.558   1.819  50.485  1.00  0.00    -0.289 OA
HETATM   14  H8  UNL     1      26.364   1.361  52.039  1.00  0.00     0.160 HD
ENDROOT
BRANCH  10  15
HETATM   15  N3  UNL     1      26.728   3.984  49.840  1.00  0.00    -0.339 N 
HETATM   16  H9  UNL     1      27.719   3.804  50.102  1.00  0.00     0.167 HD
BRANCH  15  17
HETATM   17  C10 UNL     1      26.910   5.177  49.094  1.00  0.00     0.035 A 
HETATM   18  C11 UNL     1      28.166   5.353  48.526  1.00  0.00     0.029 A 
HETATM   19  C12 UNL     1      28.502   6.450  47.774  1.00  0.00     0.004 A 
HETATM   20  C13 UNL     1      27.509   7.396  47.602  1.00  0.00     0.019 A 
HETATM   21  C14 UNL     1      26.259   7.293  48.125  1.00  0.00     0.013 A 
HETATM   22 BR1  UNL     1      24.894   8.616  47.870  1.00  0.00    -0.051 Br
HETATM   23  C15 UNL     1      25.982   6.171  48.870  1.00  0.00     0.048 A 
ENDBRANCH  15  17
ENDBRANCH  10  15
BRANCH   1  24
HETATM   24  N1  UNL     1      20.672  -1.305  54.583  1.00  0.00    -0.399 N 
HETATM   25  H1  UNL     1      20.492  -1.109  55.592  1.00  0.00     0.156 HD
HETATM   26  H2  UNL     1      20.338  -2.285  54.380  1.00  0.00     0.156 HD
ENDBRANCH   1  24
TORSDOF 3
ENDMDL
