MODEL 1
REMARK VINA RESULT:      -7.8      0.000      0.000
REMARK  3 active torsions:
REMARK  status: ('A' for Active; 'I' for Inactive)
REMARK    1  A    between atoms: C2_2  and  C3_3 
REMARK    2  A    between atoms: C3_3  and  O1_4 
REMARK    3  A    between atoms: C4_5  and  C5_6 
ROOT
HETATM    1  C5  UNL     1      23.125   2.690  52.661  1.00  0.00     0.010 C 
HETATM    2  C6  UNL     1      23.781   1.545  52.741  1.00  0.00    -0.048 C 
HETATM    3  C7  UNL     1      25.243   1.787  52.848  1.00  0.00     0.036 C 
HETATM    4  C8  UNL     1      26.289   1.322  53.523  1.00  0.00     0.113 C 
HETATM    5  C9  UNL     1      27.570   1.884  53.335  1.00  0.00     0.105 C 
HETATM    6  N1  UNL     1      28.598   2.352  53.171  1.00  0.00    -0.191 NA
HETATM    7  C10 UNL     1      26.407   0.231  54.539  1.00  0.00     0.266 C 
HETATM    8  O2  UNL     1      27.433  -0.024  55.153  1.00  0.00    -0.267 OA
HETATM    9  N2  UNL     1      25.356  -0.698  54.970  1.00  0.00    -0.326 N 
HETATM   10  C11 UNL     1      24.066  -0.948  54.334  1.00  0.00     0.013 C 
HETATM   11  C12 UNL     1      23.132  -1.171  55.287  1.00  0.00     0.025 C 
HETATM   12  C13 UNL     1      21.868  -0.435  54.945  1.00  0.00    -0.001 C 
HETATM   13  C14 UNL     1      21.893   0.291  53.801  1.00  0.00    -0.017 C 
HETATM   14  C15 UNL     1      22.921   0.363  52.703  1.00  0.00     0.046 C 
HETATM   15  C16 UNL     1      23.695  -0.938  52.852  1.00  0.00     0.070 C 
HETATM   16  H10 UNL     1      25.413  -1.282  55.806  1.00  0.00     0.169 HD
ENDROOT
BRANCH   1  17
HETATM   17  C4  UNL     1      23.703   4.003  52.673  1.00  0.00     0.032 C 
HETATM   18  C3  UNL     1      23.553   4.834  51.678  1.00  0.00     0.043 C 
BRANCH  18  19
HETATM   19  C2  UNL     1      24.062   6.204  51.509  1.00  0.00     0.060 C 
HETATM   20  C1  UNL     1      23.112   7.108  50.762  1.00  0.00     0.012 C 
ENDBRANCH  18  19
BRANCH  18  21
HETATM   21  O1  UNL     1      22.841   4.551  50.531  1.00  0.00    -0.365 OA
HETATM   22  H6  UNL     1      22.305   5.217  50.007  1.00  0.00     0.217 HD
ENDBRANCH  18  21
ENDBRANCH   1  17
TORSDOF 3
ENDMDL
MODEL 2
REMARK VINA RESULT:      -7.8      2.274      5.310
REMARK  3 active torsions:
REMARK  status: ('A' for Active; 'I' for Inactive)
REMARK    1  A    between atoms: C2_2  and  C3_3 
REMARK    2  A    between atoms: C3_3  and  O1_4 
REMARK    3  A    between atoms: C4_5  and  C5_6 
ROOT
HETATM    1  C5  UNL     1      22.351   1.326  52.068  1.00  0.00     0.010 C 
HETATM    2  C6  UNL     1      23.270   2.271  52.175  1.00  0.00    -0.048 C 
HETATM    3  C7  UNL     1      24.381   1.821  53.053  1.00  0.00     0.036 C 
HETATM    4  C8  UNL     1      25.709   1.872  53.094  1.00  0.00     0.113 C 
HETATM    5  C9  UNL     1      26.417   1.257  54.149  1.00  0.00     0.105 C 
HETATM    6  N1  UNL     1      26.972   0.752  55.009  1.00  0.00    -0.191 NA
HETATM    7  C10 UNL     1      26.706   2.499  52.172  1.00  0.00     0.266 C 
HETATM    8  O2  UNL     1      27.916   2.381  52.291  1.00  0.00    -0.267 OA
HETATM    9  N2  UNL     1      26.427   3.335  50.999  1.00  0.00    -0.326 N 
HETATM   10  C11 UNL     1      25.161   3.961  50.626  1.00  0.00     0.013 C 
HETATM   11  C12 UNL     1      25.031   3.943  49.280  1.00  0.00     0.025 C 
HETATM   12  C13 UNL     1      23.630   3.549  48.908  1.00  0.00    -0.001 C 
HETATM   13  C14 UNL     1      22.792   3.287  49.940  1.00  0.00    -0.017 C 
HETATM   14  C15 UNL     1      22.963   3.486  51.422  1.00  0.00     0.046 C 
HETATM   15  C16 UNL     1      24.061   4.534  51.518  1.00  0.00     0.070 C 
HETATM   16  H10 UNL     1      27.115   3.565  50.280  1.00  0.00     0.169 HD
ENDROOT
BRANCH   1  17
HETATM   17  C4  UNL     1      22.383   0.035  52.692  1.00  0.00     0.032 C 
HETATM   18  C3  UNL     1      21.597  -0.273  53.687  1.00  0.00     0.043 C 
BRANCH  18  19
HETATM   19  C2  UNL     1      21.484  -1.527  54.448  1.00  0.00     0.060 C 
HETATM   20  C1  UNL     1      22.654  -1.778  55.367  1.00  0.00     0.012 C 
ENDBRANCH  18  19
BRANCH  18  21
HETATM   21  O1  UNL     1      20.670   0.587  54.238  1.00  0.00    -0.365 OA
HETATM   22  H6  UNL     1      19.678   0.442  54.238  1.00  0.00     0.217 HD
ENDBRANCH  18  21
ENDBRANCH   1  17
TORSDOF 3
ENDMDL
MODEL 3
REMARK VINA RESULT:      -7.7      1.790      2.000
REMARK  3 active torsions:
REMARK  status: ('A' for Active; 'I' for Inactive)
REMARK    1  A    between atoms: C2_2  and  C3_3 
REMARK    2  A    between atoms: C3_3  and  O1_4 
REMARK    3  A    between atoms: C4_5  and  C5_6 
ROOT
HETATM    1  C5  UNL     1      23.154   2.198  51.523  1.00  0.00     0.010 C 
HETATM    2  C6  UNL     1      23.338   0.981  52.007  1.00  0.00    -0.048 C 
HETATM    3  C7  UNL     1      24.773   0.754  52.317  1.00  0.00     0.036 C 
HETATM    4  C8  UNL     1      25.517   0.198  53.268  1.00  0.00     0.113 C 
HETATM    5  C9  UNL     1      26.926   0.227  53.184  1.00  0.00     0.105 C 
HETATM    6  N1  UNL     1      28.063   0.262  53.100  1.00  0.00    -0.191 NA
HETATM    7  C10 UNL     1      25.143  -0.515  54.528  1.00  0.00     0.266 C 
HETATM    8  O2  UNL     1      25.949  -0.895  55.365  1.00  0.00    -0.267 OA
HETATM    9  N2  UNL     1      23.793  -0.875  54.978  1.00  0.00    -0.326 N 
HETATM   10  C11 UNL     1      22.559  -0.869  54.198  1.00  0.00     0.013 C 
HETATM   11  C12 UNL     1      21.532  -0.480  54.988  1.00  0.00     0.025 C 
HETATM   12  C13 UNL     1      20.657   0.491  54.246  1.00  0.00    -0.001 C 
HETATM   13  C14 UNL     1      21.041   0.791  52.981  1.00  0.00    -0.017 C 
HETATM   14  C15 UNL     1      22.112   0.191  52.109  1.00  0.00     0.046 C 
HETATM   15  C16 UNL     1      22.343  -1.183  52.719  1.00  0.00     0.070 C 
HETATM   16  H10 UNL     1      23.563  -1.167  55.929  1.00  0.00     0.169 HD
ENDROOT
BRANCH   1  17
HETATM   17  C4  UNL     1      24.169   3.190  51.312  1.00  0.00     0.032 C 
HETATM   18  C3  UNL     1      24.471   3.629  50.121  1.00  0.00     0.043 C 
BRANCH  18  19
HETATM   19  C2  UNL     1      25.467   4.630  49.708  1.00  0.00     0.060 C 
HETATM   20  C1  UNL     1      26.800   4.028  49.333  1.00  0.00     0.012 C 
ENDBRANCH  18  19
BRANCH  18  21
HETATM   21  O1  UNL     1      23.865   3.199  48.959  1.00  0.00    -0.365 OA
HETATM   22  H6  UNL     1      23.420   2.308  48.837  1.00  0.00     0.217 HD
ENDBRANCH  18  21
ENDBRANCH   1  17
TORSDOF 3
ENDMDL
MODEL 4
REMARK VINA RESULT:      -7.7      2.392      4.964
REMARK  3 active torsions:
REMARK  status: ('A' for Active; 'I' for Inactive)
REMARK    1  A    between atoms: C2_2  and  C3_3 
REMARK    2  A    between atoms: C3_3  and  O1_4 
REMARK    3  A    between atoms: C4_5  and  C5_6 
ROOT
HETATM    1  C5  UNL     1      22.177   1.678  51.159  1.00  0.00     0.010 C 
HETATM    2  C6  UNL     1      23.007   1.755  52.185  1.00  0.00    -0.048 C 
HETATM    3  C7  UNL     1      22.748   0.655  53.150  1.00  0.00     0.036 C 
HETATM    4  C8  UNL     1      23.433  -0.202  53.900  1.00  0.00     0.113 C 
HETATM    5  C9  UNL     1      22.761  -1.156  54.693  1.00  0.00     0.105 C 
HETATM    6  N1  UNL     1      22.200  -1.922  55.327  1.00  0.00    -0.191 NA
HETATM    7  C10 UNL     1      24.904  -0.391  54.096  1.00  0.00     0.266 C 
HETATM    8  O2  UNL     1      25.396  -1.296  54.754  1.00  0.00    -0.267 OA
HETATM    9  N2  UNL     1      25.986   0.440  53.556  1.00  0.00    -0.326 N 
HETATM   10  C11 UNL     1      25.880   1.763  52.947  1.00  0.00     0.013 C 
HETATM   11  C12 UNL     1      26.777   1.866  51.940  1.00  0.00     0.025 C 
HETATM   12  C13 UNL     1      26.136   2.527  50.752  1.00  0.00    -0.001 C 
HETATM   13  C14 UNL     1      24.835   2.876  50.896  1.00  0.00    -0.017 C 
HETATM   14  C15 UNL     1      23.944   2.876  52.109  1.00  0.00     0.046 C 
HETATM   15  C16 UNL     1      24.923   2.908  53.273  1.00  0.00     0.070 C 
HETATM   16  H10 UNL     1      26.969   0.162  53.534  1.00  0.00     0.169 HD
ENDROOT
BRANCH   1  17
HETATM   17  C4  UNL     1      21.156   0.689  50.965  1.00  0.00     0.032 C 
HETATM   18  C3  UNL     1      19.910   0.909  51.283  1.00  0.00     0.043 C 
BRANCH  18  19
HETATM   19  C2  UNL     1      18.735   0.031  51.161  1.00  0.00     0.060 C 
HETATM   20  C1  UNL     1      18.297  -0.569  52.474  1.00  0.00     0.012 C 
ENDBRANCH  18  19
BRANCH  18  21
HETATM   21  O1  UNL     1      19.445   2.087  51.830  1.00  0.00    -0.365 OA
HETATM   22  H6  UNL     1      19.676   2.428  52.744  1.00  0.00     0.217 HD
ENDBRANCH  18  21
ENDBRANCH   1  17
TORSDOF 3
ENDMDL
MODEL 5
REMARK VINA RESULT:      -7.7      2.690      5.548
REMARK  3 active torsions:
REMARK  status: ('A' for Active; 'I' for Inactive)
REMARK    1  A    between atoms: C2_2  and  C3_3 
REMARK    2  A    between atoms: C3_3  and  O1_4 
REMARK    3  A    between atoms: C4_5  and  C5_6 
ROOT
HETATM    1  C5  UNL     1      25.348   0.164  53.046  1.00  0.00     0.010 C 
HETATM    2  C6  UNL     1      24.617   1.191  52.644  1.00  0.00    -0.048 C 
HETATM    3  C7  UNL     1      25.406   2.072  51.745  1.00  0.00     0.036 C 
HETATM    4  C8  UNL     1      25.244   2.755  50.616  1.00  0.00     0.113 C 
HETATM    5  C9  UNL     1      26.318   3.479  50.056  1.00  0.00     0.105 C 
HETATM    6  N1  UNL     1      27.199   4.056  49.617  1.00  0.00    -0.191 NA
HETATM    7  C10 UNL     1      24.054   2.932  49.727  1.00  0.00     0.266 C 
HETATM    8  O2  UNL     1      24.081   3.520  48.656  1.00  0.00    -0.267 OA
HETATM    9  N2  UNL     1      22.688   2.450  49.966  1.00  0.00    -0.326 N 
HETATM   10  C11 UNL     1      22.123   1.941  51.212  1.00  0.00     0.013 C 
HETATM   11  C12 UNL     1      21.255   0.940  50.936  1.00  0.00     0.025 C 
HETATM   12  C13 UNL     1      21.459  -0.193  51.900  1.00  0.00    -0.001 C 
HETATM   13  C14 UNL     1      22.435  -0.019  52.825  1.00  0.00    -0.017 C 
HETATM   14  C15 UNL     1      23.255   1.194  53.175  1.00  0.00     0.046 C 
HETATM   15  C16 UNL     1      22.420   2.353  52.653  1.00  0.00     0.070 C 
HETATM   16  H10 UNL     1      21.961   2.405  49.250  1.00  0.00     0.169 HD
ENDROOT
BRANCH   1  17
HETATM   17  C4  UNL     1      26.713  -0.098  52.689  1.00  0.00     0.032 C 
HETATM   18  C3  UNL     1      27.636  -0.302  53.588  1.00  0.00     0.043 C 
BRANCH  18  19
HETATM   19  C2  UNL     1      29.071  -0.584  53.420  1.00  0.00     0.060 C 
HETATM   20  C1  UNL     1      29.382  -2.056  53.299  1.00  0.00     0.012 C 
ENDBRANCH  18  19
BRANCH  18  21
HETATM   21  O1  UNL     1      27.412  -0.287  54.948  1.00  0.00    -0.365 OA
HETATM   22  H6  UNL     1      27.659   0.464  55.565  1.00  0.00     0.217 HD
ENDBRANCH  18  21
ENDBRANCH   1  17
TORSDOF 3
ENDMDL
MODEL 6
REMARK VINA RESULT:      -7.7      2.817      5.247
REMARK  3 active torsions:
REMARK  status: ('A' for Active; 'I' for Inactive)
REMARK    1  A    between atoms: C2_2  and  C3_3 
REMARK    2  A    between atoms: C3_3  and  O1_4 
REMARK    3  A    between atoms: C4_5  and  C5_6 
ROOT
HETATM    1  C5  UNL     1      24.971   1.849  51.794  1.00  0.00     0.010 C 
HETATM    2  C6  UNL     1      23.764   1.313  51.723  1.00  0.00    -0.048 C 
HETATM    3  C7  UNL     1      23.533   0.396  52.869  1.00  0.00     0.036 C 
HETATM    4  C8  UNL     1      22.564   0.087  53.726  1.00  0.00     0.113 C 
HETATM    5  C9  UNL     1      22.781  -0.874  54.736  1.00  0.00     0.105 C 
HETATM    6  N1  UNL     1      22.975  -1.653  55.547  1.00  0.00    -0.191 NA
HETATM    7  C10 UNL     1      21.164   0.594  53.863  1.00  0.00     0.266 C 
HETATM    8  O2  UNL     1      20.408   0.282  54.771  1.00  0.00    -0.267 OA
HETATM    9  N2  UNL     1      20.465   1.524  52.968  1.00  0.00    -0.326 N 
HETATM   10  C11 UNL     1      20.862   1.947  51.628  1.00  0.00     0.013 C 
HETATM   11  C12 UNL     1      20.528   3.246  51.450  1.00  0.00     0.025 C 
HETATM   12  C13 UNL     1      21.654   3.974  50.772  1.00  0.00    -0.001 C 
HETATM   13  C14 UNL     1      22.751   3.234  50.481  1.00  0.00    -0.017 C 
HETATM   14  C15 UNL     1      22.987   1.749  50.564  1.00  0.00     0.046 C 
HETATM   15  C16 UNL     1      21.585   1.161  50.536  1.00  0.00     0.070 C 
HETATM   16  H10 UNL     1      19.596   2.006  53.205  1.00  0.00     0.169 HD
ENDROOT
BRANCH   1  17
HETATM   17  C4  UNL     1      25.949   1.608  52.816  1.00  0.00     0.032 C 
HETATM   18  C3  UNL     1      27.146   2.126  52.764  1.00  0.00     0.043 C 
BRANCH  18  19
HETATM   19  C2  UNL     1      28.271   1.995  53.703  1.00  0.00     0.060 C 
HETATM   20  C1  UNL     1      29.014   0.689  53.569  1.00  0.00     0.012 C 
ENDBRANCH  18  19
BRANCH  18  21
HETATM   21  O1  UNL     1      27.595   2.942  51.747  1.00  0.00    -0.365 OA
HETATM   22  H6  UNL     1      27.012   3.370  51.053  1.00  0.00     0.217 HD
ENDBRANCH  18  21
ENDBRANCH   1  17
TORSDOF 3
ENDMDL
MODEL 7
REMARK VINA RESULT:      -7.6      2.600      6.152
REMARK  3 active torsions:
REMARK  status: ('A' for Active; 'I' for Inactive)
REMARK    1  A    between atoms: C2_2  and  C3_3 
REMARK    2  A    between atoms: C3_3  and  O1_4 
REMARK    3  A    between atoms: C4_5  and  C5_6 
ROOT
HETATM    1  C5  UNL     1      26.732   2.321  51.445  1.00  0.00     0.010 C 
HETATM    2  C6  UNL     1      25.507   2.332  50.948  1.00  0.00    -0.048 C 
HETATM    3  C7  UNL     1      24.635   1.382  51.686  1.00  0.00     0.036 C 
HETATM    4  C8  UNL     1      23.399   1.326  52.171  1.00  0.00     0.113 C 
HETATM    5  C9  UNL     1      22.955   0.184  52.872  1.00  0.00     0.105 C 
HETATM    6  N1  UNL     1      22.615  -0.748  53.437  1.00  0.00    -0.191 NA
HETATM    7  C10 UNL     1      22.274   2.311  52.134  1.00  0.00     0.266 C 
HETATM    8  O2  UNL     1      21.209   2.157  52.714  1.00  0.00    -0.267 OA
HETATM    9  N2  UNL     1      22.241   3.594  51.423  1.00  0.00    -0.326 N 
HETATM   10  C11 UNL     1      23.162   4.072  50.395  1.00  0.00     0.013 C 
HETATM   11  C12 UNL     1      23.344   5.404  50.540  1.00  0.00     0.025 C 
HETATM   12  C13 UNL     1      24.800   5.740  50.380  1.00  0.00    -0.001 C 
HETATM   13  C14 UNL     1      25.628   4.696  50.137  1.00  0.00    -0.017 C 
HETATM   14  C15 UNL     1      25.329   3.253  49.827  1.00  0.00     0.046 C 
HETATM   15  C16 UNL     1      23.899   3.288  49.310  1.00  0.00     0.070 C 
HETATM   16  H10 UNL     1      21.550   4.327  51.590  1.00  0.00     0.169 HD
ENDROOT
BRANCH   1  17
HETATM   17  C4  UNL     1      27.197   1.520  52.542  1.00  0.00     0.032 C 
HETATM   18  C3  UNL     1      28.286   1.812  53.199  1.00  0.00     0.043 C 
BRANCH  18  19
HETATM   19  C2  UNL     1      28.915   1.122  54.336  1.00  0.00     0.060 C 
HETATM   20  C1  UNL     1      29.439  -0.250  53.988  1.00  0.00     0.012 C 
ENDBRANCH  18  19
BRANCH  18  21
HETATM   21  O1  UNL     1      29.093   2.894  52.920  1.00  0.00    -0.365 OA
HETATM   22  H6  UNL     1      29.743   2.947  52.159  1.00  0.00     0.217 HD
ENDBRANCH  18  21
ENDBRANCH   1  17
TORSDOF 3
ENDMDL
MODEL 8
REMARK VINA RESULT:      -7.4      3.084      5.588
REMARK  3 active torsions:
REMARK  status: ('A' for Active; 'I' for Inactive)
REMARK    1  A    between atoms: C2_2  and  C3_3 
REMARK    2  A    between atoms: C3_3  and  O1_4 
REMARK    3  A    between atoms: C4_5  and  C5_6 
ROOT
HETATM    1  C5  UNL     1      23.983  -0.511  53.763  1.00  0.00     0.010 C 
HETATM    2  C6  UNL     1      22.914   0.216  53.488  1.00  0.00    -0.048 C 
HETATM    3  C7  UNL     1      23.125   1.007  52.249  1.00  0.00     0.036 C 
HETATM    4  C8  UNL     1      22.454   1.356  51.156  1.00  0.00     0.113 C 
HETATM    5  C9  UNL     1      23.071   2.136  50.154  1.00  0.00     0.105 C 
HETATM    6  N1  UNL     1      23.587   2.765  49.354  1.00  0.00    -0.191 NA
HETATM    7  C10 UNL     1      21.052   1.067  50.719  1.00  0.00     0.266 C 
HETATM    8  O2  UNL     1      20.597   1.380  49.629  1.00  0.00    -0.267 OA
HETATM    9  N2  UNL     1      20.007   0.381  51.487  1.00  0.00    -0.326 N 
HETATM   10  C11 UNL     1      20.001   0.072  52.914  1.00  0.00     0.013 C 
HETATM   11  C12 UNL     1      19.400  -1.123  53.112  1.00  0.00     0.025 C 
HETATM   12  C13 UNL     1      20.184  -1.931  54.107  1.00  0.00    -0.001 C 
HETATM   13  C14 UNL     1      21.304  -1.345  54.598  1.00  0.00    -0.017 C 
HETATM   14  C15 UNL     1      21.825   0.060  54.452  1.00  0.00     0.046 C 
HETATM   15  C16 UNL     1      20.588   0.864  54.082  1.00  0.00     0.070 C 
HETATM   16  H10 UNL     1      19.142   0.018  51.084  1.00  0.00     0.169 HD
ENDROOT
BRANCH   1  17
HETATM   17  C4  UNL     1      25.197  -0.560  53.000  1.00  0.00     0.032 C 
HETATM   18  C3  UNL     1      26.372  -0.582  53.567  1.00  0.00     0.043 C 
BRANCH  18  19
HETATM   19  C2  UNL     1      27.711  -0.631  52.961  1.00  0.00     0.060 C 
HETATM   20  C1  UNL     1      28.813  -0.226  53.911  1.00  0.00     0.012 C 
ENDBRANCH  18  19
BRANCH  18  21
HETATM   21  O1  UNL     1      26.575  -0.559  54.931  1.00  0.00    -0.365 OA
HETATM   22  H6  UNL     1      27.250  -1.114  55.422  1.00  0.00     0.217 HD
ENDBRANCH  18  21
ENDBRANCH   1  17
TORSDOF 3
ENDMDL
MODEL 9
REMARK VINA RESULT:      -7.0      3.926      5.439
REMARK  3 active torsions:
REMARK  status: ('A' for Active; 'I' for Inactive)
REMARK    1  A    between atoms: C2_2  and  C3_3 
REMARK    2  A    between atoms: C3_3  and  O1_4 
REMARK    3  A    between atoms: C4_5  and  C5_6 
ROOT
HETATM    1  C5  UNL     1      25.193   4.324  50.679  1.00  0.00     0.010 C 
HETATM    2  C6  UNL     1      23.965   3.843  50.770  1.00  0.00    -0.048 C 
HETATM    3  C7  UNL     1      23.348   3.731  49.423  1.00  0.00     0.036 C 
HETATM    4  C8  UNL     1      22.593   2.880  48.734  1.00  0.00     0.113 C 
HETATM    5  C9  UNL     1      22.237   3.160  47.397  1.00  0.00     0.105 C 
HETATM    6  N1  UNL     1      21.960   3.402  46.317  1.00  0.00    -0.191 NA
HETATM    7  C10 UNL     1      21.989   1.564  49.108  1.00  0.00     0.266 C 
HETATM    8  O2  UNL     1      21.390   0.839  48.328  1.00  0.00    -0.267 OA
HETATM    9  N2  UNL     1      22.006   0.923  50.428  1.00  0.00    -0.326 N 
HETATM   10  C11 UNL     1      22.363   1.523  51.711  1.00  0.00     0.013 C 
HETATM   11  C12 UNL     1      23.006   0.607  52.471  1.00  0.00     0.025 C 
HETATM   12  C13 UNL     1      24.191   1.242  53.141  1.00  0.00    -0.001 C 
HETATM   13  C14 UNL     1      24.395   2.554  52.871  1.00  0.00    -0.017 C 
HETATM   14  C15 UNL     1      23.540   3.553  52.139  1.00  0.00     0.046 C 
HETATM   15  C16 UNL     1      22.145   2.950  52.209  1.00  0.00     0.070 C 
HETATM   16  H10 UNL     1      21.773  -0.057  50.594  1.00  0.00     0.169 HD
ENDROOT
BRANCH   1  17
HETATM   17  C4  UNL     1      25.873   4.696  49.472  1.00  0.00     0.032 C 
HETATM   18  C3  UNL     1      26.418   5.872  49.319  1.00  0.00     0.043 C 
BRANCH  18  19
HETATM   19  C2  UNL     1      27.147   6.432  48.170  1.00  0.00     0.060 C 
HETATM   20  C1  UNL     1      28.602   6.033  48.133  1.00  0.00     0.012 C 
ENDBRANCH  18  19
BRANCH  18  21
HETATM   21  O1  UNL     1      26.401   6.865  50.276  1.00  0.00    -0.365 OA
HETATM   22  H6  UNL     1      26.297   6.713  51.261  1.00  0.00     0.217 HD
ENDBRANCH  18  21
ENDBRANCH   1  17
TORSDOF 3
ENDMDL
