MODEL 1
REMARK VINA RESULT:      -8.8      0.000      0.000
REMARK  0 active torsions:
REMARK  status: ('A' for Active; 'I' for Inactive)
ROOT
HETATM    1  O1  UNL     1      25.292  -1.097  54.719  1.00  0.00    -0.267 OA
HETATM    2  C1  UNL     1      25.199  -0.249  53.838  1.00  0.00     0.256 C 
HETATM    3  N1  UNL     1      26.334   0.570  53.256  1.00  0.00    -0.323 N 
HETATM    4  C2  UNL     1      25.899   1.756  52.555  1.00  0.00     0.036 C 
HETATM    5  C3  UNL     1      26.334   1.683  51.319  1.00  0.00     0.043 C 
HETATM    6  C4  UNL     1      25.883   2.812  50.575  1.00  0.00    -0.006 A 
HETATM    7  C5  UNL     1      26.654   3.763  50.060  1.00  0.00     0.014 A 
HETATM    8  C6  UNL     1      26.032   4.702  49.277  1.00  0.00     0.001 A 
HETATM    9  C7  UNL     1      24.680   4.650  49.041  1.00  0.00     0.002 A 
HETATM   10  C8  UNL     1      23.996   3.587  49.650  1.00  0.00     0.031 A 
HETATM   11  C9  UNL     1      24.502   2.572  50.468  1.00  0.00     0.053 A 
HETATM   12  N2  UNL     1      23.351   1.735  50.851  1.00  0.00    -0.317 N 
HETATM   13  N3  UNL     1      22.167   1.991  51.537  1.00  0.00    -0.214 NA
HETATM   14  C10 UNL     1      22.583   3.202  52.371  1.00  0.00     0.154 C 
HETATM   15  C11 UNL     1      23.818   2.499  52.921  1.00  0.00    -0.032 C 
HETATM   16  C12 UNL     1      25.093   2.850  53.195  1.00  0.00     0.038 C 
HETATM   17  C13 UNL     1      23.367   1.085  53.112  1.00  0.00    -0.012 A 
HETATM   18  C14 UNL     1      23.740  -0.188  53.445  1.00  0.00     0.041 A 
HETATM   19  C15 UNL     1      22.595  -1.027  53.195  1.00  0.00     0.015 A 
HETATM   20  C16 UNL     1      21.583  -0.225  52.731  1.00  0.00     0.000 A 
HETATM   21  C17 UNL     1      21.905   1.148  52.642  1.00  0.00     0.137 A 
HETATM   22  H1  UNL     1      27.299   0.307  53.289  1.00  0.00     0.169 HD
HETATM   23  H7  UNL     1      23.965   1.090  50.333  1.00  0.00     0.181 HD
ENDROOT
TORSDOF 0
ENDMDL
MODEL 2
REMARK VINA RESULT:      -8.5      3.114      5.000
REMARK  0 active torsions:
REMARK  status: ('A' for Active; 'I' for Inactive)
ROOT
HETATM    1  O1  UNL     1      17.425  -1.669  53.469  1.00  0.00    -0.267 OA
HETATM    2  C1  UNL     1      18.569  -1.257  53.312  1.00  0.00     0.256 C 
HETATM    3  N1  UNL     1      19.783  -1.638  54.135  1.00  0.00    -0.323 N 
HETATM    4  C2  UNL     1      20.888  -0.714  54.010  1.00  0.00     0.036 C 
HETATM    5  C3  UNL     1      21.929  -1.380  53.568  1.00  0.00     0.043 C 
HETATM    6  C4  UNL     1      23.031  -0.495  53.381  1.00  0.00    -0.006 A 
HETATM    7  C5  UNL     1      24.171  -0.518  54.061  1.00  0.00     0.014 A 
HETATM    8  C6  UNL     1      25.151   0.347  53.646  1.00  0.00     0.001 A 
HETATM    9  C7  UNL     1      24.954   1.188  52.579  1.00  0.00     0.002 A 
HETATM   10  C8  UNL     1      23.700   1.099  51.957  1.00  0.00     0.031 A 
HETATM   11  C9  UNL     1      22.619   0.272  52.278  1.00  0.00     0.053 A 
HETATM   12  N2  UNL     1      21.546   0.602  51.322  1.00  0.00    -0.317 N 
HETATM   13  N3  UNL     1      20.844   1.769  51.035  1.00  0.00    -0.214 NA
HETATM   14  C10 UNL     1      20.982   2.511  52.365  1.00  0.00     0.154 C 
HETATM   15  C11 UNL     1      20.476   1.322  53.172  1.00  0.00    -0.032 C 
HETATM   16  C12 UNL     1      20.792   0.745  54.352  1.00  0.00     0.038 C 
HETATM   17  C13 UNL     1      19.413   0.728  52.304  1.00  0.00    -0.012 A 
HETATM   18  C14 UNL     1      18.530  -0.305  52.137  1.00  0.00     0.041 A 
HETATM   19  C15 UNL     1      17.955  -0.143  50.825  1.00  0.00     0.015 A 
HETATM   20  C16 UNL     1      18.507   0.981  50.264  1.00  0.00     0.000 A 
HETATM   21  C17 UNL     1      19.434   1.663  51.084  1.00  0.00     0.137 A 
HETATM   22  H1  UNL     1      19.862  -2.476  54.678  1.00  0.00     0.169 HD
HETATM   23  H7  UNL     1      21.749  -0.391  51.134  1.00  0.00     0.181 HD
ENDROOT
TORSDOF 0
ENDMDL
MODEL 3
REMARK VINA RESULT:      -8.1      3.053      5.511
REMARK  0 active torsions:
REMARK  status: ('A' for Active; 'I' for Inactive)
ROOT
HETATM    1  O1  UNL     1      27.214   6.470  48.226  1.00  0.00    -0.267 OA
HETATM    2  C1  UNL     1      26.702   5.674  49.004  1.00  0.00     0.256 C 
HETATM    3  N1  UNL     1      27.128   4.237  49.230  1.00  0.00    -0.323 N 
HETATM    4  C2  UNL     1      26.121   3.423  49.872  1.00  0.00     0.036 C 
HETATM    5  C3  UNL     1      26.630   2.945  50.983  1.00  0.00     0.043 C 
HETATM    6  C4  UNL     1      25.650   2.175  51.676  1.00  0.00    -0.006 A 
HETATM    7  C5  UNL     1      25.705   0.867  51.900  1.00  0.00     0.014 A 
HETATM    8  C6  UNL     1      24.717   0.337  52.690  1.00  0.00     0.001 A 
HETATM    9  C7  UNL     1      23.727   1.127  53.219  1.00  0.00     0.002 A 
HETATM   10  C8  UNL     1      23.799   2.491  52.897  1.00  0.00     0.031 A 
HETATM   11  C9  UNL     1      24.742   3.157  52.107  1.00  0.00     0.053 A 
HETATM   12  N2  UNL     1      24.335   4.573  52.080  1.00  0.00    -0.317 N 
HETATM   13  N3  UNL     1      23.188   5.232  51.644  1.00  0.00    -0.214 NA
HETATM   14  C10 UNL     1      22.669   4.234  50.609  1.00  0.00     0.154 C 
HETATM   15  C11 UNL     1      24.008   4.166  49.886  1.00  0.00    -0.032 C 
HETATM   16  C12 UNL     1      24.749   3.198  49.303  1.00  0.00     0.038 C 
HETATM   17  C13 UNL     1      24.524   5.569  49.958  1.00  0.00    -0.012 A 
HETATM   18  C14 UNL     1      25.574   6.406  49.696  1.00  0.00     0.041 A 
HETATM   19  C15 UNL     1      25.237   7.679  50.282  1.00  0.00     0.015 A 
HETATM   20  C16 UNL     1      24.000   7.557  50.862  1.00  0.00     0.000 A 
HETATM   21  C17 UNL     1      23.400   6.285  50.724  1.00  0.00     0.137 A 
HETATM   22  H1  UNL     1      28.036   3.874  49.018  1.00  0.00     0.169 HD
HETATM   23  H7  UNL     1      25.265   4.591  52.521  1.00  0.00     0.181 HD
ENDROOT
TORSDOF 0
ENDMDL
MODEL 4
REMARK VINA RESULT:      -8.1      2.376      4.341
REMARK  0 active torsions:
REMARK  status: ('A' for Active; 'I' for Inactive)
ROOT
HETATM    1  O1  UNL     1      22.123   3.127  51.694  1.00  0.00    -0.267 OA
HETATM    2  C1  UNL     1      23.165   2.696  52.175  1.00  0.00     0.256 C 
HETATM    3  N1  UNL     1      24.526   3.360  52.115  1.00  0.00    -0.323 N 
HETATM    4  C2  UNL     1      25.627   2.464  52.387  1.00  0.00     0.036 C 
HETATM    5  C3  UNL     1      26.291   2.935  53.416  1.00  0.00     0.043 C 
HETATM    6  C4  UNL     1      27.359   2.052  53.752  1.00  0.00    -0.006 A 
HETATM    7  C5  UNL     1      28.654   2.329  53.665  1.00  0.00     0.014 A 
HETATM    8  C6  UNL     1      29.520   1.382  54.149  1.00  0.00     0.001 A 
HETATM    9  C7  UNL     1      29.060   0.210  54.696  1.00  0.00     0.002 A 
HETATM   10  C8  UNL     1      27.666   0.056  54.722  1.00  0.00     0.031 A 
HETATM   11  C9  UNL     1      26.678   0.933  54.263  1.00  0.00     0.053 A 
HETATM   12  N2  UNL     1      25.385   0.270  54.513  1.00  0.00    -0.317 N 
HETATM   13  N3  UNL     1      24.824  -0.928  54.080  1.00  0.00    -0.214 NA
HETATM   14  C10 UNL     1      25.587  -1.137  52.771  1.00  0.00     0.154 C 
HETATM   15  C11 UNL     1      25.253   0.260  52.261  1.00  0.00    -0.032 C 
HETATM   16  C12 UNL     1      25.908   1.227  51.582  1.00  0.00     0.038 C 
HETATM   17  C13 UNL     1      23.854   0.489  52.740  1.00  0.00    -0.012 A 
HETATM   18  C14 UNL     1      22.824   1.383  52.845  1.00  0.00     0.041 A 
HETATM   19  C15 UNL     1      21.817   0.752  53.659  1.00  0.00     0.015 A 
HETATM   20  C16 UNL     1      22.278  -0.494  54.002  1.00  0.00     0.000 A 
HETATM   21  C17 UNL     1      23.548  -0.824  53.478  1.00  0.00     0.137 A 
HETATM   22  H1  UNL     1      24.675   4.339  51.960  1.00  0.00     0.169 HD
HETATM   23  H7  UNL     1      25.337   1.129  55.079  1.00  0.00     0.181 HD
ENDROOT
TORSDOF 0
ENDMDL
MODEL 5
REMARK VINA RESULT:      -8.0      1.387      1.910
REMARK  0 active torsions:
REMARK  status: ('A' for Active; 'I' for Inactive)
ROOT
HETATM    1  O1  UNL     1      26.559   1.346  54.502  1.00  0.00    -0.267 OA
HETATM    2  C1  UNL     1      25.881   1.709  53.547  1.00  0.00     0.256 C 
HETATM    3  N1  UNL     1      26.201   2.845  52.597  1.00  0.00    -0.323 N 
HETATM    4  C2  UNL     1      25.062   3.314  51.842  1.00  0.00     0.036 C 
HETATM    5  C3  UNL     1      25.337   3.185  50.565  1.00  0.00     0.043 C 
HETATM    6  C4  UNL     1      24.218   3.589  49.781  1.00  0.00    -0.006 A 
HETATM    7  C5  UNL     1      24.179   4.633  48.960  1.00  0.00     0.014 A 
HETATM    8  C6  UNL     1      23.042   4.781  48.208  1.00  0.00     0.001 A 
HETATM    9  C7  UNL     1      22.003   3.888  48.304  1.00  0.00     0.002 A 
HETATM   10  C8  UNL     1      22.187   2.835  49.211  1.00  0.00     0.031 A 
HETATM   11  C9  UNL     1      23.285   2.570  50.037  1.00  0.00     0.053 A 
HETATM   12  N2  UNL     1      22.946   1.356  50.802  1.00  0.00    -0.317 N 
HETATM   13  N3  UNL     1      21.926   1.042  51.696  1.00  0.00    -0.214 NA
HETATM   14  C10 UNL     1      21.568   2.436  52.212  1.00  0.00     0.154 C 
HETATM   15  C11 UNL     1      23.014   2.764  52.562  1.00  0.00    -0.032 C 
HETATM   16  C12 UNL     1      23.810   3.852  52.475  1.00  0.00     0.038 C 
HETATM   17  C13 UNL     1      23.562   1.467  53.069  1.00  0.00    -0.012 A 
HETATM   18  C14 UNL     1      24.674   0.798  53.500  1.00  0.00     0.041 A 
HETATM   19  C15 UNL     1      24.285  -0.582  53.656  1.00  0.00     0.015 A 
HETATM   20  C16 UNL     1      22.959  -0.681  53.321  1.00  0.00     0.000 A 
HETATM   21  C17 UNL     1      22.344   0.536  52.949  1.00  0.00     0.137 A 
HETATM   22  H1  UNL     1      27.118   3.217  52.445  1.00  0.00     0.169 HD
HETATM   23  H7  UNL     1      23.779   1.084  50.261  1.00  0.00     0.181 HD
ENDROOT
TORSDOF 0
ENDMDL
MODEL 6
REMARK VINA RESULT:      -8.0      2.224      5.456
REMARK  0 active torsions:
REMARK  status: ('A' for Active; 'I' for Inactive)
ROOT
HETATM    1  O1  UNL     1      23.249   4.394  48.333  1.00  0.00    -0.267 OA
HETATM    2  C1  UNL     1      23.164   3.577  49.243  1.00  0.00     0.256 C 
HETATM    3  N1  UNL     1      21.903   2.875  49.705  1.00  0.00    -0.323 N 
HETATM    4  C2  UNL     1      22.005   2.300  51.026  1.00  0.00     0.036 C 
HETATM    5  C3  UNL     1      21.772   1.011  50.931  1.00  0.00     0.043 C 
HETATM    6  C4  UNL     1      21.913   0.394  52.208  1.00  0.00    -0.006 A 
HETATM    7  C5  UNL     1      20.941  -0.182  52.905  1.00  0.00     0.014 A 
HETATM    8  C6  UNL     1      21.310  -0.822  54.061  1.00  0.00     0.001 A 
HETATM    9  C7  UNL     1      22.621  -0.861  54.466  1.00  0.00     0.002 A 
HETATM   10  C8  UNL     1      23.537  -0.210  53.628  1.00  0.00     0.031 A 
HETATM   11  C9  UNL     1      23.298   0.478  52.434  1.00  0.00     0.053 A 
HETATM   12  N2  UNL     1      24.605   0.985  51.978  1.00  0.00    -0.317 N 
HETATM   13  N3  UNL     1      25.546   1.847  52.536  1.00  0.00    -0.214 NA
HETATM   14  C10 UNL     1      24.654   2.667  53.469  1.00  0.00     0.154 C 
HETATM   15  C11 UNL     1      23.663   2.999  52.360  1.00  0.00    -0.032 C 
HETATM   16  C12 UNL     1      22.320   3.101  52.258  1.00  0.00     0.038 C 
HETATM   17  C13 UNL     1      24.528   3.187  51.154  1.00  0.00    -0.012 A 
HETATM   18  C14 UNL     1      24.558   3.404  49.803  1.00  0.00     0.041 A 
HETATM   19  C15 UNL     1      25.937   3.283  49.401  1.00  0.00     0.015 A 
HETATM   20  C16 UNL     1      26.677   3.009  50.524  1.00  0.00     0.000 A 
HETATM   21  C17 UNL     1      25.934   2.938  51.724  1.00  0.00     0.137 A 
HETATM   22  H1  UNL     1      21.082   2.754  49.145  1.00  0.00     0.169 HD
HETATM   23  H7  UNL     1      24.306   0.354  51.221  1.00  0.00     0.181 HD
ENDROOT
TORSDOF 0
ENDMDL
MODEL 7
REMARK VINA RESULT:      -7.7      1.897      3.706
REMARK  0 active torsions:
REMARK  status: ('A' for Active; 'I' for Inactive)
ROOT
HETATM    1  O1  UNL     1      21.946  -1.745  53.560  1.00  0.00    -0.267 OA
HETATM    2  C1  UNL     1      22.092  -0.573  53.234  1.00  0.00     0.256 C 
HETATM    3  N1  UNL     1      21.014   0.357  52.715  1.00  0.00    -0.323 N 
HETATM    4  C2  UNL     1      21.527   1.522  52.029  1.00  0.00     0.036 C 
HETATM    5  C3  UNL     1      21.080   2.590  52.648  1.00  0.00     0.043 C 
HETATM    6  C4  UNL     1      21.604   3.764  52.033  1.00  0.00    -0.006 A 
HETATM    7  C5  UNL     1      20.898   4.686  51.389  1.00  0.00     0.014 A 
HETATM    8  C6  UNL     1      21.580   5.802  50.972  1.00  0.00     0.001 A 
HETATM    9  C7  UNL     1      22.923   5.948  51.215  1.00  0.00     0.002 A 
HETATM   10  C8  UNL     1      23.535   4.893  51.908  1.00  0.00     0.031 A 
HETATM   11  C9  UNL     1      22.964   3.707  52.383  1.00  0.00     0.053 A 
HETATM   12  N2  UNL     1      24.057   2.944  53.013  1.00  0.00    -0.317 N 
HETATM   13  N3  UNL     1      25.260   2.427  52.541  1.00  0.00    -0.214 NA
HETATM   14  C10 UNL     1      24.933   2.272  51.055  1.00  0.00     0.154 C 
HETATM   15  C11 UNL     1      23.656   1.490  51.336  1.00  0.00    -0.032 C 
HETATM   16  C12 UNL     1      22.410   1.449  50.816  1.00  0.00     0.038 C 
HETATM   17  C13 UNL     1      24.009   0.645  52.519  1.00  0.00    -0.012 A 
HETATM   18  C14 UNL     1      23.550  -0.238  53.459  1.00  0.00     0.041 A 
HETATM   19  C15 UNL     1      24.632  -0.443  54.388  1.00  0.00     0.015 A 
HETATM   20  C16 UNL     1      25.695   0.316  53.966  1.00  0.00     0.000 A 
HETATM   21  C17 UNL     1      25.469   1.048  52.778  1.00  0.00     0.137 A 
HETATM   22  H1  UNL     1      20.033   0.232  52.869  1.00  0.00     0.169 HD
HETATM   23  H7  UNL     1      23.396   3.115  53.785  1.00  0.00     0.181 HD
ENDROOT
TORSDOF 0
ENDMDL
MODEL 8
REMARK VINA RESULT:      -7.5      2.191      4.014
REMARK  0 active torsions:
REMARK  status: ('A' for Active; 'I' for Inactive)
ROOT
HETATM    1  O1  UNL     1      20.237   0.264  51.034  1.00  0.00    -0.267 OA
HETATM    2  C1  UNL     1      21.400   0.540  51.309  1.00  0.00     0.256 C 
HETATM    3  N1  UNL     1      22.160   0.101  52.543  1.00  0.00    -0.323 N 
HETATM    4  C2  UNL     1      23.340   0.890  52.815  1.00  0.00     0.036 C 
HETATM    5  C3  UNL     1      24.377   0.084  52.825  1.00  0.00     0.043 C 
HETATM    6  C4  UNL     1      25.572   0.831  53.039  1.00  0.00    -0.006 A 
HETATM    7  C5  UNL     1      26.364   0.743  54.101  1.00  0.00     0.014 A 
HETATM    8  C6  UNL     1      27.531   1.464  54.059  1.00  0.00     0.001 A 
HETATM    9  C7  UNL     1      27.854   2.232  52.968  1.00  0.00     0.002 A 
HETATM   10  C8  UNL     1      26.921   2.226  51.921  1.00  0.00     0.031 A 
HETATM   11  C9  UNL     1      25.702   1.546  51.836  1.00  0.00     0.053 A 
HETATM   12  N2  UNL     1      25.115   1.908  50.533  1.00  0.00    -0.317 N 
HETATM   13  N3  UNL     1      24.725   3.116  49.961  1.00  0.00    -0.214 NA
HETATM   14  C10 UNL     1      24.451   3.944  51.217  1.00  0.00     0.154 C 
HETATM   15  C11 UNL     1      23.534   2.883  51.813  1.00  0.00    -0.032 C 
HETATM   16  C12 UNL     1      23.311   2.374  53.044  1.00  0.00     0.038 C 
HETATM   17  C13 UNL     1      22.804   2.336  50.627  1.00  0.00    -0.012 A 
HETATM   18  C14 UNL     1      21.923   1.392  50.174  1.00  0.00     0.041 A 
HETATM   19  C15 UNL     1      21.904   1.508  48.738  1.00  0.00     0.015 A 
HETATM   20  C16 UNL     1      22.763   2.519  48.389  1.00  0.00     0.000 A 
HETATM   21  C17 UNL     1      23.398   3.163  49.475  1.00  0.00     0.137 A 
HETATM   22  H1  UNL     1      21.923  -0.694  53.104  1.00  0.00     0.169 HD
HETATM   23  H7  UNL     1      25.244   0.888  50.472  1.00  0.00     0.181 HD
ENDROOT
TORSDOF 0
ENDMDL
MODEL 9
REMARK VINA RESULT:      -7.5      9.246     11.552
REMARK  0 active torsions:
REMARK  status: ('A' for Active; 'I' for Inactive)
ROOT
HETATM    1  O1  UNL     1      29.803   9.196  49.449  1.00  0.00    -0.267 OA
HETATM    2  C1  UNL     1      30.499   8.339  48.916  1.00  0.00     0.256 C 
HETATM    3  N1  UNL     1      30.260   6.843  48.943  1.00  0.00    -0.323 N 
HETATM    4  C2  UNL     1      31.425   6.058  48.604  1.00  0.00     0.036 C 
HETATM    5  C3  UNL     1      31.129   5.315  47.563  1.00  0.00     0.043 C 
HETATM    6  C4  UNL     1      32.270   4.560  47.162  1.00  0.00    -0.006 A 
HETATM    7  C5  UNL     1      32.382   3.238  47.207  1.00  0.00     0.014 A 
HETATM    8  C6  UNL     1      33.521   2.699  46.664  1.00  0.00     0.001 A 
HETATM    9  C7  UNL     1      34.488   3.495  46.103  1.00  0.00     0.002 A 
HETATM   10  C8  UNL     1      34.231   4.874  46.127  1.00  0.00     0.031 A 
HETATM   11  C9  UNL     1      33.123   5.551  46.648  1.00  0.00     0.053 A 
HETATM   12  N2  UNL     1      33.374   6.987  46.429  1.00  0.00    -0.317 N 
HETATM   13  N3  UNL     1      34.374   7.860  46.851  1.00  0.00    -0.214 NA
HETATM   14  C10 UNL     1      34.843   7.152  48.122  1.00  0.00     0.154 C 
HETATM   15  C11 UNL     1      33.430   7.052  48.683  1.00  0.00    -0.032 C 
HETATM   16  C12 UNL     1      32.720   6.125  49.363  1.00  0.00     0.038 C 
HETATM   17  C13 UNL     1      32.788   8.337  48.264  1.00  0.00    -0.012 A 
HETATM   18  C14 UNL     1      31.631   9.066  48.224  1.00  0.00     0.041 A 
HETATM   19  C15 UNL     1      31.913  10.236  47.432  1.00  0.00     0.015 A 
HETATM   20  C16 UNL     1      33.225  10.166  47.037  1.00  0.00     0.000 A 
HETATM   21  C17 UNL     1      33.929   9.032  47.503  1.00  0.00     0.137 A 
HETATM   22  H1  UNL     1      29.373   6.412  49.118  1.00  0.00     0.169 HD
HETATM   23  H7  UNL     1      32.517   6.800  45.889  1.00  0.00     0.181 HD
ENDROOT
TORSDOF 0
ENDMDL
