MODEL 1
REMARK VINA RESULT:      -7.1      0.000      0.000
REMARK  7 active torsions:
REMARK  status: ('A' for Active; 'I' for Inactive)
REMARK    1  A    between atoms: O1_2  and  C2_3 
REMARK    2  A    between atoms: C2_3  and  O2_4 
REMARK    3  A    between atoms: C2_3  and  C3_5 
REMARK    4  A    between atoms: C3_5  and  O3_6 
REMARK    5  A    between atoms: C3_5  and  C5_8 
REMARK    6  A    between atoms: C8_11  and  N1_12 
REMARK    7  A    between atoms: N1_12  and  C9_13 
ROOT
HETATM    1  C5  UNL     1      26.266   1.058  53.431  1.00  0.00    -0.025 A 
HETATM    2  C6  UNL     1      25.413   2.139  53.492  1.00  0.00     0.012 A 
HETATM    3  C7  UNL     1      25.040   2.878  52.392  1.00  0.00     0.030 A 
HETATM    4  C8  UNL     1      25.528   2.546  51.124  1.00  0.00     0.033 A 
HETATM    5  C14 UNL     1      26.375   1.462  51.095  1.00  0.00     0.030 A 
HETATM    6  C15 UNL     1      26.755   0.716  52.189  1.00  0.00     0.012 A 
ENDROOT
BRANCH   4   7
HETATM    7  N1  UNL     1      25.166   3.282  49.966  1.00  0.00    -0.341 N 
HETATM    8  H12 UNL     1      24.325   2.890  49.444  1.00  0.00     0.167 HD
BRANCH   7   9
HETATM    9  C9  UNL     1      25.761   4.450  49.420  1.00  0.00     0.131 A 
HETATM   10  C10 UNL     1      27.087   4.420  49.061  1.00  0.00     0.077 A 
HETATM   11  C11 UNL     1      27.747   5.499  48.527  1.00  0.00     0.035 A 
HETATM   12  C12 UNL     1      29.164   5.429  48.156  1.00  0.00     0.070 C 
HETATM   13  N2  UNL     1      27.044   6.621  48.356  1.00  0.00    -0.247 NA
HETATM   14  C13 UNL     1      25.744   6.718  48.686  1.00  0.00     0.235 A 
HETATM   15  N3  UNL     1      25.182   5.619  49.199  1.00  0.00    -0.224 NA
ENDBRANCH   7   9
ENDBRANCH   4   7
BRANCH   1  16
HETATM   16  C3  UNL     1      26.575   0.359  54.703  1.00  0.00     0.208 C 
BRANCH  16  17
HETATM   17  C2  UNL     1      28.067   0.198  54.922  1.00  0.00     0.289 C 
BRANCH  17  18
HETATM   18  O1  UNL     1      28.490  -0.907  54.203  1.00  0.00    -0.363 OA
HETATM   19  C1  UNL     1      29.807  -0.692  53.762  1.00  0.00     0.204 C 
ENDBRANCH  17  18
BRANCH  17  20
HETATM   20  O2  UNL     1      28.788   1.343  54.666  1.00  0.00    -0.368 OA
HETATM   21  H5  UNL     1      28.799   1.569  53.721  1.00  0.00     0.212 HD
ENDBRANCH  17  20
ENDBRANCH  16  17
BRANCH  16  22
HETATM   22  O3  UNL     1      26.018  -0.937  54.603  1.00  0.00    -0.381 OA
HETATM   23  C4  UNL     1      24.842  -1.056  55.305  1.00  0.00     0.202 C 
ENDBRANCH  16  22
ENDBRANCH   1  16
TORSDOF 7
ENDMDL
MODEL 2
REMARK VINA RESULT:      -7.0      1.398      2.187
REMARK  7 active torsions:
REMARK  status: ('A' for Active; 'I' for Inactive)
REMARK    1  A    between atoms: O1_2  and  C2_3 
REMARK    2  A    between atoms: C2_3  and  O2_4 
REMARK    3  A    between atoms: C2_3  and  C3_5 
REMARK    4  A    between atoms: C3_5  and  O3_6 
REMARK    5  A    between atoms: C3_5  and  C5_8 
REMARK    6  A    between atoms: C8_11  and  N1_12 
REMARK    7  A    between atoms: N1_12  and  C9_13 
ROOT
HETATM    1  C5  UNL     1      25.698   0.694  52.486  1.00  0.00    -0.025 A 
HETATM    2  C6  UNL     1      26.729   1.291  51.794  1.00  0.00     0.012 A 
HETATM    3  C7  UNL     1      26.547   2.303  50.877  1.00  0.00     0.030 A 
HETATM    4  C8  UNL     1      25.262   2.781  50.605  1.00  0.00     0.033 A 
HETATM    5  C14 UNL     1      24.253   2.165  51.312  1.00  0.00     0.030 A 
HETATM    6  C15 UNL     1      24.424   1.153  52.230  1.00  0.00     0.012 A 
ENDROOT
BRANCH   4   7
HETATM    7  N1  UNL     1      25.032   3.822  49.669  1.00  0.00    -0.341 N 
HETATM    8  H12 UNL     1      24.320   3.583  48.915  1.00  0.00     0.167 HD
BRANCH   7   9
HETATM    9  C9  UNL     1      25.611   5.117  49.604  1.00  0.00     0.131 A 
HETATM   10  C10 UNL     1      26.702   5.322  48.794  1.00  0.00     0.077 A 
HETATM   11  C11 UNL     1      27.328   6.537  48.668  1.00  0.00     0.035 A 
HETATM   12  C12 UNL     1      28.491   6.718  47.792  1.00  0.00     0.070 C 
HETATM   13  N2  UNL     1      26.834   7.555  49.377  1.00  0.00    -0.247 NA
HETATM   14  C13 UNL     1      25.770   7.423  50.189  1.00  0.00     0.235 A 
HETATM   15  N3  UNL     1      25.224   6.205  50.250  1.00  0.00    -0.224 NA
ENDBRANCH   7   9
ENDBRANCH   4   7
BRANCH   1  16
HETATM   16  C3  UNL     1      26.051  -0.384  53.442  1.00  0.00     0.208 C 
BRANCH  16  17
HETATM   17  C2  UNL     1      26.305   0.148  54.840  1.00  0.00     0.289 C 
BRANCH  17  18
HETATM   18  O1  UNL     1      25.844  -0.790  55.747  1.00  0.00    -0.363 OA
HETATM   19  C1  UNL     1      24.534  -1.161  55.400  1.00  0.00     0.204 C 
ENDBRANCH  17  18
BRANCH  17  20
HETATM   20  O2  UNL     1      27.608   0.539  55.051  1.00  0.00    -0.368 OA
HETATM   21  H5  UNL     1      27.775   0.787  55.974  1.00  0.00     0.212 HD
ENDBRANCH  17  20
ENDBRANCH  16  17
BRANCH  16  22
HETATM   22  O3  UNL     1      27.257  -0.961  52.981  1.00  0.00    -0.381 OA
HETATM   23  C4  UNL     1      27.078  -2.238  52.505  1.00  0.00     0.202 C 
ENDBRANCH  16  22
ENDBRANCH   1  16
TORSDOF 7
ENDMDL
MODEL 3
REMARK VINA RESULT:      -6.8      1.199      1.761
REMARK  7 active torsions:
REMARK  status: ('A' for Active; 'I' for Inactive)
REMARK    1  A    between atoms: O1_2  and  C2_3 
REMARK    2  A    between atoms: C2_3  and  O2_4 
REMARK    3  A    between atoms: C2_3  and  C3_5 
REMARK    4  A    between atoms: C3_5  and  O3_6 
REMARK    5  A    between atoms: C3_5  and  C5_8 
REMARK    6  A    between atoms: C8_11  and  N1_12 
REMARK    7  A    between atoms: N1_12  and  C9_13 
ROOT
HETATM    1  C5  UNL     1      25.501   1.238  52.653  1.00  0.00    -0.025 A 
HETATM    2  C6  UNL     1      26.529   1.336  51.741  1.00  0.00     0.012 A 
HETATM    3  C7  UNL     1      26.536   2.227  50.692  1.00  0.00     0.030 A 
HETATM    4  C8  UNL     1      25.461   3.102  50.506  1.00  0.00     0.033 A 
HETATM    5  C14 UNL     1      24.450   2.982  51.433  1.00  0.00     0.030 A 
HETATM    6  C15 UNL     1      24.433   2.094  52.485  1.00  0.00     0.012 A 
ENDROOT
BRANCH   4   7
HETATM    7  N1  UNL     1      25.431   4.036  49.438  1.00  0.00    -0.341 N 
HETATM    8  H12 UNL     1      24.629   3.893  48.754  1.00  0.00     0.167 HD
BRANCH   7   9
HETATM    9  C9  UNL     1      26.309   5.118  49.165  1.00  0.00     0.131 A 
HETATM   10  C10 UNL     1      27.570   4.852  48.688  1.00  0.00     0.077 A 
HETATM   11  C11 UNL     1      28.487   5.832  48.396  1.00  0.00     0.035 A 
HETATM   12  C12 UNL     1      29.824   5.509  47.888  1.00  0.00     0.070 C 
HETATM   13  N2  UNL     1      28.111   7.098  48.593  1.00  0.00    -0.247 NA
HETATM   14  C13 UNL     1      26.893   7.427  49.058  1.00  0.00     0.235 A 
HETATM   15  N3  UNL     1      26.065   6.409  49.315  1.00  0.00    -0.224 NA
ENDBRANCH   7   9
ENDBRANCH   4   7
BRANCH   1  16
HETATM   16  C3  UNL     1      25.636   0.228  53.731  1.00  0.00     0.208 C 
BRANCH  16  17
HETATM   17  C2  UNL     1      26.966  -0.500  53.673  1.00  0.00     0.289 C 
BRANCH  17  18
HETATM   18  O1  UNL     1      27.577  -0.378  54.908  1.00  0.00    -0.363 OA
HETATM   19  C1  UNL     1      28.673   0.495  54.795  1.00  0.00     0.204 C 
ENDBRANCH  17  18
BRANCH  17  20
HETATM   20  O2  UNL     1      26.863  -1.797  53.224  1.00  0.00    -0.368 OA
HETATM   21  H5  UNL     1      26.022  -2.211  53.479  1.00  0.00     0.212 HD
ENDBRANCH  17  20
ENDBRANCH  16  17
BRANCH  16  22
HETATM   22  O3  UNL     1      24.618  -0.730  53.524  1.00  0.00    -0.381 OA
HETATM   23  C4  UNL     1      23.782  -0.848  54.609  1.00  0.00     0.202 C 
ENDBRANCH  16  22
ENDBRANCH   1  16
TORSDOF 7
ENDMDL
MODEL 4
REMARK VINA RESULT:      -6.7      5.146      7.299
REMARK  7 active torsions:
REMARK  status: ('A' for Active; 'I' for Inactive)
REMARK    1  A    between atoms: O1_2  and  C2_3 
REMARK    2  A    between atoms: C2_3  and  O2_4 
REMARK    3  A    between atoms: C2_3  and  C3_5 
REMARK    4  A    between atoms: C3_5  and  O3_6 
REMARK    5  A    between atoms: C3_5  and  C5_8 
REMARK    6  A    between atoms: C8_11  and  N1_12 
REMARK    7  A    between atoms: N1_12  and  C9_13 
ROOT
HETATM    1  C5  UNL     1      24.329   0.025  53.562  1.00  0.00    -0.025 A 
HETATM    2  C6  UNL     1      23.412   0.855  52.953  1.00  0.00     0.012 A 
HETATM    3  C7  UNL     1      22.054   0.782  53.172  1.00  0.00     0.030 A 
HETATM    4  C8  UNL     1      21.536  -0.171  54.054  1.00  0.00     0.033 A 
HETATM    5  C14 UNL     1      22.476  -0.984  54.647  1.00  0.00     0.030 A 
HETATM    6  C15 UNL     1      23.834  -0.920  54.435  1.00  0.00     0.012 A 
ENDROOT
BRANCH   4   7
HETATM    7  N1  UNL     1      20.143  -0.278  54.308  1.00  0.00    -0.341 N 
HETATM    8  H12 UNL     1      19.870  -0.116  55.324  1.00  0.00     0.167 HD
BRANCH   7   9
HETATM    9  C9  UNL     1      19.085  -0.564  53.407  1.00  0.00     0.131 A 
HETATM   10  C10 UNL     1      19.022   0.111  52.212  1.00  0.00     0.077 A 
HETATM   11  C11 UNL     1      18.036  -0.098  51.280  1.00  0.00     0.035 A 
HETATM   12  C12 UNL     1      18.002   0.643  50.015  1.00  0.00     0.070 C 
HETATM   13  N2  UNL     1      17.103  -1.009  51.571  1.00  0.00    -0.247 NA
HETATM   14  C13 UNL     1      17.106  -1.704  52.722  1.00  0.00     0.235 A 
HETATM   15  N3  UNL     1      18.103  -1.436  53.571  1.00  0.00    -0.224 NA
ENDBRANCH   7   9
ENDBRANCH   4   7
BRANCH   1  16
HETATM   16  C3  UNL     1      25.760   0.225  53.226  1.00  0.00     0.208 C 
BRANCH  16  17
HETATM   17  C2  UNL     1      26.669  -0.014  54.416  1.00  0.00     0.289 C 
BRANCH  17  18
HETATM   18  O1  UNL     1      27.729  -0.799  53.997  1.00  0.00    -0.363 OA
HETATM   19  C1  UNL     1      28.935  -0.162  54.336  1.00  0.00     0.204 C 
ENDBRANCH  17  18
BRANCH  17  20
HETATM   20  O2  UNL     1      27.048   1.143  55.060  1.00  0.00    -0.368 OA
HETATM   21  H5  UNL     1      26.287   1.662  55.366  1.00  0.00     0.212 HD
ENDBRANCH  17  20
ENDBRANCH  16  17
BRANCH  16  22
HETATM   22  O3  UNL     1      25.905   1.580  52.846  1.00  0.00    -0.381 OA
HETATM   23  C4  UNL     1      26.639   1.724  51.692  1.00  0.00     0.202 C 
ENDBRANCH  16  22
ENDBRANCH   1  16
TORSDOF 7
ENDMDL
MODEL 5
REMARK VINA RESULT:      -6.6      4.392      8.113
REMARK  7 active torsions:
REMARK  status: ('A' for Active; 'I' for Inactive)
REMARK    1  A    between atoms: O1_2  and  C2_3 
REMARK    2  A    between atoms: C2_3  and  O2_4 
REMARK    3  A    between atoms: C2_3  and  C3_5 
REMARK    4  A    between atoms: C3_5  and  O3_6 
REMARK    5  A    between atoms: C3_5  and  C5_8 
REMARK    6  A    between atoms: C8_11  and  N1_12 
REMARK    7  A    between atoms: N1_12  and  C9_13 
ROOT
HETATM    1  C5  UNL     1      26.603   7.438  49.212  1.00  0.00    -0.025 A 
HETATM    2  C6  UNL     1      27.385   6.472  48.615  1.00  0.00     0.012 A 
HETATM    3  C7  UNL     1      27.194   5.121  48.791  1.00  0.00     0.030 A 
HETATM    4  C8  UNL     1      26.158   4.658  49.609  1.00  0.00     0.033 A 
HETATM    5  C14 UNL     1      25.394   5.645  50.190  1.00  0.00     0.030 A 
HETATM    6  C15 UNL     1      25.577   6.999  50.021  1.00  0.00     0.012 A 
ENDROOT
BRANCH   4   7
HETATM    7  N1  UNL     1      25.927   3.273  49.814  1.00  0.00    -0.341 N 
HETATM    8  H12 UNL     1      25.554   2.761  48.960  1.00  0.00     0.167 HD
BRANCH   7   9
HETATM    9  C9  UNL     1      26.124   2.492  50.983  1.00  0.00     0.131 A 
HETATM   10  C10 UNL     1      25.079   1.748  51.475  1.00  0.00     0.077 A 
HETATM   11  C11 UNL     1      25.175   0.965  52.599  1.00  0.00     0.035 A 
HETATM   12  C12 UNL     1      24.036   0.184  53.094  1.00  0.00     0.070 C 
HETATM   13  N2  UNL     1      26.353   0.940  53.227  1.00  0.00    -0.247 NA
HETATM   14  C13 UNL     1      27.416   1.644  52.799  1.00  0.00     0.235 A 
HETATM   15  N3  UNL     1      27.232   2.379  51.698  1.00  0.00    -0.224 NA
ENDBRANCH   7   9
ENDBRANCH   4   7
BRANCH   1  16
HETATM   16  C3  UNL     1      26.931   8.856  48.926  1.00  0.00     0.208 C 
BRANCH  16  17
HETATM   17  C2  UNL     1      28.040   9.381  49.819  1.00  0.00     0.289 C 
BRANCH  17  18
HETATM   18  O1  UNL     1      28.659  10.431  49.164  1.00  0.00    -0.363 OA
HETATM   19  C1  UNL     1      30.041  10.187  49.109  1.00  0.00     0.204 C 
ENDBRANCH  17  18
BRANCH  17  20
HETATM   20  O2  UNL     1      27.621   9.684  51.095  1.00  0.00    -0.368 OA
HETATM   21  H5  UNL     1      27.443  10.632  51.210  1.00  0.00     0.212 HD
ENDBRANCH  17  20
ENDBRANCH  16  17
BRANCH  16  22
HETATM   22  O3  UNL     1      25.768   9.610  49.207  1.00  0.00    -0.381 OA
HETATM   23  C4  UNL     1      25.266  10.233  48.088  1.00  0.00     0.202 C 
ENDBRANCH  16  22
ENDBRANCH   1  16
TORSDOF 7
ENDMDL
MODEL 6
REMARK VINA RESULT:      -6.6      4.047      7.433
REMARK  7 active torsions:
REMARK  status: ('A' for Active; 'I' for Inactive)
REMARK    1  A    between atoms: O1_2  and  C2_3 
REMARK    2  A    between atoms: C2_3  and  O2_4 
REMARK    3  A    between atoms: C2_3  and  C3_5 
REMARK    4  A    between atoms: C3_5  and  O3_6 
REMARK    5  A    between atoms: C3_5  and  C5_8 
REMARK    6  A    between atoms: C8_11  and  N1_12 
REMARK    7  A    between atoms: N1_12  and  C9_13 
ROOT
HETATM    1  C5  UNL     1      25.413   5.043  50.082  1.00  0.00    -0.025 A 
HETATM    2  C6  UNL     1      26.344   4.122  49.651  1.00  0.00     0.012 A 
HETATM    3  C7  UNL     1      26.432   2.840  50.145  1.00  0.00     0.030 A 
HETATM    4  C8  UNL     1      25.547   2.406  51.137  1.00  0.00     0.033 A 
HETATM    5  C14 UNL     1      24.629   3.348  51.546  1.00  0.00     0.030 A 
HETATM    6  C15 UNL     1      24.533   4.632  51.060  1.00  0.00     0.012 A 
ENDROOT
BRANCH   4   7
HETATM    7  N1  UNL     1      25.604   1.092  51.670  1.00  0.00    -0.341 N 
HETATM    8  H12 UNL     1      25.036   0.375  51.127  1.00  0.00     0.167 HD
BRANCH   7   9
HETATM    9  C9  UNL     1      26.305   0.614  52.807  1.00  0.00     0.131 A 
HETATM   10  C10 UNL     1      27.555   0.067  52.642  1.00  0.00     0.077 A 
HETATM   11  C11 UNL     1      28.306  -0.422  53.682  1.00  0.00     0.035 A 
HETATM   12  C12 UNL     1      29.638  -0.999  53.466  1.00  0.00     0.070 C 
HETATM   13  N2  UNL     1      27.775  -0.351  54.905  1.00  0.00    -0.247 NA
HETATM   14  C13 UNL     1      26.558   0.171  55.137  1.00  0.00     0.235 A 
HETATM   15  N3  UNL     1      25.898   0.624  54.066  1.00  0.00    -0.224 NA
ENDBRANCH   7   9
ENDBRANCH   4   7
BRANCH   1  16
HETATM   16  C3  UNL     1      25.441   6.388  49.456  1.00  0.00     0.208 C 
BRANCH  16  17
HETATM   17  C2  UNL     1      26.740   6.651  48.718  1.00  0.00     0.289 C 
BRANCH  17  18
HETATM   18  O1  UNL     1      26.439   7.310  47.539  1.00  0.00    -0.363 OA
HETATM   19  C1  UNL     1      27.267   8.439  47.418  1.00  0.00     0.204 C 
ENDBRANCH  17  18
BRANCH  17  20
HETATM   20  O2  UNL     1      27.691   7.284  49.487  1.00  0.00    -0.368 OA
HETATM   21  H5  UNL     1      27.910   8.168  49.150  1.00  0.00     0.212 HD
ENDBRANCH  17  20
ENDBRANCH  16  17
BRANCH  16  22
HETATM   22  O3  UNL     1      25.350   7.330  50.505  1.00  0.00    -0.381 OA
HETATM   23  C4  UNL     1      24.306   8.208  50.331  1.00  0.00     0.202 C 
ENDBRANCH  16  22
ENDBRANCH   1  16
TORSDOF 7
ENDMDL
MODEL 7
REMARK VINA RESULT:      -6.4      4.341      7.915
REMARK  7 active torsions:
REMARK  status: ('A' for Active; 'I' for Inactive)
REMARK    1  A    between atoms: O1_2  and  C2_3 
REMARK    2  A    between atoms: C2_3  and  O2_4 
REMARK    3  A    between atoms: C2_3  and  C3_5 
REMARK    4  A    between atoms: C3_5  and  O3_6 
REMARK    5  A    between atoms: C3_5  and  C5_8 
REMARK    6  A    between atoms: C8_11  and  N1_12 
REMARK    7  A    between atoms: N1_12  and  C9_13 
ROOT
HETATM    1  C5  UNL     1      26.865   7.383  49.034  1.00  0.00    -0.025 A 
HETATM    2  C6  UNL     1      25.801   6.981  49.811  1.00  0.00     0.012 A 
HETATM    3  C7  UNL     1      25.465   5.662  50.021  1.00  0.00     0.030 A 
HETATM    4  C8  UNL     1      26.221   4.643  49.433  1.00  0.00     0.033 A 
HETATM    5  C14 UNL     1      27.277   5.076  48.664  1.00  0.00     0.030 A 
HETATM    6  C15 UNL     1      27.621   6.391  48.447  1.00  0.00     0.012 A 
ENDROOT
BRANCH   4   7
HETATM    7  N1  UNL     1      25.908   3.272  49.626  1.00  0.00    -0.341 N 
HETATM    8  H12 UNL     1      25.769   2.724  48.725  1.00  0.00     0.167 HD
BRANCH   7   9
HETATM    9  C9  UNL     1      25.760   2.546  50.837  1.00  0.00     0.131 A 
HETATM   10  C10 UNL     1      26.872   2.281  51.599  1.00  0.00     0.077 A 
HETATM   11  C11 UNL     1      26.826   1.586  52.782  1.00  0.00     0.035 A 
HETATM   12  C12 UNL     1      28.036   1.323  53.569  1.00  0.00     0.070 C 
HETATM   13  N2  UNL     1      25.630   1.156  53.192  1.00  0.00    -0.247 NA
HETATM   14  C13 UNL     1      24.502   1.380  52.494  1.00  0.00     0.235 A 
HETATM   15  N3  UNL     1      24.641   2.066  51.355  1.00  0.00    -0.224 NA
ENDBRANCH   7   9
ENDBRANCH   4   7
BRANCH   1  16
HETATM   16  C3  UNL     1      27.103   8.841  48.901  1.00  0.00     0.208 C 
BRANCH  16  17
HETATM   17  C2  UNL     1      28.156   9.343  49.871  1.00  0.00     0.289 C 
BRANCH  17  18
HETATM   18  O1  UNL     1      28.841  10.381  49.263  1.00  0.00    -0.363 OA
HETATM   19  C1  UNL     1      29.359   9.933  48.036  1.00  0.00     0.204 C 
ENDBRANCH  17  18
BRANCH  17  20
HETATM   20  O2  UNL     1      27.654   9.654  51.115  1.00  0.00    -0.368 OA
HETATM   21  H5  UNL     1      27.158   8.919  51.508  1.00  0.00     0.212 HD
ENDBRANCH  17  20
ENDBRANCH  16  17
BRANCH  16  22
HETATM   22  O3  UNL     1      25.886   9.485  49.226  1.00  0.00    -0.381 OA
HETATM   23  C4  UNL     1      25.502  10.391  48.266  1.00  0.00     0.202 C 
ENDBRANCH  16  22
ENDBRANCH   1  16
TORSDOF 7
ENDMDL
MODEL 8
REMARK VINA RESULT:      -6.4      4.490      8.270
REMARK  7 active torsions:
REMARK  status: ('A' for Active; 'I' for Inactive)
REMARK    1  A    between atoms: O1_2  and  C2_3 
REMARK    2  A    between atoms: C2_3  and  O2_4 
REMARK    3  A    between atoms: C2_3  and  C3_5 
REMARK    4  A    between atoms: C3_5  and  O3_6 
REMARK    5  A    between atoms: C3_5  and  C5_8 
REMARK    6  A    between atoms: C8_11  and  N1_12 
REMARK    7  A    between atoms: N1_12  and  C9_13 
ROOT
HETATM    1  C5  UNL     1      27.876   7.227  48.361  1.00  0.00    -0.025 A 
HETATM    2  C6  UNL     1      28.565   6.042  48.219  1.00  0.00     0.012 A 
HETATM    3  C7  UNL     1      28.046   4.813  48.558  1.00  0.00     0.030 A 
HETATM    4  C8  UNL     1      26.750   4.716  49.075  1.00  0.00     0.033 A 
HETATM    5  C14 UNL     1      26.087   5.916  49.204  1.00  0.00     0.030 A 
HETATM    6  C15 UNL     1      26.597   7.150  48.869  1.00  0.00     0.012 A 
ENDROOT
BRANCH   4   7
HETATM    7  N1  UNL     1      26.178   3.468  49.435  1.00  0.00    -0.341 N 
HETATM    8  H12 UNL     1      25.675   2.972  48.639  1.00  0.00     0.167 HD
BRANCH   7   9
HETATM    9  C9  UNL     1      26.188   2.803  50.689  1.00  0.00     0.131 A 
HETATM   10  C10 UNL     1      25.021   2.254  51.164  1.00  0.00     0.077 A 
HETATM   11  C11 UNL     1      24.934   1.594  52.365  1.00  0.00     0.035 A 
HETATM   12  C12 UNL     1      23.669   1.021  52.839  1.00  0.00     0.070 C 
HETATM   13  N2  UNL     1      26.052   1.492  53.088  1.00  0.00    -0.247 NA
HETATM   14  C13 UNL     1      27.226   2.006  52.682  1.00  0.00     0.235 A 
HETATM   15  N3  UNL     1      27.218   2.632  51.501  1.00  0.00    -0.224 NA
ENDBRANCH   7   9
ENDBRANCH   4   7
BRANCH   1  16
HETATM   16  C3  UNL     1      28.569   8.473  47.951  1.00  0.00     0.208 C 
BRANCH  16  17
HETATM   17  C2  UNL     1      29.670   8.863  48.919  1.00  0.00     0.289 C 
BRANCH  17  18
HETATM   18  O1  UNL     1      30.570   9.669  48.242  1.00  0.00    -0.363 OA
HETATM   19  C1  UNL     1      31.032   8.987  47.103  1.00  0.00     0.204 C 
ENDBRANCH  17  18
BRANCH  17  20
HETATM   20  O2  UNL     1      29.204   9.408  50.094  1.00  0.00    -0.368 OA
HETATM   21  H5  UNL     1      28.669   8.779  50.605  1.00  0.00     0.212 HD
ENDBRANCH  17  20
ENDBRANCH  16  17
BRANCH  16  22
HETATM   22  O3  UNL     1      27.601   9.504  47.972  1.00  0.00    -0.381 OA
HETATM   23  C4  UNL     1      27.416  10.072  46.734  1.00  0.00     0.202 C 
ENDBRANCH  16  22
ENDBRANCH   1  16
TORSDOF 7
ENDMDL
MODEL 9
REMARK VINA RESULT:      -6.4      4.585      6.752
REMARK  7 active torsions:
REMARK  status: ('A' for Active; 'I' for Inactive)
REMARK    1  A    between atoms: O1_2  and  C2_3 
REMARK    2  A    between atoms: C2_3  and  O2_4 
REMARK    3  A    between atoms: C2_3  and  C3_5 
REMARK    4  A    between atoms: C3_5  and  O3_6 
REMARK    5  A    between atoms: C3_5  and  C5_8 
REMARK    6  A    between atoms: C8_11  and  N1_12 
REMARK    7  A    between atoms: N1_12  and  C9_13 
ROOT
HETATM    1  C5  UNL     1      25.768   5.590  49.555  1.00  0.00    -0.025 A 
HETATM    2  C6  UNL     1      26.153   6.862  49.189  1.00  0.00     0.012 A 
HETATM    3  C7  UNL     1      27.334   7.144  48.540  1.00  0.00     0.030 A 
HETATM    4  C8  UNL     1      28.220   6.112  48.213  1.00  0.00     0.033 A 
HETATM    5  C14 UNL     1      27.807   4.853  48.590  1.00  0.00     0.030 A 
HETATM    6  C15 UNL     1      26.629   4.561  49.240  1.00  0.00     0.012 A 
ENDROOT
BRANCH   4   7
HETATM    7  N1  UNL     1      29.446   6.361  47.544  1.00  0.00    -0.341 N 
HETATM    8  H12 UNL     1      29.350   6.939  46.656  1.00  0.00     0.167 HD
BRANCH   7   9
HETATM    9  C9  UNL     1      30.760   5.953  47.893  1.00  0.00     0.131 A 
HETATM   10  C10 UNL     1      31.211   4.723  47.478  1.00  0.00     0.077 A 
HETATM   11  C11 UNL     1      32.464   4.244  47.768  1.00  0.00     0.035 A 
HETATM   12  C12 UNL     1      32.910   2.924  47.308  1.00  0.00     0.070 C 
HETATM   13  N2  UNL     1      33.267   5.030  48.489  1.00  0.00    -0.247 NA
HETATM   14  C13 UNL     1      32.889   6.244  48.927  1.00  0.00     0.235 A 
HETATM   15  N3  UNL     1      31.652   6.630  48.597  1.00  0.00    -0.224 NA
ENDBRANCH   7   9
ENDBRANCH   4   7
BRANCH   1  16
HETATM   16  C3  UNL     1      24.465   5.443  50.248  1.00  0.00     0.208 C 
BRANCH  16  17
HETATM   17  C2  UNL     1      24.089   6.685  51.035  1.00  0.00     0.289 C 
BRANCH  17  18
HETATM   18  O1  UNL     1      22.747   6.942  50.816  1.00  0.00    -0.363 OA
HETATM   19  C1  UNL     1      22.623   8.086  50.008  1.00  0.00     0.204 C 
ENDBRANCH  17  18
BRANCH  17  20
HETATM   20  O2  UNL     1      24.438   6.620  52.365  1.00  0.00    -0.368 OA
HETATM   21  H5  UNL     1      23.889   5.992  52.861  1.00  0.00     0.212 HD
ENDBRANCH  17  20
ENDBRANCH  16  17
BRANCH  16  22
HETATM   22  O3  UNL     1      24.611   4.384  51.173  1.00  0.00    -0.381 OA
HETATM   23  C4  UNL     1      23.600   3.457  51.071  1.00  0.00     0.202 C 
ENDBRANCH  16  22
ENDBRANCH   1  16
TORSDOF 7
ENDMDL
