MODEL 1
REMARK VINA RESULT:      -7.8      0.000      0.000
REMARK  4 active torsions:
REMARK  status: ('A' for Active; 'I' for Inactive)
REMARK    1  A    between atoms: O1_2  and  C2_3 
REMARK    2  A    between atoms: C6_9  and  N3_10 
REMARK    3  A    between atoms: N3_10  and  C7_11 
REMARK    4  A    between atoms: C15_19  and  O2_20 
ROOT
HETATM    1  C2  UNL     1      20.687  -0.096  53.116  1.00  0.00     0.103 A 
HETATM    2  C3  UNL     1      21.096  -0.707  54.283  1.00  0.00     0.072 A 
HETATM    3  C4  UNL     1      22.445  -0.830  54.548  1.00  0.00     0.075 A 
HETATM    4  N1  UNL     1      22.880  -1.427  55.687  1.00  0.00    -0.241 NA
HETATM    5  C5  UNL     1      24.222  -1.521  55.901  1.00  0.00     0.235 A 
HETATM    6  N2  UNL     1      25.190  -1.061  55.053  1.00  0.00    -0.224 NA
HETATM    7  C6  UNL     1      24.770  -0.469  53.924  1.00  0.00     0.138 A 
HETATM    8  C13 UNL     1      23.415  -0.361  53.687  1.00  0.00     0.041 A 
HETATM    9  C14 UNL     1      22.959   0.239  52.539  1.00  0.00     0.057 A 
HETATM   10  C15 UNL     1      21.623   0.389  52.223  1.00  0.00     0.102 A 
ENDROOT
BRANCH   7  11
HETATM   11  N3  UNL     1      25.759   0.016  53.032  1.00  0.00    -0.363 N 
HETATM   12  H6  UNL     1      25.742   0.041  51.990  1.00  0.00     0.162 HD
BRANCH  11  13
HETATM   13  C7  UNL     1      26.969   0.555  53.615  1.00  0.00     0.129 C 
HETATM   14  C8  UNL     1      28.160  -0.297  53.248  1.00  0.00    -0.002 C 
HETATM   15  C9  UNL     1      29.347   0.162  53.636  1.00  0.00    -0.025 C 
HETATM   16  C10 UNL     1      29.309   1.456  54.377  1.00  0.00     0.054 C 
HETATM   17  C11 UNL     1      28.470   2.388  53.574  1.00  0.00    -0.025 C 
HETATM   18  C12 UNL     1      27.278   1.931  53.184  1.00  0.00    -0.002 C 
ENDBRANCH  11  13
ENDBRANCH   7  11
BRANCH  10  19
HETATM   19  O2  UNL     1      21.145   0.992  51.069  1.00  0.00    -0.353 OA
HETATM   20  C16 UNL     1      21.942   1.421  49.998  1.00  0.00     0.210 C 
ENDBRANCH  10  19
BRANCH   1  21
HETATM   21  O1  UNL     1      19.340   0.032  52.840  1.00  0.00    -0.353 OA
HETATM   22  C1  UNL     1      18.412  -0.988  53.067  1.00  0.00     0.210 C 
ENDBRANCH   1  21
TORSDOF 4
ENDMDL
MODEL 2
REMARK VINA RESULT:      -7.1      3.199      6.899
REMARK  4 active torsions:
REMARK  status: ('A' for Active; 'I' for Inactive)
REMARK    1  A    between atoms: O1_2  and  C2_3 
REMARK    2  A    between atoms: C6_9  and  N3_10 
REMARK    3  A    between atoms: N3_10  and  C7_11 
REMARK    4  A    between atoms: C15_19  and  O2_20 
ROOT
HETATM    1  C2  UNL     1      27.288   0.021  53.677  1.00  0.00     0.103 A 
HETATM    2  C3  UNL     1      27.620   0.848  52.624  1.00  0.00     0.072 A 
HETATM    3  C4  UNL     1      26.676   1.721  52.123  1.00  0.00     0.075 A 
HETATM    4  N1  UNL     1      26.972   2.547  51.087  1.00  0.00    -0.241 NA
HETATM    5  C5  UNL     1      26.004   3.390  50.631  1.00  0.00     0.235 A 
HETATM    6  N2  UNL     1      24.736   3.481  51.132  1.00  0.00    -0.224 NA
HETATM    7  C6  UNL     1      24.434   2.668  52.157  1.00  0.00     0.138 A 
HETATM    8  C13 UNL     1      25.399   1.806  52.636  1.00  0.00     0.041 A 
HETATM    9  C14 UNL     1      25.116   0.963  53.683  1.00  0.00     0.057 A 
HETATM   10  C15 UNL     1      26.020   0.070  54.223  1.00  0.00     0.102 A 
ENDROOT
BRANCH   7  11
HETATM   11  N3  UNL     1      23.124   2.746  52.691  1.00  0.00    -0.363 N 
HETATM   12  H6  UNL     1      22.822   3.057  53.638  1.00  0.00     0.162 HD
BRANCH  11  13
HETATM   13  C7  UNL     1      22.033   2.346  51.828  1.00  0.00     0.129 C 
HETATM   14  C8  UNL     1      22.195   0.908  51.400  1.00  0.00    -0.002 C 
HETATM   15  C9  UNL     1      21.192   0.394  50.692  1.00  0.00    -0.025 C 
HETATM   16  C10 UNL     1      20.060   1.330  50.433  1.00  0.00     0.054 C 
HETATM   17  C11 UNL     1      19.700   1.942  51.742  1.00  0.00    -0.025 C 
HETATM   18  C12 UNL     1      20.703   2.459  52.455  1.00  0.00    -0.002 C 
ENDBRANCH  11  13
ENDBRANCH   7  11
BRANCH  10  19
HETATM   19  O2  UNL     1      25.752  -0.787  55.279  1.00  0.00    -0.353 OA
HETATM   20  C16 UNL     1      24.478  -1.266  55.621  1.00  0.00     0.210 C 
ENDBRANCH  10  19
BRANCH   1  21
HETATM   21  O1  UNL     1      28.225  -0.858  54.186  1.00  0.00    -0.353 OA
HETATM   22  C1  UNL     1      29.549  -0.907  53.741  1.00  0.00     0.210 C 
ENDBRANCH   1  21
TORSDOF 4
ENDMDL
MODEL 3
REMARK VINA RESULT:      -7.1      1.935      3.547
REMARK  4 active torsions:
REMARK  status: ('A' for Active; 'I' for Inactive)
REMARK    1  A    between atoms: O1_2  and  C2_3 
REMARK    2  A    between atoms: C6_9  and  N3_10 
REMARK    3  A    between atoms: N3_10  and  C7_11 
REMARK    4  A    between atoms: C15_19  and  O2_20 
ROOT
HETATM    1  C2  UNL     1      21.190   0.476  51.921  1.00  0.00     0.103 A 
HETATM    2  C3  UNL     1      21.754   1.290  50.962  1.00  0.00     0.072 A 
HETATM    3  C4  UNL     1      23.042   1.753  51.137  1.00  0.00     0.075 A 
HETATM    4  N1  UNL     1      23.626   2.557  50.210  1.00  0.00    -0.241 NA
HETATM    5  C5  UNL     1      24.899   2.985  50.431  1.00  0.00     0.235 A 
HETATM    6  N2  UNL     1      25.659   2.674  51.524  1.00  0.00    -0.224 NA
HETATM    7  C6  UNL     1      25.091   1.879  52.445  1.00  0.00     0.138 A 
HETATM    8  C13 UNL     1      23.802   1.432  52.242  1.00  0.00     0.041 A 
HETATM    9  C14 UNL     1      23.197   0.619  53.169  1.00  0.00     0.057 A 
HETATM   10  C15 UNL     1      21.913   0.128  53.047  1.00  0.00     0.102 A 
ENDROOT
BRANCH   7  11
HETATM   11  N3  UNL     1      25.862   1.544  53.586  1.00  0.00    -0.363 N 
HETATM   12  H6  UNL     1      25.717   1.828  54.578  1.00  0.00     0.162 HD
BRANCH  11  13
HETATM   13  C7  UNL     1      27.015   0.695  53.379  1.00  0.00     0.129 C 
HETATM   14  C8  UNL     1      27.840   0.602  54.641  1.00  0.00    -0.002 C 
HETATM   15  C9  UNL     1      28.868  -0.241  54.605  1.00  0.00    -0.025 C 
HETATM   16  C10 UNL     1      29.042  -0.966  53.313  1.00  0.00     0.054 C 
HETATM   17  C11 UNL     1      27.711  -1.530  52.953  1.00  0.00    -0.025 C 
HETATM   18  C12 UNL     1      26.678  -0.686  52.986  1.00  0.00    -0.002 C 
ENDBRANCH  11  13
ENDBRANCH   7  11
BRANCH  10  19
HETATM   19  O2  UNL     1      21.287  -0.694  53.972  1.00  0.00    -0.353 OA
HETATM   20  C16 UNL     1      21.945  -1.609  54.807  1.00  0.00     0.210 C 
ENDBRANCH  10  19
BRANCH   1  21
HETATM   21  O1  UNL     1      19.901   0.007  51.757  1.00  0.00    -0.353 OA
HETATM   22  C1  UNL     1      18.910   0.715  51.073  1.00  0.00     0.210 C 
ENDBRANCH   1  21
TORSDOF 4
ENDMDL
MODEL 4
REMARK VINA RESULT:      -7.0      3.453      4.761
REMARK  4 active torsions:
REMARK  status: ('A' for Active; 'I' for Inactive)
REMARK    1  A    between atoms: O1_2  and  C2_3 
REMARK    2  A    between atoms: C6_9  and  N3_10 
REMARK    3  A    between atoms: N3_10  and  C7_11 
REMARK    4  A    between atoms: C15_19  and  O2_20 
ROOT
HETATM    1  C2  UNL     1      23.042   0.701  52.987  1.00  0.00     0.103 A 
HETATM    2  C3  UNL     1      24.205   0.812  53.721  1.00  0.00     0.072 A 
HETATM    3  C4  UNL     1      25.324   1.373  53.139  1.00  0.00     0.075 A 
HETATM    4  N1  UNL     1      26.484   1.496  53.834  1.00  0.00    -0.241 NA
HETATM    5  C5  UNL     1      27.557   2.058  53.213  1.00  0.00     0.235 A 
HETATM    6  N2  UNL     1      27.574   2.518  51.926  1.00  0.00    -0.224 NA
HETATM    7  C6  UNL     1      26.431   2.400  51.231  1.00  0.00     0.138 A 
HETATM    8  C13 UNL     1      25.330   1.835  51.839  1.00  0.00     0.041 A 
HETATM    9  C14 UNL     1      24.150   1.703  51.150  1.00  0.00     0.057 A 
HETATM   10  C15 UNL     1      23.002   1.150  51.681  1.00  0.00     0.102 A 
ENDROOT
BRANCH   7  11
HETATM   11  N3  UNL     1      26.428   2.871  49.893  1.00  0.00    -0.363 N 
HETATM   12  H6  UNL     1      26.404   2.322  49.008  1.00  0.00     0.162 HD
BRANCH  11  13
HETATM   13  C7  UNL     1      26.461   4.305  49.697  1.00  0.00     0.129 C 
HETATM   14  C8  UNL     1      27.547   4.681  48.718  1.00  0.00    -0.002 C 
HETATM   15  C9  UNL     1      27.601   5.964  48.373  1.00  0.00    -0.025 C 
HETATM   16  C10 UNL     1      26.572   6.832  49.014  1.00  0.00     0.054 C 
HETATM   17  C11 UNL     1      25.259   6.153  48.828  1.00  0.00    -0.025 C 
HETATM   18  C12 UNL     1      25.201   4.865  49.175  1.00  0.00    -0.002 C 
ENDBRANCH  11  13
ENDBRANCH   7  11
BRANCH  10  19
HETATM   19  O2  UNL     1      21.802   1.008  51.000  1.00  0.00    -0.353 OA
HETATM   20  C16 UNL     1      21.545   1.507  49.714  1.00  0.00     0.210 C 
ENDBRANCH  10  19
BRANCH   1  21
HETATM   21  O1  UNL     1      21.917   0.140  53.559  1.00  0.00    -0.353 OA
HETATM   22  C1  UNL     1      21.816  -1.216  53.879  1.00  0.00     0.210 C 
ENDBRANCH   1  21
TORSDOF 4
ENDMDL
MODEL 5
REMARK VINA RESULT:      -7.0      2.736      6.102
REMARK  4 active torsions:
REMARK  status: ('A' for Active; 'I' for Inactive)
REMARK    1  A    between atoms: O1_2  and  C2_3 
REMARK    2  A    between atoms: C6_9  and  N3_10 
REMARK    3  A    between atoms: N3_10  and  C7_11 
REMARK    4  A    between atoms: C15_19  and  O2_20 
ROOT
HETATM    1  C2  UNL     1      27.354   0.660  53.543  1.00  0.00     0.103 A 
HETATM    2  C3  UNL     1      26.823  -0.055  54.596  1.00  0.00     0.072 A 
HETATM    3  C4  UNL     1      25.489  -0.408  54.572  1.00  0.00     0.075 A 
HETATM    4  N1  UNL     1      24.936  -1.111  55.594  1.00  0.00    -0.241 NA
HETATM    5  C5  UNL     1      23.615  -1.435  55.519  1.00  0.00     0.235 A 
HETATM    6  N2  UNL     1      22.778  -1.109  54.489  1.00  0.00    -0.224 NA
HETATM    7  C6  UNL     1      23.317  -0.414  53.474  1.00  0.00     0.138 A 
HETATM    8  C13 UNL     1      24.653  -0.075  53.527  1.00  0.00     0.041 A 
HETATM    9  C14 UNL     1      25.227   0.636  52.502  1.00  0.00     0.057 A 
HETATM   10  C15 UNL     1      26.555   1.017  52.474  1.00  0.00     0.102 A 
ENDROOT
BRANCH   7  11
HETATM   11  N3  UNL     1      22.466  -0.065  52.396  1.00  0.00    -0.363 N 
HETATM   12  H6  UNL     1      22.226  -0.621  51.548  1.00  0.00     0.162 HD
BRANCH  11  13
HETATM   13  C7  UNL     1      21.827   1.232  52.449  1.00  0.00     0.129 C 
HETATM   14  C8  UNL     1      22.258   2.085  51.280  1.00  0.00    -0.002 C 
HETATM   15  C9  UNL     1      21.651   3.262  51.162  1.00  0.00    -0.025 C 
HETATM   16  C10 UNL     1      20.632   3.553  52.213  1.00  0.00     0.054 C 
HETATM   17  C11 UNL     1      19.748   2.358  52.297  1.00  0.00    -0.025 C 
HETATM   18  C12 UNL     1      20.354   1.175  52.417  1.00  0.00    -0.002 C 
ENDBRANCH  11  13
ENDBRANCH   7  11
BRANCH  10  19
HETATM   19  O2  UNL     1      27.151   1.735  51.449  1.00  0.00    -0.353 OA
HETATM   20  C16 UNL     1      26.555   2.805  50.766  1.00  0.00     0.210 C 
ENDBRANCH  10  19
BRANCH   1  21
HETATM   21  O1  UNL     1      28.688   1.020  53.557  1.00  0.00    -0.353 OA
HETATM   22  C1  UNL     1      29.730   0.091  53.621  1.00  0.00     0.210 C 
ENDBRANCH   1  21
TORSDOF 4
ENDMDL
MODEL 6
REMARK VINA RESULT:      -6.9      4.186      6.240
REMARK  4 active torsions:
REMARK  status: ('A' for Active; 'I' for Inactive)
REMARK    1  A    between atoms: O1_2  and  C2_3 
REMARK    2  A    between atoms: C6_9  and  N3_10 
REMARK    3  A    between atoms: N3_10  and  C7_11 
REMARK    4  A    between atoms: C15_19  and  O2_20 
ROOT
HETATM    1  C2  UNL     1      25.970   0.224  53.677  1.00  0.00     0.103 A 
HETATM    2  C3  UNL     1      24.729  -0.101  53.174  1.00  0.00     0.072 A 
HETATM    3  C4  UNL     1      23.893   0.903  52.727  1.00  0.00     0.075 A 
HETATM    4  N1  UNL     1      22.664   0.615  52.226  1.00  0.00    -0.241 NA
HETATM    5  C5  UNL     1      21.880   1.643  51.797  1.00  0.00     0.235 A 
HETATM    6  N2  UNL     1      22.225   2.965  51.827  1.00  0.00    -0.224 NA
HETATM    7  C6  UNL     1      23.439   3.259  52.320  1.00  0.00     0.138 A 
HETATM    8  C13 UNL     1      24.251   2.234  52.760  1.00  0.00     0.041 A 
HETATM    9  C14 UNL     1      25.496   2.508  53.269  1.00  0.00     0.057 A 
HETATM   10  C15 UNL     1      26.372   1.545  53.730  1.00  0.00     0.102 A 
ENDROOT
BRANCH   7  11
HETATM   11  N3  UNL     1      23.816   4.625  52.360  1.00  0.00    -0.363 N 
HETATM   12  H6  UNL     1      23.997   5.228  53.189  1.00  0.00     0.162 HD
BRANCH  11  13
HETATM   13  C7  UNL     1      23.980   5.303  51.092  1.00  0.00     0.129 C 
HETATM   14  C8  UNL     1      24.248   6.773  51.307  1.00  0.00    -0.002 C 
HETATM   15  C9  UNL     1      24.525   7.481  50.216  1.00  0.00    -0.025 C 
HETATM   16  C10 UNL     1      24.526   6.702  48.944  1.00  0.00     0.054 C 
HETATM   17  C11 UNL     1      25.366   5.494  49.180  1.00  0.00    -0.025 C 
HETATM   18  C12 UNL     1      25.089   4.781  50.273  1.00  0.00    -0.002 C 
ENDBRANCH  11  13
ENDBRANCH   7  11
BRANCH  10  19
HETATM   19  O2  UNL     1      27.633   1.803  54.248  1.00  0.00    -0.353 OA
HETATM   20  C16 UNL     1      28.664   2.458  53.558  1.00  0.00     0.210 C 
ENDBRANCH  10  19
BRANCH   1  21
HETATM   21  O1  UNL     1      26.814  -0.772  54.128  1.00  0.00    -0.353 OA
HETATM   22  C1  UNL     1      27.705  -1.456  53.295  1.00  0.00     0.210 C 
ENDBRANCH   1  21
TORSDOF 4
ENDMDL
MODEL 7
REMARK VINA RESULT:      -6.7      2.215      4.272
REMARK  4 active torsions:
REMARK  status: ('A' for Active; 'I' for Inactive)
REMARK    1  A    between atoms: O1_2  and  C2_3 
REMARK    2  A    between atoms: C6_9  and  N3_10 
REMARK    3  A    between atoms: N3_10  and  C7_11 
REMARK    4  A    between atoms: C15_19  and  O2_20 
ROOT
HETATM    1  C2  UNL     1      21.828   2.847  50.565  1.00  0.00     0.103 A 
HETATM    2  C3  UNL     1      22.936   3.451  50.009  1.00  0.00     0.072 A 
HETATM    3  C4  UNL     1      24.197   3.036  50.388  1.00  0.00     0.075 A 
HETATM    4  N1  UNL     1      25.308   3.611  49.859  1.00  0.00    -0.241 NA
HETATM    5  C5  UNL     1      26.528   3.163  50.266  1.00  0.00     0.235 A 
HETATM    6  N2  UNL     1      26.740   2.169  51.179  1.00  0.00    -0.224 NA
HETATM    7  C6  UNL     1      25.647   1.594  51.708  1.00  0.00     0.138 A 
HETATM    8  C13 UNL     1      24.401   2.030  51.310  1.00  0.00     0.041 A 
HETATM    9  C14 UNL     1      23.267   1.460  51.835  1.00  0.00     0.057 A 
HETATM   10  C15 UNL     1      21.983   1.835  51.493  1.00  0.00     0.102 A 
ENDROOT
BRANCH   7  11
HETATM   11  N3  UNL     1      25.845   0.560  52.656  1.00  0.00    -0.363 N 
HETATM   12  H6  UNL     1      25.133   0.007  53.177  1.00  0.00     0.162 HD
BRANCH  11  13
HETATM   13  C7  UNL     1      27.212   0.200  52.966  1.00  0.00     0.129 C 
HETATM   14  C8  UNL     1      27.546   0.562  54.394  1.00  0.00    -0.002 C 
HETATM   15  C9  UNL     1      28.743   0.177  54.828  1.00  0.00    -0.025 C 
HETATM   16  C10 UNL     1      29.570  -0.556  53.827  1.00  0.00     0.054 C 
HETATM   17  C11 UNL     1      28.703  -1.620  53.249  1.00  0.00    -0.025 C 
HETATM   18  C12 UNL     1      27.502  -1.238  52.811  1.00  0.00    -0.002 C 
ENDBRANCH  11  13
ENDBRANCH   7  11
BRANCH  10  19
HETATM   19  O2  UNL     1      20.828   1.271  52.014  1.00  0.00    -0.353 OA
HETATM   20  C16 UNL     1      20.796   0.231  52.955  1.00  0.00     0.210 C 
ENDBRANCH  10  19
BRANCH   1  21
HETATM   21  O1  UNL     1      20.561   3.254  50.194  1.00  0.00    -0.353 OA
HETATM   22  C1  UNL     1      20.315   4.423  49.469  1.00  0.00     0.210 C 
ENDBRANCH   1  21
TORSDOF 4
ENDMDL
MODEL 8
REMARK VINA RESULT:      -6.7      2.783      6.078
REMARK  4 active torsions:
REMARK  status: ('A' for Active; 'I' for Inactive)
REMARK    1  A    between atoms: O1_2  and  C2_3 
REMARK    2  A    between atoms: C6_9  and  N3_10 
REMARK    3  A    between atoms: N3_10  and  C7_11 
REMARK    4  A    between atoms: C15_19  and  O2_20 
ROOT
HETATM    1  C2  UNL     1      26.857   0.601  53.015  1.00  0.00     0.103 A 
HETATM    2  C3  UNL     1      26.083  -0.252  53.773  1.00  0.00     0.072 A 
HETATM    3  C4  UNL     1      24.709  -0.126  53.746  1.00  0.00     0.075 A 
HETATM    4  N1  UNL     1      23.919  -0.950  54.482  1.00  0.00    -0.241 NA
HETATM    5  C5  UNL     1      22.569  -0.784  54.418  1.00  0.00     0.235 A 
HETATM    6  N2  UNL     1      21.923   0.158  53.666  1.00  0.00    -0.224 NA
HETATM    7  C6  UNL     1      22.696   0.977  52.935  1.00  0.00     0.138 A 
HETATM    8  C13 UNL     1      24.067   0.827  52.983  1.00  0.00     0.041 A 
HETATM    9  C14 UNL     1      24.880   1.652  52.245  1.00  0.00     0.057 A 
HETATM   10  C15 UNL     1      26.258   1.571  52.235  1.00  0.00     0.102 A 
ENDROOT
BRANCH   7  11
HETATM   11  N3  UNL     1      22.047   1.960  52.148  1.00  0.00    -0.363 N 
HETATM   12  H6  UNL     1      21.400   2.718  52.453  1.00  0.00     0.162 HD
BRANCH  11  13
HETATM   13  C7  UNL     1      22.295   1.937  50.722  1.00  0.00     0.129 C 
HETATM   14  C8  UNL     1      21.265   1.085  50.018  1.00  0.00    -0.002 C 
HETATM   15  C9  UNL     1      21.325   1.077  48.689  1.00  0.00    -0.025 C 
HETATM   16  C10 UNL     1      22.409   1.918  48.104  1.00  0.00     0.054 C 
HETATM   17  C11 UNL     1      22.316   3.255  48.753  1.00  0.00    -0.025 C 
HETATM   18  C12 UNL     1      22.257   3.267  50.086  1.00  0.00    -0.002 C 
ENDBRANCH  11  13
ENDBRANCH   7  11
BRANCH  10  19
HETATM   19  O2  UNL     1      27.094   2.396  51.497  1.00  0.00    -0.353 OA
HETATM   20  C16 UNL     1      26.684   3.203  50.426  1.00  0.00     0.210 C 
ENDBRANCH  10  19
BRANCH   1  21
HETATM   21  O1  UNL     1      28.234   0.484  53.035  1.00  0.00    -0.353 OA
HETATM   22  C1  UNL     1      29.011   0.784  54.157  1.00  0.00     0.210 C 
ENDBRANCH   1  21
TORSDOF 4
ENDMDL
MODEL 9
REMARK VINA RESULT:      -6.3      5.840      8.290
REMARK  4 active torsions:
REMARK  status: ('A' for Active; 'I' for Inactive)
REMARK    1  A    between atoms: O1_2  and  C2_3 
REMARK    2  A    between atoms: C6_9  and  N3_10 
REMARK    3  A    between atoms: N3_10  and  C7_11 
REMARK    4  A    between atoms: C15_19  and  O2_20 
ROOT
HETATM    1  C2  UNL     1      27.059   7.629  48.909  1.00  0.00     0.103 A 
HETATM    2  C3  UNL     1      25.991   7.951  49.720  1.00  0.00     0.072 A 
HETATM    3  C4  UNL     1      25.225   6.941  50.267  1.00  0.00     0.075 A 
HETATM    4  N1  UNL     1      24.167   7.225  51.069  1.00  0.00    -0.241 NA
HETATM    5  C5  UNL     1      23.446   6.191  51.584  1.00  0.00     0.235 A 
HETATM    6  N2  UNL     1      23.695   4.866  51.362  1.00  0.00    -0.224 NA
HETATM    7  C6  UNL     1      24.740   4.576  50.571  1.00  0.00     0.138 A 
HETATM    8  C13 UNL     1      25.486   5.606  50.038  1.00  0.00     0.041 A 
HETATM    9  C14 UNL     1      26.559   5.336  49.225  1.00  0.00     0.057 A 
HETATM   10  C15 UNL     1      27.358   6.305  48.651  1.00  0.00     0.102 A 
ENDROOT
BRANCH   7  11
HETATM   11  N3  UNL     1      25.016   3.207  50.327  1.00  0.00    -0.363 N 
HETATM   12  H6  UNL     1      25.052   2.700  49.418  1.00  0.00     0.162 HD
BRANCH  11  13
HETATM   13  C7  UNL     1      25.289   2.372  51.478  1.00  0.00     0.129 C 
HETATM   14  C8  UNL     1      24.148   1.413  51.720  1.00  0.00    -0.002 C 
HETATM   15  C9  UNL     1      24.334   0.519  52.687  1.00  0.00    -0.025 C 
HETATM   16  C10 UNL     1      25.651   0.607  53.381  1.00  0.00     0.054 C 
HETATM   17  C11 UNL     1      26.695   0.661  52.320  1.00  0.00    -0.025 C 
HETATM   18  C12 UNL     1      26.512   1.558  51.349  1.00  0.00    -0.002 C 
ENDBRANCH  11  13
ENDBRANCH   7  11
BRANCH  10  19
HETATM   19  O2  UNL     1      28.445   6.050  47.828  1.00  0.00    -0.353 OA
HETATM   20  C16 UNL     1      29.736   5.736  48.277  1.00  0.00     0.210 C 
ENDBRANCH  10  19
BRANCH   1  21
HETATM   21  O1  UNL     1      27.831   8.631  48.356  1.00  0.00    -0.353 OA
HETATM   22  C1  UNL     1      28.654   9.470  49.113  1.00  0.00     0.210 C 
ENDBRANCH   1  21
TORSDOF 4
ENDMDL
