MODEL 1
REMARK VINA RESULT:      -7.5      0.000      0.000
REMARK  3 active torsions:
REMARK  status: ('A' for Active; 'I' for Inactive)
REMARK    1  A    between atoms: O1_2  and  C2_3 
REMARK    2  A    between atoms: C7_9  and  N2_10 
REMARK    3  A    between atoms: N2_10  and  C8_11 
ROOT
HETATM    1  C2  UNL     1      20.407   3.001  52.297  1.00  0.00     0.161 C 
HETATM    2  C3  UNL     1      20.200   1.688  52.314  1.00  0.00     0.060 C 
HETATM    3  C4  UNL     1      21.133   0.528  52.193  1.00  0.00     0.032 C 
HETATM    4  C5  UNL     1      22.433   0.587  51.917  1.00  0.00     0.042 C 
HETATM    5  N1  UNL     1      22.834  -0.648  52.641  1.00  0.00    -0.267 NA
HETATM    6  C6  UNL     1      23.842  -0.642  53.574  1.00  0.00     0.119 C 
HETATM    7  C7  UNL     1      24.965   0.080  54.175  1.00  0.00     0.145 C 
HETATM    8  C10 UNL     1      25.483   1.306  53.552  1.00  0.00     0.010 C 
HETATM    9  C11 UNL     1      24.819   2.144  52.775  1.00  0.00    -0.032 C 
HETATM   10  C12 UNL     1      25.436   2.956  51.715  1.00  0.00     0.153 C 
HETATM   11  N3  UNL     1      24.653   3.196  50.551  1.00  0.00    -0.412 N 
HETATM   12  C13 UNL     1      25.421   3.475  49.396  1.00  0.00     0.143 C 
HETATM   13  C14 UNL     1      23.409   2.493  50.280  1.00  0.00     0.130 C 
HETATM   14  C15 UNL     1      23.242   1.564  51.266  1.00  0.00     0.091 C 
HETATM   15  C16 UNL     1      23.417   2.510  52.562  1.00  0.00     0.194 C 
HETATM   16  O2  UNL     1      22.985   3.743  52.310  1.00  0.00    -0.268 OA
HETATM   17  N4  UNL     1      21.624   3.785  52.244  1.00  0.00    -0.244 N 
HETATM   18  H21 UNL     1      21.313   4.781  52.096  1.00  0.00     0.196 HD
ENDROOT
BRANCH   7  19
HETATM   19  N2  UNL     1      26.056  -0.869  54.302  1.00  0.00    -0.386 N 
HETATM   20  H8  UNL     1      26.606  -1.671  54.671  1.00  0.00     0.160 HD
BRANCH  19  21
HETATM   21  C8  UNL     1      27.072  -0.604  53.342  1.00  0.00     0.095 C 
HETATM   22  C9  UNL     1      28.355  -0.700  53.643  1.00  0.00     0.234 C 
HETATM   23 CL1  UNL     1      30.079  -0.655  53.434  1.00  0.00    -0.229 Cl
ENDBRANCH  19  21
ENDBRANCH   7  19
BRANCH   1  24
HETATM   24  O1  UNL     1      19.188   3.611  52.339  1.00  0.00    -0.340 OA
HETATM   25  C1  UNL     1      18.096   3.172  51.566  1.00  0.00     0.211 C 
ENDBRANCH   1  24
TORSDOF 3
ENDMDL
MODEL 2
REMARK VINA RESULT:      -7.4      2.017      3.725
REMARK  3 active torsions:
REMARK  status: ('A' for Active; 'I' for Inactive)
REMARK    1  A    between atoms: O1_2  and  C2_3 
REMARK    2  A    between atoms: C7_9  and  N2_10 
REMARK    3  A    between atoms: N2_10  and  C8_11 
ROOT
HETATM    1  C2  UNL     1      22.710   3.084  49.695  1.00  0.00     0.161 C 
HETATM    2  C3  UNL     1      23.425   3.912  50.451  1.00  0.00     0.060 C 
HETATM    3  C4  UNL     1      23.929   3.802  51.853  1.00  0.00     0.032 C 
HETATM    4  C5  UNL     1      23.650   2.828  52.717  1.00  0.00     0.042 C 
HETATM    5  N1  UNL     1      24.915   2.902  53.494  1.00  0.00    -0.267 NA
HETATM    6  C6  UNL     1      25.693   1.791  53.712  1.00  0.00     0.119 C 
HETATM    7  C7  UNL     1      25.807   0.332  53.655  1.00  0.00     0.145 C 
HETATM    8  C10 UNL     1      24.623  -0.500  53.398  1.00  0.00     0.010 C 
HETATM    9  C11 UNL     1      23.527  -0.144  52.753  1.00  0.00    -0.032 C 
HETATM   10  C12 UNL     1      22.191  -0.700  53.020  1.00  0.00     0.153 C 
HETATM   11  N3  UNL     1      21.085   0.184  52.867  1.00  0.00    -0.412 N 
HETATM   12  C13 UNL     1      19.951  -0.189  53.626  1.00  0.00     0.143 C 
HETATM   13  C14 UNL     1      21.241   1.620  52.702  1.00  0.00     0.130 C 
HETATM   14  C15 UNL     1      22.572   1.902  52.818  1.00  0.00     0.091 C 
HETATM   15  C16 UNL     1      23.166   0.854  51.744  1.00  0.00     0.194 C 
HETATM   16  O2  UNL     1      22.302   0.652  50.752  1.00  0.00    -0.268 OA
HETATM   17  N4  UNL     1      22.237   1.734  49.925  1.00  0.00    -0.244 N 
HETATM   18  H21 UNL     1      21.586   1.522  49.124  1.00  0.00     0.196 HD
ENDROOT
BRANCH   7  19
HETATM   19  N2  UNL     1      26.408  -0.093  54.905  1.00  0.00    -0.386 N 
HETATM   20  H8  UNL     1      26.478  -0.514  55.854  1.00  0.00     0.160 HD
BRANCH  19  21
HETATM   21  C8  UNL     1      27.790   0.240  54.944  1.00  0.00     0.095 C 
HETATM   22  C9  UNL     1      28.669  -0.345  54.149  1.00  0.00     0.234 C 
HETATM   23 CL1  UNL     1      30.201  -0.722  53.423  1.00  0.00    -0.229 Cl
ENDBRANCH  19  21
ENDBRANCH   7  19
BRANCH   1  24
HETATM   24  O1  UNL     1      22.435   3.727  48.526  1.00  0.00    -0.340 OA
HETATM   25  C1  UNL     1      23.014   4.966  48.191  1.00  0.00     0.211 C 
ENDBRANCH   1  24
TORSDOF 3
ENDMDL
MODEL 3
REMARK VINA RESULT:      -7.3      2.850      4.988
REMARK  3 active torsions:
REMARK  status: ('A' for Active; 'I' for Inactive)
REMARK    1  A    between atoms: O1_2  and  C2_3 
REMARK    2  A    between atoms: C7_9  and  N2_10 
REMARK    3  A    between atoms: N2_10  and  C8_11 
ROOT
HETATM    1  C2  UNL     1      21.384   2.160  51.968  1.00  0.00     0.161 C 
HETATM    2  C3  UNL     1      21.270   3.481  52.071  1.00  0.00     0.060 C 
HETATM    3  C4  UNL     1      22.290   4.572  52.108  1.00  0.00     0.032 C 
HETATM    4  C5  UNL     1      23.610   4.416  52.155  1.00  0.00     0.042 C 
HETATM    5  N1  UNL     1      23.972   5.676  51.456  1.00  0.00    -0.267 NA
HETATM    6  C6  UNL     1      24.809   5.683  50.367  1.00  0.00     0.119 C 
HETATM    7  C7  UNL     1      25.765   4.944  49.539  1.00  0.00     0.145 C 
HETATM    8  C10 UNL     1      26.290   3.645  49.983  1.00  0.00     0.010 C 
HETATM    9  C11 UNL     1      25.706   2.791  50.805  1.00  0.00    -0.032 C 
HETATM   10  C12 UNL     1      26.431   1.867  51.691  1.00  0.00     0.153 C 
HETATM   11  N3  UNL     1      25.835   1.584  52.952  1.00  0.00    -0.412 N 
HETATM   12  C13 UNL     1      26.762   1.175  53.939  1.00  0.00     0.143 C 
HETATM   13  C14 UNL     1      24.706   2.337  53.475  1.00  0.00     0.130 C 
HETATM   14  C15 UNL     1      24.444   3.347  52.594  1.00  0.00     0.091 C 
HETATM   15  C16 UNL     1      24.337   2.493  51.229  1.00  0.00     0.194 C 
HETATM   16  O2  UNL     1      23.866   1.272  51.470  1.00  0.00    -0.268 OA
HETATM   17  N4  UNL     1      22.535   1.305  51.762  1.00  0.00    -0.244 N 
HETATM   18  H21 UNL     1      22.183   0.320  51.896  1.00  0.00     0.196 HD
ENDROOT
BRANCH   7  19
HETATM   19  N2  UNL     1      26.883   5.834  49.290  1.00  0.00    -0.386 N 
HETATM   20  H8  UNL     1      27.453   6.704  49.307  1.00  0.00     0.160 HD
BRANCH  19  21
HETATM   21  C8  UNL     1      27.906   5.170  48.557  1.00  0.00     0.095 C 
HETATM   22  C9  UNL     1      29.045   5.768  48.255  1.00  0.00     0.234 C 
HETATM   23 CL1  UNL     1      30.637   5.989  47.597  1.00  0.00    -0.229 Cl
ENDBRANCH  19  21
ENDBRANCH   7  19
BRANCH   1  24
HETATM   24  O1  UNL     1      20.135   1.628  52.093  1.00  0.00    -0.340 OA
HETATM   25  C1  UNL     1      19.794   0.369  51.563  1.00  0.00     0.211 C 
ENDBRANCH   1  24
TORSDOF 3
ENDMDL
MODEL 4
REMARK VINA RESULT:      -7.3      3.441      5.500
REMARK  3 active torsions:
REMARK  status: ('A' for Active; 'I' for Inactive)
REMARK    1  A    between atoms: O1_2  and  C2_3 
REMARK    2  A    between atoms: C7_9  and  N2_10 
REMARK    3  A    between atoms: N2_10  and  C8_11 
ROOT
HETATM    1  C2  UNL     1      23.123  -0.547  53.244  1.00  0.00     0.161 C 
HETATM    2  C3  UNL     1      22.457   0.603  53.303  1.00  0.00     0.060 C 
HETATM    3  C4  UNL     1      22.901   2.023  53.176  1.00  0.00     0.032 C 
HETATM    4  C5  UNL     1      24.158   2.450  53.077  1.00  0.00     0.042 C 
HETATM    5  N1  UNL     1      23.876   3.677  52.288  1.00  0.00    -0.267 NA
HETATM    6  C6  UNL     1      24.531   3.944  51.111  1.00  0.00     0.119 C 
HETATM    7  C7  UNL     1      25.637   3.614  50.210  1.00  0.00     0.145 C 
HETATM    8  C10 UNL     1      26.710   2.709  50.645  1.00  0.00     0.010 C 
HETATM    9  C11 UNL     1      26.627   1.763  51.565  1.00  0.00    -0.032 C 
HETATM   10  C12 UNL     1      27.754   1.318  52.399  1.00  0.00     0.153 C 
HETATM   11  N3  UNL     1      27.450   0.921  53.732  1.00  0.00    -0.412 N 
HETATM   12  C13 UNL     1      28.543   1.034  54.622  1.00  0.00     0.143 C 
HETATM   13  C14 UNL     1      26.155   1.163  54.349  1.00  0.00     0.130 C 
HETATM   14  C15 UNL     1      25.407   1.882  53.462  1.00  0.00     0.091 C 
HETATM   15  C16 UNL     1      25.564   0.948  52.156  1.00  0.00     0.194 C 
HETATM   16  O2  UNL     1      25.691  -0.331  52.501  1.00  0.00    -0.268 OA
HETATM   17  N4  UNL     1      24.508  -0.844  52.943  1.00  0.00    -0.244 N 
HETATM   18  H21 UNL     1      24.631  -1.868  53.158  1.00  0.00     0.196 HD
ENDROOT
BRANCH   7  19
HETATM   19  N2  UNL     1      26.234   4.871  49.797  1.00  0.00    -0.386 N 
HETATM   20  H8  UNL     1      26.941   5.528  49.409  1.00  0.00     0.160 HD
BRANCH  19  21
HETATM   21  C8  UNL     1      25.351   5.958  50.047  1.00  0.00     0.095 C 
HETATM   22  C9  UNL     1      25.760   7.213  49.991  1.00  0.00     0.234 C 
HETATM   23 CL1  UNL     1      25.692   8.947  50.067  1.00  0.00    -0.229 Cl
ENDBRANCH  19  21
ENDBRANCH   7  19
BRANCH   1  24
HETATM   24  O1  UNL     1      22.244  -1.548  53.534  1.00  0.00    -0.340 OA
HETATM   25  C1  UNL     1      21.041  -1.319  54.229  1.00  0.00     0.211 C 
ENDBRANCH   1  24
TORSDOF 3
ENDMDL
MODEL 5
REMARK VINA RESULT:      -7.0      3.661      6.179
REMARK  3 active torsions:
REMARK  status: ('A' for Active; 'I' for Inactive)
REMARK    1  A    between atoms: O1_2  and  C2_3 
REMARK    2  A    between atoms: C7_9  and  N2_10 
REMARK    3  A    between atoms: N2_10  and  C8_11 
ROOT
HETATM    1  C2  UNL     1      26.567   0.346  52.689  1.00  0.00     0.161 C 
HETATM    2  C3  UNL     1      25.762  -0.340  53.495  1.00  0.00     0.060 C 
HETATM    3  C4  UNL     1      24.303  -0.223  53.786  1.00  0.00     0.032 C 
HETATM    4  C5  UNL     1      23.484   0.729  53.343  1.00  0.00     0.042 C 
HETATM    5  N1  UNL     1      22.240  -0.084  53.334  1.00  0.00    -0.267 NA
HETATM    6  C6  UNL     1      21.448  -0.177  52.216  1.00  0.00     0.119 C 
HETATM    7  C7  UNL     1      21.129   0.334  50.882  1.00  0.00     0.145 C 
HETATM    8  C10 UNL     1      21.726   1.587  50.400  1.00  0.00     0.010 C 
HETATM    9  C11 UNL     1      22.872   2.122  50.787  1.00  0.00    -0.032 C 
HETATM   10  C12 UNL     1      23.151   3.566  50.792  1.00  0.00     0.153 C 
HETATM   11  N3  UNL     1      23.993   4.054  51.831  1.00  0.00    -0.412 N 
HETATM   12  C13 UNL     1      23.796   5.424  52.125  1.00  0.00     0.143 C 
HETATM   13  C14 UNL     1      24.370   3.249  52.982  1.00  0.00     0.130 C 
HETATM   14  C15 UNL     1      23.706   2.060  52.885  1.00  0.00     0.091 C 
HETATM   15  C16 UNL     1      24.119   1.641  51.382  1.00  0.00     0.194 C 
HETATM   16  O2  UNL     1      25.331   2.100  51.080  1.00  0.00    -0.268 OA
HETATM   17  N4  UNL     1      26.302   1.400  51.732  1.00  0.00    -0.244 N 
HETATM   18  H21 UNL     1      27.249   1.753  51.431  1.00  0.00     0.196 HD
ENDROOT
BRANCH   7  19
HETATM   19  N2  UNL     1      19.685   0.454  50.810  1.00  0.00    -0.386 N 
HETATM   20  H8  UNL     1      18.750   0.704  50.429  1.00  0.00     0.160 HD
BRANCH  19  21
HETATM   21  C8  UNL     1      19.072  -0.106  51.966  1.00  0.00     0.095 C 
HETATM   22  C9  UNL     1      17.815  -0.515  51.957  1.00  0.00     0.234 C 
HETATM   23 CL1  UNL     1      16.323  -1.185  52.541  1.00  0.00    -0.229 Cl
ENDBRANCH  19  21
ENDBRANCH   7  19
BRANCH   1  24
HETATM   24  O1  UNL     1      27.836  -0.110  52.888  1.00  0.00    -0.340 OA
HETATM   25  C1  UNL     1      28.444  -0.123  54.158  1.00  0.00     0.211 C 
ENDBRANCH   1  24
TORSDOF 3
ENDMDL
MODEL 6
REMARK VINA RESULT:      -6.9      3.560      6.166
REMARK  3 active torsions:
REMARK  status: ('A' for Active; 'I' for Inactive)
REMARK    1  A    between atoms: O1_2  and  C2_3 
REMARK    2  A    between atoms: C7_9  and  N2_10 
REMARK    3  A    between atoms: N2_10  and  C8_11 
ROOT
HETATM    1  C2  UNL     1      26.164   0.299  52.854  1.00  0.00     0.161 C 
HETATM    2  C3  UNL     1      25.226  -0.337  53.549  1.00  0.00     0.060 C 
HETATM    3  C4  UNL     1      23.751  -0.133  53.659  1.00  0.00     0.032 C 
HETATM    4  C5  UNL     1      23.052   0.866  53.126  1.00  0.00     0.042 C 
HETATM    5  N1  UNL     1      21.772   0.129  52.958  1.00  0.00    -0.267 NA
HETATM    6  C6  UNL     1      21.120   0.082  51.751  1.00  0.00     0.119 C 
HETATM    7  C7  UNL     1      20.998   0.610  50.390  1.00  0.00     0.145 C 
HETATM    8  C10 UNL     1      21.724   1.825  49.994  1.00  0.00     0.010 C 
HETATM    9  C11 UNL     1      22.842   2.291  50.522  1.00  0.00    -0.032 C 
HETATM   10  C12 UNL     1      23.204   3.716  50.571  1.00  0.00     0.153 C 
HETATM   11  N3  UNL     1      23.939   4.154  51.710  1.00  0.00    -0.412 N 
HETATM   12  C13 UNL     1      23.789   5.533  51.986  1.00  0.00     0.143 C 
HETATM   13  C14 UNL     1      24.123   3.328  52.893  1.00  0.00     0.130 C 
HETATM   14  C15 UNL     1      23.407   2.181  52.707  1.00  0.00     0.091 C 
HETATM   15  C16 UNL     1      23.976   1.737  51.264  1.00  0.00     0.194 C 
HETATM   16  O2  UNL     1      25.241   2.123  51.115  1.00  0.00    -0.268 OA
HETATM   17  N4  UNL     1      26.082   1.366  51.878  1.00  0.00    -0.244 N 
HETATM   18  H21 UNL     1      27.077   1.662  51.698  1.00  0.00     0.196 HD
ENDROOT
BRANCH   7  19
HETATM   19  N2  UNL     1      19.584   0.816  50.143  1.00  0.00    -0.386 N 
HETATM   20  H8  UNL     1      18.677   0.807  49.633  1.00  0.00     0.160 HD
BRANCH  19  21
HETATM   21  C8  UNL     1      18.951   1.405  51.273  1.00  0.00     0.095 C 
HETATM   22  C9  UNL     1      18.255   2.524  51.175  1.00  0.00     0.234 C 
HETATM   23 CL1  UNL     1      17.278   3.874  51.662  1.00  0.00    -0.229 Cl
ENDBRANCH  19  21
ENDBRANCH   7  19
BRANCH   1  24
HETATM   24  O1  UNL     1      27.369  -0.232  53.204  1.00  0.00    -0.340 OA
HETATM   25  C1  UNL     1      28.018   0.097  54.409  1.00  0.00     0.211 C 
ENDBRANCH   1  24
TORSDOF 3
ENDMDL
MODEL 7
REMARK VINA RESULT:      -6.9      7.628      9.594
REMARK  3 active torsions:
REMARK  status: ('A' for Active; 'I' for Inactive)
REMARK    1  A    between atoms: O1_2  and  C2_3 
REMARK    2  A    between atoms: C7_9  and  N2_10 
REMARK    3  A    between atoms: N2_10  and  C8_11 
ROOT
HETATM    1  C2  UNL     1      26.771   7.328  49.389  1.00  0.00     0.161 C 
HETATM    2  C3  UNL     1      27.018   6.111  48.915  1.00  0.00     0.060 C 
HETATM    3  C4  UNL     1      28.208   5.530  48.225  1.00  0.00     0.032 C 
HETATM    4  C5  UNL     1      29.291   6.193  47.827  1.00  0.00     0.042 C 
HETATM    5  N1  UNL     1      30.254   5.067  47.946  1.00  0.00    -0.267 NA
HETATM    6  C6  UNL     1      31.418   5.187  48.665  1.00  0.00     0.119 C 
HETATM    7  C7  UNL     1      32.363   6.073  49.348  1.00  0.00     0.145 C 
HETATM    8  C10 UNL     1      32.261   7.531  49.198  1.00  0.00     0.010 C 
HETATM    9  C11 UNL     1      31.175   8.226  48.908  1.00  0.00    -0.032 C 
HETATM   10  C12 UNL     1      31.180   9.506  48.181  1.00  0.00     0.153 C 
HETATM   11  N3  UNL     1      30.075   9.761  47.320  1.00  0.00    -0.412 N 
HETATM   12  C13 UNL     1      30.366  10.673  46.279  1.00  0.00     0.143 C 
HETATM   13  C14 UNL     1      29.106   8.738  46.960  1.00  0.00     0.130 C 
HETATM   14  C15 UNL     1      29.526   7.563  47.513  1.00  0.00     0.091 C 
HETATM   15  C16 UNL     1      29.729   8.040  49.041  1.00  0.00     0.194 C 
HETATM   16  O2  UNL     1      28.866   9.004  49.355  1.00  0.00    -0.268 OA
HETATM   17  N4  UNL     1      27.602   8.510  49.490  1.00  0.00    -0.244 N 
HETATM   18  H21 UNL     1      26.955   9.287  49.788  1.00  0.00     0.196 HD
ENDROOT
BRANCH   7  19
HETATM   19  N2  UNL     1      33.694   5.660  48.948  1.00  0.00    -0.386 N 
HETATM   20  H8  UNL     1      34.686   5.359  49.040  1.00  0.00     0.160 HD
BRANCH  19  21
HETATM   21  C8  UNL     1      33.802   5.601  47.530  1.00  0.00     0.095 C 
HETATM   22  C9  UNL     1      34.514   4.667  46.925  1.00  0.00     0.234 C 
HETATM   23 CL1  UNL     1      35.237   3.761  45.631  1.00  0.00    -0.229 Cl
ENDBRANCH  19  21
ENDBRANCH   7  19
BRANCH   1  24
HETATM   24  O1  UNL     1      25.481   7.346  49.828  1.00  0.00    -0.340 OA
HETATM   25  C1  UNL     1      24.761   8.542  50.010  1.00  0.00     0.211 C 
ENDBRANCH   1  24
TORSDOF 3
ENDMDL
MODEL 8
REMARK VINA RESULT:      -6.8      6.043      8.982
REMARK  3 active torsions:
REMARK  status: ('A' for Active; 'I' for Inactive)
REMARK    1  A    between atoms: O1_2  and  C2_3 
REMARK    2  A    between atoms: C7_9  and  N2_10 
REMARK    3  A    between atoms: N2_10  and  C8_11 
ROOT
HETATM    1  C2  UNL     1      26.016   3.994  50.130  1.00  0.00     0.161 C 
HETATM    2  C3  UNL     1      27.054   4.070  49.302  1.00  0.00     0.060 C 
HETATM    3  C4  UNL     1      27.603   5.195  48.489  1.00  0.00     0.032 C 
HETATM    4  C5  UNL     1      27.060   6.402  48.344  1.00  0.00     0.042 C 
HETATM    5  N1  UNL     1      28.325   7.150  48.122  1.00  0.00    -0.267 NA
HETATM    6  C6  UNL     1      28.647   8.259  48.867  1.00  0.00     0.119 C 
HETATM    7  C7  UNL     1      28.202   9.282  49.815  1.00  0.00     0.145 C 
HETATM    8  C10 UNL     1      26.775   9.438  50.129  1.00  0.00     0.010 C 
HETATM    9  C11 UNL     1      25.838   8.510  50.051  1.00  0.00    -0.032 C 
HETATM   10  C12 UNL     1      24.421   8.785  49.765  1.00  0.00     0.153 C 
HETATM   11  N3  UNL     1      23.716   7.809  49.005  1.00  0.00    -0.412 N 
HETATM   12  C13 UNL     1      22.598   8.329  48.311  1.00  0.00     0.143 C 
HETATM   13  C14 UNL     1      24.383   6.713  48.320  1.00  0.00     0.130 C 
HETATM   14  C15 UNL     1      25.728   6.887  48.483  1.00  0.00     0.091 C 
HETATM   15  C16 UNL     1      25.787   7.047  50.088  1.00  0.00     0.194 C 
HETATM   16  O2  UNL     1      24.825   6.336  50.671  1.00  0.00    -0.268 OA
HETATM   17  N4  UNL     1      25.096   5.001  50.617  1.00  0.00    -0.244 N 
HETATM   18  H21 UNL     1      24.343   4.471  51.131  1.00  0.00     0.196 HD
ENDROOT
BRANCH   7  19
HETATM   19  N2  UNL     1      28.710  10.553  49.332  1.00  0.00    -0.386 N 
HETATM   20  H8  UNL     1      29.377  11.336  49.180  1.00  0.00     0.160 HD
BRANCH  19  21
HETATM   21  C8  UNL     1      27.725  11.232  48.561  1.00  0.00     0.095 C 
HETATM   22  C9  UNL     1      27.749  12.544  48.404  1.00  0.00     0.234 C 
HETATM   23 CL1  UNL     1      27.268  14.122  47.861  1.00  0.00    -0.229 Cl
ENDBRANCH  19  21
ENDBRANCH   7  19
BRANCH   1  24
HETATM   24  O1  UNL     1      25.898   2.694  50.525  1.00  0.00    -0.340 OA
HETATM   25  C1  UNL     1      26.706   2.134  51.532  1.00  0.00     0.211 C 
ENDBRANCH   1  24
TORSDOF 3
ENDMDL
MODEL 9
REMARK VINA RESULT:      -6.8      4.063      6.942
REMARK  3 active torsions:
REMARK  status: ('A' for Active; 'I' for Inactive)
REMARK    1  A    between atoms: O1_2  and  C2_3 
REMARK    2  A    between atoms: C7_9  and  N2_10 
REMARK    3  A    between atoms: N2_10  and  C8_11 
ROOT
HETATM    1  C2  UNL     1      26.194   1.195  52.626  1.00  0.00     0.161 C 
HETATM    2  C3  UNL     1      26.788   1.859  51.638  1.00  0.00     0.060 C 
HETATM    3  C4  UNL     1      26.274   2.861  50.658  1.00  0.00     0.032 C 
HETATM    4  C5  UNL     1      25.006   3.233  50.502  1.00  0.00     0.042 C 
HETATM    5  N1  UNL     1      25.275   4.613  50.019  1.00  0.00    -0.267 NA
HETATM    6  C6  UNL     1      24.694   5.709  50.608  1.00  0.00     0.119 C 
HETATM    7  C7  UNL     1      23.677   6.225  51.527  1.00  0.00     0.145 C 
HETATM    8  C10 UNL     1      22.629   5.339  52.052  1.00  0.00     0.010 C 
HETATM    9  C11 UNL     1      22.698   4.028  52.202  1.00  0.00    -0.032 C 
HETATM   10  C12 UNL     1      21.539   3.123  52.126  1.00  0.00     0.153 C 
HETATM   11  N3  UNL     1      21.767   1.832  51.572  1.00  0.00    -0.412 N 
HETATM   12  C13 UNL     1      20.607   1.235  51.026  1.00  0.00     0.143 C 
HETATM   13  C14 UNL     1      22.998   1.477  50.882  1.00  0.00     0.130 C 
HETATM   14  C15 UNL     1      23.767   2.603  50.813  1.00  0.00     0.091 C 
HETATM   15  C16 UNL     1      23.759   3.033  52.368  1.00  0.00     0.194 C 
HETATM   16  O2  UNL     1      23.679   1.962  53.154  1.00  0.00    -0.268 OA
HETATM   17  N4  UNL     1      24.854   1.271  53.168  1.00  0.00    -0.244 N 
HETATM   18  H21 UNL     1      24.774   0.461  53.839  1.00  0.00     0.196 HD
ENDROOT
BRANCH   7  19
HETATM   19  N2  UNL     1      23.042   7.349  50.865  1.00  0.00    -0.386 N 
HETATM   20  H8  UNL     1      22.954   8.261  50.373  1.00  0.00     0.160 HD
BRANCH  19  21
HETATM   21  C8  UNL     1      21.631   7.176  50.813  1.00  0.00     0.095 C 
HETATM   22  C9  UNL     1      20.852   8.012  50.149  1.00  0.00     0.234 C 
HETATM   23 CL1  UNL     1      19.399   8.706  49.499  1.00  0.00    -0.229 Cl
ENDBRANCH  19  21
ENDBRANCH   7  19
BRANCH   1  24
HETATM   24  O1  UNL     1      27.105   0.321  53.140  1.00  0.00    -0.340 OA
HETATM   25  C1  UNL     1      27.293   0.154  54.526  1.00  0.00     0.211 C 
ENDBRANCH   1  24
TORSDOF 3
ENDMDL
