MODEL 1
REMARK VINA RESULT:      -6.8      0.000      0.000
REMARK  6 active torsions:
REMARK  status: ('A' for Active; 'I' for Inactive)
REMARK    1  A    between atoms: C3_3  and  P1_4 
REMARK    2  A    between atoms: P1_4  and  C4_5 
REMARK    3  A    between atoms: C4_5  and  C5_6 
REMARK    4  A    between atoms: C5_6  and  C6_7 
REMARK    5  A    between atoms: C6_7  and  N1_8 
REMARK    6  A    between atoms: N1_8  and  C7_9 
ROOT
HETATM    1  C1  UNL     1      28.590   5.504  48.243  1.00  0.00     0.013 C 
HETATM    2  C2  UNL     1      29.016   6.594  48.324  1.00  0.00    -0.106 C 
HETATM    3  C3  UNL     1      29.548   7.888  48.414  1.00  0.00     0.176 C 
ENDROOT
BRANCH   3   4
HETATM    4  P1  UNL     1      28.421   9.137  48.289  1.00  0.00    -0.113 P 
BRANCH   4   5
HETATM    5  C4  UNL     1      27.515   9.620  49.853  1.00  0.00     0.058 C 
BRANCH   5   6
HETATM    6  C5  UNL     1      26.405   8.666  50.035  1.00  0.00    -0.006 C 
BRANCH   6   7
HETATM    7  C6  UNL     1      25.998   7.453  50.167  1.00  0.00     0.086 C 
BRANCH   7   8
HETATM    8  N1  UNL     1      25.713   6.111  50.367  1.00  0.00    -0.349 N 
HETATM    9  H7  UNL     1      26.697   6.074  50.086  1.00  0.00     0.167 HD
BRANCH   8  10
HETATM   10  C7  UNL     1      24.493   5.549  50.764  1.00  0.00     0.159 A 
HETATM   11  N2  UNL     1      23.440   6.338  50.898  1.00  0.00    -0.222 NA
HETATM   12  C8  UNL     1      22.224   5.851  51.285  1.00  0.00     0.238 A 
HETATM   13  N3  UNL     1      22.167   4.537  51.518  1.00  0.00    -0.215 NA
HETATM   14  C9  UNL     1      23.217   3.702  51.393  1.00  0.00     0.202 A 
HETATM   15  C10 UNL     1      24.437   4.219  50.999  1.00  0.00     0.129 A 
HETATM   16  O1  UNL     1      22.980   2.364  51.675  1.00  0.00    -0.289 OA
HETATM   17  N4  UNL     1      25.698   3.642  50.777  1.00  0.00    -0.379 N 
HETATM   18  C11 UNL     1      26.159   2.316  51.117  1.00  0.00     0.161 C 
HETATM   19  H9  UNL     1      26.483   4.142  50.315  1.00  0.00     0.160 HD
HETATM   20  C12 UNL     1      25.235   1.499  51.893  1.00  0.00    -0.007 A 
HETATM   21  C13 UNL     1      26.017   0.496  52.484  1.00  0.00     0.011 A 
HETATM   22  C17 UNL     1      23.888   1.445  52.183  1.00  0.00     0.086 A 
HETATM   23  C14 UNL     1      25.507  -0.485  53.302  1.00  0.00     0.001 A 
HETATM   24  C15 UNL     1      24.148  -0.487  53.557  1.00  0.00     0.003 A 
HETATM   25  C16 UNL     1      23.327   0.476  53.002  1.00  0.00     0.038 A 
ENDBRANCH   8  10
ENDBRANCH   7   8
ENDBRANCH   6   7
ENDBRANCH   5   6
ENDBRANCH   4   5
ENDBRANCH   3   4
TORSDOF 6
ENDMDL
MODEL 2
REMARK VINA RESULT:      -6.5      3.839      5.485
REMARK  6 active torsions:
REMARK  status: ('A' for Active; 'I' for Inactive)
REMARK    1  A    between atoms: C3_3  and  P1_4 
REMARK    2  A    between atoms: P1_4  and  C4_5 
REMARK    3  A    between atoms: C4_5  and  C5_6 
REMARK    4  A    between atoms: C5_6  and  C6_7 
REMARK    5  A    between atoms: C6_7  and  N1_8 
REMARK    6  A    between atoms: N1_8  and  C7_9 
ROOT
HETATM    1  C1  UNL     1      19.787   3.495  51.462  1.00  0.00     0.013 C 
HETATM    2  C2  UNL     1      20.366   3.566  50.445  1.00  0.00    -0.106 C 
HETATM    3  C3  UNL     1      21.037   3.646  49.216  1.00  0.00     0.176 C 
ENDROOT
BRANCH   3   4
HETATM    4  P1  UNL     1      22.460   4.553  49.234  1.00  0.00    -0.113 P 
BRANCH   4   5
HETATM    5  C4  UNL     1      22.488   6.064  50.335  1.00  0.00     0.058 C 
BRANCH   5   6
HETATM    6  C5  UNL     1      23.024   5.648  51.645  1.00  0.00    -0.006 C 
BRANCH   6   7
HETATM    7  C6  UNL     1      23.654   4.784  52.360  1.00  0.00     0.086 C 
BRANCH   7   8
HETATM    8  N1  UNL     1      24.182   3.806  53.188  1.00  0.00    -0.349 N 
HETATM    9  H7  UNL     1      24.497   4.663  53.652  1.00  0.00     0.167 HD
BRANCH   8  10
HETATM   10  C7  UNL     1      24.073   2.416  53.044  1.00  0.00     0.159 A 
HETATM   11  N2  UNL     1      22.879   1.856  53.143  1.00  0.00    -0.222 NA
HETATM   12  C8  UNL     1      22.708   0.506  53.015  1.00  0.00     0.238 A 
HETATM   13  N3  UNL     1      23.815  -0.205  52.785  1.00  0.00    -0.215 NA
HETATM   14  C9  UNL     1      25.047   0.331  52.679  1.00  0.00     0.202 A 
HETATM   15  C10 UNL     1      25.195   1.699  52.811  1.00  0.00     0.129 A 
HETATM   16  O1  UNL     1      26.088  -0.557  52.438  1.00  0.00    -0.289 OA
HETATM   17  N4  UNL     1      26.306   2.555  52.757  1.00  0.00    -0.379 N 
HETATM   18  C11 UNL     1      27.710   2.216  52.757  1.00  0.00     0.161 C 
HETATM   19  H9  UNL     1      26.229   3.590  52.706  1.00  0.00     0.160 HD
HETATM   20  C12 UNL     1      28.026   0.807  52.952  1.00  0.00    -0.007 A 
HETATM   21  C13 UNL     1      29.364   0.771  53.371  1.00  0.00     0.011 A 
HETATM   22  C17 UNL     1      27.409  -0.421  52.842  1.00  0.00     0.086 A 
HETATM   23  C14 UNL     1      30.041  -0.391  53.661  1.00  0.00     0.001 A 
HETATM   24  C15 UNL     1      29.368  -1.593  53.532  1.00  0.00     0.003 A 
HETATM   25  C16 UNL     1      28.049  -1.619  53.123  1.00  0.00     0.038 A 
ENDBRANCH   8  10
ENDBRANCH   7   8
ENDBRANCH   6   7
ENDBRANCH   5   6
ENDBRANCH   4   5
ENDBRANCH   3   4
TORSDOF 6
ENDMDL
MODEL 3
REMARK VINA RESULT:      -6.2      4.888      8.487
REMARK  6 active torsions:
REMARK  status: ('A' for Active; 'I' for Inactive)
REMARK    1  A    between atoms: C3_3  and  P1_4 
REMARK    2  A    between atoms: P1_4  and  C4_5 
REMARK    3  A    between atoms: C4_5  and  C5_6 
REMARK    4  A    between atoms: C5_6  and  C6_7 
REMARK    5  A    between atoms: C6_7  and  N1_8 
REMARK    6  A    between atoms: N1_8  and  C7_9 
ROOT
HETATM    1  C1  UNL     1      26.281   3.504  49.787  1.00  0.00     0.013 C 
HETATM    2  C2  UNL     1      26.225   4.636  49.488  1.00  0.00    -0.106 C 
HETATM    3  C3  UNL     1      26.160   5.984  49.107  1.00  0.00     0.176 C 
ENDROOT
BRANCH   3   4
HETATM    4  P1  UNL     1      25.436   7.014  50.231  1.00  0.00    -0.113 P 
BRANCH   4   5
HETATM    5  C4  UNL     1      25.288   8.817  49.757  1.00  0.00     0.058 C 
BRANCH   5   6
HETATM    6  C5  UNL     1      26.654   9.331  49.541  1.00  0.00    -0.006 C 
BRANCH   6   7
HETATM    7  C6  UNL     1      27.901   9.329  49.855  1.00  0.00     0.086 C 
BRANCH   7   8
HETATM    8  N1  UNL     1      29.273   9.393  50.042  1.00  0.00    -0.349 N 
HETATM    9  H7  UNL     1      28.943   9.203  50.993  1.00  0.00     0.167 HD
BRANCH   8  10
HETATM   10  C7  UNL     1      30.255   9.636  49.073  1.00  0.00     0.159 A 
HETATM   11  N2  UNL     1      30.385  10.860  48.589  1.00  0.00    -0.222 NA
HETATM   12  C8  UNL     1      31.322  11.159  47.640  1.00  0.00     0.238 A 
HETATM   13  N3  UNL     1      32.090  10.145  47.236  1.00  0.00    -0.215 NA
HETATM   14  C9  UNL     1      31.987   8.886  47.705  1.00  0.00     0.202 A 
HETATM   15  C10 UNL     1      31.032   8.608  48.665  1.00  0.00     0.129 A 
HETATM   16  O1  UNL     1      32.868   7.954  47.173  1.00  0.00    -0.289 OA
HETATM   17  N4  UNL     1      30.669   7.436  49.347  1.00  0.00    -0.379 N 
HETATM   18  C11 UNL     1      31.064   6.072  49.076  1.00  0.00     0.161 C 
HETATM   19  H9  UNL     1      30.038   7.425  50.172  1.00  0.00     0.160 HD
HETATM   20  C12 UNL     1      31.855   5.865  47.871  1.00  0.00    -0.007 A 
HETATM   21  C13 UNL     1      31.730   4.502  47.563  1.00  0.00     0.011 A 
HETATM   22  C17 UNL     1      32.643   6.595  47.007  1.00  0.00     0.086 A 
HETATM   23  C14 UNL     1      32.338   3.906  46.483  1.00  0.00     0.001 A 
HETATM   24  C15 UNL     1      33.116   4.690  45.651  1.00  0.00     0.003 A 
HETATM   25  C16 UNL     1      33.276   6.039  45.904  1.00  0.00     0.038 A 
ENDBRANCH   8  10
ENDBRANCH   7   8
ENDBRANCH   6   7
ENDBRANCH   5   6
ENDBRANCH   4   5
ENDBRANCH   3   4
TORSDOF 6
ENDMDL
MODEL 4
REMARK VINA RESULT:      -6.2      3.699      5.429
REMARK  6 active torsions:
REMARK  status: ('A' for Active; 'I' for Inactive)
REMARK    1  A    between atoms: C3_3  and  P1_4 
REMARK    2  A    between atoms: P1_4  and  C4_5 
REMARK    3  A    between atoms: C4_5  and  C5_6 
REMARK    4  A    between atoms: C5_6  and  C6_7 
REMARK    5  A    between atoms: C6_7  and  N1_8 
REMARK    6  A    between atoms: N1_8  and  C7_9 
ROOT
HETATM    1  C1  UNL     1      24.841   4.173  49.404  1.00  0.00     0.013 C 
HETATM    2  C2  UNL     1      23.805   4.610  49.070  1.00  0.00    -0.106 C 
HETATM    3  C3  UNL     1      22.565   5.116  48.652  1.00  0.00     0.176 C 
ENDROOT
BRANCH   3   4
HETATM    4  P1  UNL     1      21.715   5.985  49.822  1.00  0.00    -0.113 P 
BRANCH   4   5
HETATM    5  C4  UNL     1      20.360   5.074  50.734  1.00  0.00     0.058 C 
BRANCH   5   6
HETATM    6  C5  UNL     1      20.964   3.873  51.342  1.00  0.00    -0.006 C 
BRANCH   6   7
HETATM    7  C6  UNL     1      21.584   2.755  51.204  1.00  0.00     0.086 C 
BRANCH   7   8
HETATM    8  N1  UNL     1      22.367   1.612  51.161  1.00  0.00    -0.349 N 
HETATM    9  H7  UNL     1      22.366   1.900  50.178  1.00  0.00     0.167 HD
BRANCH   8  10
HETATM   10  C7  UNL     1      22.716   0.777  52.230  1.00  0.00     0.159 A 
HETATM   11  N2  UNL     1      21.754   0.202  52.932  1.00  0.00    -0.222 NA
HETATM   12  C8  UNL     1      22.030  -0.620  53.987  1.00  0.00     0.238 A 
HETATM   13  N3  UNL     1      23.323  -0.803  54.264  1.00  0.00    -0.215 NA
HETATM   14  C9  UNL     1      24.330  -0.234  53.574  1.00  0.00     0.202 A 
HETATM   15  C10 UNL     1      24.026   0.593  52.509  1.00  0.00     0.129 A 
HETATM   16  O1  UNL     1      25.618  -0.533  53.999  1.00  0.00    -0.289 OA
HETATM   17  N4  UNL     1      24.813   1.324  51.605  1.00  0.00    -0.379 N 
HETATM   18  C11 UNL     1      26.229   1.606  51.659  1.00  0.00     0.161 C 
HETATM   19  H9  UNL     1      24.434   1.768  50.744  1.00  0.00     0.160 HD
HETATM   20  C12 UNL     1      26.919   1.171  52.867  1.00  0.00    -0.007 A 
HETATM   21  C13 UNL     1      28.104   1.919  52.918  1.00  0.00     0.011 A 
HETATM   22  C17 UNL     1      26.738   0.281  53.904  1.00  0.00     0.086 A 
HETATM   23  C14 UNL     1      29.039   1.798  53.920  1.00  0.00     0.001 A 
HETATM   24  C15 UNL     1      28.801   0.889  54.934  1.00  0.00     0.003 A 
HETATM   25  C16 UNL     1      27.651   0.124  54.936  1.00  0.00     0.038 A 
ENDBRANCH   8  10
ENDBRANCH   7   8
ENDBRANCH   6   7
ENDBRANCH   5   6
ENDBRANCH   4   5
ENDBRANCH   3   4
TORSDOF 6
ENDMDL
MODEL 5
REMARK VINA RESULT:      -6.2      3.420      6.972
REMARK  6 active torsions:
REMARK  status: ('A' for Active; 'I' for Inactive)
REMARK    1  A    between atoms: C3_3  and  P1_4 
REMARK    2  A    between atoms: P1_4  and  C4_5 
REMARK    3  A    between atoms: C4_5  and  C5_6 
REMARK    4  A    between atoms: C5_6  and  C6_7 
REMARK    5  A    between atoms: C6_7  and  N1_8 
REMARK    6  A    between atoms: N1_8  and  C7_9 
ROOT
HETATM    1  C1  UNL     1      24.010   3.404  53.027  1.00  0.00     0.013 C 
HETATM    2  C2  UNL     1      24.045   2.246  52.843  1.00  0.00    -0.106 C 
HETATM    3  C3  UNL     1      24.110   0.863  52.619  1.00  0.00     0.176 C 
ENDROOT
BRANCH   3   4
HETATM    4  P1  UNL     1      22.832  -0.029  53.266  1.00  0.00    -0.113 P 
BRANCH   4   5
HETATM    5  C4  UNL     1      21.180   0.110  52.402  1.00  0.00     0.058 C 
BRANCH   5   6
HETATM    6  C5  UNL     1      21.442   0.504  51.004  1.00  0.00    -0.006 C 
BRANCH   6   7
HETATM    7  C6  UNL     1      22.002   1.302  50.165  1.00  0.00     0.086 C 
BRANCH   7   8
HETATM    8  N1  UNL     1      22.683   2.025  49.198  1.00  0.00    -0.349 N 
HETATM    9  H7  UNL     1      23.035   1.078  49.034  1.00  0.00     0.167 HD
BRANCH   8  10
HETATM   10  C7  UNL     1      22.602   3.402  48.949  1.00  0.00     0.159 A 
HETATM   11  N2  UNL     1      21.437   3.918  48.592  1.00  0.00    -0.222 NA
HETATM   12  C8  UNL     1      21.294   5.251  48.332  1.00  0.00     0.238 A 
HETATM   13  N3  UNL     1      22.397   5.994  48.459  1.00  0.00    -0.215 NA
HETATM   14  C9  UNL     1      23.599   5.504  48.820  1.00  0.00     0.202 A 
HETATM   15  C10 UNL     1      23.718   4.151  49.078  1.00  0.00     0.129 A 
HETATM   16  O1  UNL     1      24.640   6.420  48.903  1.00  0.00    -0.289 OA
HETATM   17  N4  UNL     1      24.796   3.339  49.465  1.00  0.00    -0.379 N 
HETATM   18  C11 UNL     1      26.204   3.660  49.500  1.00  0.00     0.161 C 
HETATM   19  H9  UNL     1      24.686   2.358  49.788  1.00  0.00     0.160 HD
HETATM   20  C12 UNL     1      26.575   4.961  48.959  1.00  0.00    -0.007 A 
HETATM   21  C13 UNL     1      27.945   4.876  48.670  1.00  0.00     0.011 A 
HETATM   22  C17 UNL     1      25.986   6.174  48.674  1.00  0.00     0.086 A 
HETATM   23  C14 UNL     1      28.677   5.912  48.138  1.00  0.00     0.001 A 
HETATM   24  C15 UNL     1      28.030   7.105  47.873  1.00  0.00     0.003 A 
HETATM   25  C16 UNL     1      26.682   7.247  48.137  1.00  0.00     0.038 A 
ENDBRANCH   8  10
ENDBRANCH   7   8
ENDBRANCH   6   7
ENDBRANCH   5   6
ENDBRANCH   4   5
ENDBRANCH   3   4
TORSDOF 6
ENDMDL
MODEL 6
REMARK VINA RESULT:      -6.1      3.972      6.048
REMARK  6 active torsions:
REMARK  status: ('A' for Active; 'I' for Inactive)
REMARK    1  A    between atoms: C3_3  and  P1_4 
REMARK    2  A    between atoms: P1_4  and  C4_5 
REMARK    3  A    between atoms: C4_5  and  C5_6 
REMARK    4  A    between atoms: C5_6  and  C6_7 
REMARK    5  A    between atoms: C6_7  and  N1_8 
REMARK    6  A    between atoms: N1_8  and  C7_9 
ROOT
HETATM    1  C1  UNL     1      20.158   4.343  50.951  1.00  0.00     0.013 C 
HETATM    2  C2  UNL     1      20.432   3.360  50.373  1.00  0.00    -0.106 C 
HETATM    3  C3  UNL     1      20.735   2.180  49.679  1.00  0.00     0.176 C 
ENDROOT
BRANCH   3   4
HETATM    4  P1  UNL     1      22.275   2.129  48.990  1.00  0.00    -0.113 P 
BRANCH   4   5
HETATM    5  C4  UNL     1      23.170   3.759  48.796  1.00  0.00     0.058 C 
BRANCH   5   6
HETATM    6  C5  UNL     1      24.482   3.625  49.458  1.00  0.00    -0.006 C 
BRANCH   6   7
HETATM    7  C6  UNL     1      25.187   3.193  50.443  1.00  0.00     0.086 C 
BRANCH   7   8
HETATM    8  N1  UNL     1      25.942   2.884  51.564  1.00  0.00    -0.349 N 
HETATM    9  H7  UNL     1      26.193   3.865  51.408  1.00  0.00     0.167 HD
BRANCH   8  10
HETATM   10  C7  UNL     1      26.004   1.657  52.238  1.00  0.00     0.159 A 
HETATM   11  N2  UNL     1      27.140   0.979  52.223  1.00  0.00    -0.222 NA
HETATM   12  C8  UNL     1      27.264  -0.224  52.859  1.00  0.00     0.238 A 
HETATM   13  N3  UNL     1      26.173  -0.668  53.489  1.00  0.00    -0.215 NA
HETATM   14  C9  UNL     1      25.000  -0.006  53.525  1.00  0.00     0.202 A 
HETATM   15  C10 UNL     1      24.900   1.210  52.875  1.00  0.00     0.129 A 
HETATM   16  O1  UNL     1      23.968  -0.614  54.227  1.00  0.00    -0.289 OA
HETATM   17  N4  UNL     1      23.853   2.133  52.720  1.00  0.00    -0.379 N 
HETATM   18  C11 UNL     1      22.451   1.971  53.029  1.00  0.00     0.161 C 
HETATM   19  H9  UNL     1      23.987   3.091  52.342  1.00  0.00     0.160 HD
HETATM   20  C12 UNL     1      22.042   0.640  53.455  1.00  0.00    -0.007 A 
HETATM   21  C13 UNL     1      20.655   0.585  53.256  1.00  0.00     0.011 A 
HETATM   22  C17 UNL     1      22.609  -0.507  53.971  1.00  0.00     0.086 A 
HETATM   23  C14 UNL     1      19.886  -0.518  53.542  1.00  0.00     0.001 A 
HETATM   24  C15 UNL     1      20.512  -1.639  54.056  1.00  0.00     0.003 A 
HETATM   25  C16 UNL     1      21.876  -1.645  54.274  1.00  0.00     0.038 A 
ENDBRANCH   8  10
ENDBRANCH   7   8
ENDBRANCH   6   7
ENDBRANCH   5   6
ENDBRANCH   4   5
ENDBRANCH   3   4
TORSDOF 6
ENDMDL
MODEL 7
REMARK VINA RESULT:      -6.1      4.879      7.293
REMARK  6 active torsions:
REMARK  status: ('A' for Active; 'I' for Inactive)
REMARK    1  A    between atoms: C3_3  and  P1_4 
REMARK    2  A    between atoms: P1_4  and  C4_5 
REMARK    3  A    between atoms: C4_5  and  C5_6 
REMARK    4  A    between atoms: C5_6  and  C6_7 
REMARK    5  A    between atoms: C6_7  and  N1_8 
REMARK    6  A    between atoms: N1_8  and  C7_9 
ROOT
HETATM    1  C1  UNL     1      33.189   5.415  43.826  1.00  0.00     0.013 C 
HETATM    2  C2  UNL     1      33.139   4.704  44.758  1.00  0.00    -0.106 C 
HETATM    3  C3  UNL     1      33.058   3.844  45.863  1.00  0.00     0.176 C 
ENDROOT
BRANCH   3   4
HETATM    4  P1  UNL     1      34.511   3.592  46.683  1.00  0.00    -0.113 P 
BRANCH   4   5
HETATM    5  C4  UNL     1      34.791   4.596  48.236  1.00  0.00     0.058 C 
BRANCH   5   6
HETATM    6  C5  UNL     1      33.683   5.564  48.344  1.00  0.00    -0.006 C 
BRANCH   6   7
HETATM    7  C6  UNL     1      32.539   5.889  48.835  1.00  0.00     0.086 C 
BRANCH   7   8
HETATM    8  N1  UNL     1      31.355   6.398  49.344  1.00  0.00    -0.349 N 
HETATM    9  H7  UNL     1      31.605   5.705  50.055  1.00  0.00     0.167 HD
BRANCH   8  10
HETATM   10  C7  UNL     1      30.544   7.393  48.784  1.00  0.00     0.159 A 
HETATM   11  N2  UNL     1      31.047   8.604  48.610  1.00  0.00    -0.222 NA
HETATM   12  C8  UNL     1      30.306   9.618  48.072  1.00  0.00     0.238 A 
HETATM   13  N3  UNL     1      29.051   9.310  47.735  1.00  0.00    -0.215 NA
HETATM   14  C9  UNL     1      28.504   8.089  47.897  1.00  0.00     0.202 A 
HETATM   15  C10 UNL     1      29.274   7.080  48.444  1.00  0.00     0.129 A 
HETATM   16  O1  UNL     1      27.183   7.945  47.492  1.00  0.00    -0.289 OA
HETATM   17  N4  UNL     1      29.020   5.731  48.740  1.00  0.00    -0.379 N 
HETATM   18  C11 UNL     1      27.756   5.031  48.759  1.00  0.00     0.161 C 
HETATM   19  H9  UNL     1      29.763   5.051  48.995  1.00  0.00     0.160 HD
HETATM   20  C12 UNL     1      26.570   5.851  48.551  1.00  0.00    -0.007 A 
HETATM   21  C13 UNL     1      25.496   5.101  49.051  1.00  0.00     0.011 A 
HETATM   22  C17 UNL     1      26.237   7.082  48.028  1.00  0.00     0.086 A 
HETATM   23  C14 UNL     1      24.191   5.536  49.038  1.00  0.00     0.001 A 
HETATM   24  C15 UNL     1      23.919   6.781  48.500  1.00  0.00     0.003 A 
HETATM   25  C16 UNL     1      24.937   7.565  47.992  1.00  0.00     0.038 A 
ENDBRANCH   8  10
ENDBRANCH   7   8
ENDBRANCH   6   7
ENDBRANCH   5   6
ENDBRANCH   4   5
ENDBRANCH   3   4
TORSDOF 6
ENDMDL
MODEL 8
REMARK VINA RESULT:      -6.0      5.147      7.532
REMARK  6 active torsions:
REMARK  status: ('A' for Active; 'I' for Inactive)
REMARK    1  A    between atoms: C3_3  and  P1_4 
REMARK    2  A    between atoms: P1_4  and  C4_5 
REMARK    3  A    between atoms: C4_5  and  C5_6 
REMARK    4  A    between atoms: C5_6  and  C6_7 
REMARK    5  A    between atoms: C6_7  and  N1_8 
REMARK    6  A    between atoms: N1_8  and  C7_9 
ROOT
HETATM    1  C1  UNL     1      18.683   4.636  46.880  1.00  0.00     0.013 C 
HETATM    2  C2  UNL     1      18.192   4.101  47.801  1.00  0.00    -0.106 C 
HETATM    3  C3  UNL     1      17.583   3.457  48.888  1.00  0.00     0.176 C 
ENDROOT
BRANCH   3   4
HETATM    4  P1  UNL     1      18.648   2.818  50.031  1.00  0.00    -0.113 P 
BRANCH   4   5
HETATM    5  C4  UNL     1      18.677   0.957  50.213  1.00  0.00     0.058 C 
BRANCH   5   6
HETATM    6  C5  UNL     1      19.955   0.595  50.855  1.00  0.00    -0.006 C 
BRANCH   6   7
HETATM    7  C6  UNL     1      20.840   0.814  51.762  1.00  0.00     0.086 C 
BRANCH   7   8
HETATM    8  N1  UNL     1      21.868   1.151  52.629  1.00  0.00    -0.349 N 
HETATM    9  H7  UNL     1      21.640   2.059  52.214  1.00  0.00     0.167 HD
BRANCH   8  10
HETATM   10  C7  UNL     1      22.585   0.295  53.476  1.00  0.00     0.159 A 
HETATM   11  N2  UNL     1      21.917  -0.476  54.318  1.00  0.00    -0.222 NA
HETATM   12  C8  UNL     1      22.558  -1.329  55.171  1.00  0.00     0.238 A 
HETATM   13  N3  UNL     1      23.892  -1.334  55.101  1.00  0.00    -0.215 NA
HETATM   14  C9  UNL     1      24.606  -0.563  54.258  1.00  0.00     0.202 A 
HETATM   15  C10 UNL     1      23.934   0.292  53.404  1.00  0.00     0.129 A 
HETATM   16  O1  UNL     1      25.987  -0.695  54.319  1.00  0.00    -0.289 OA
HETATM   17  N4  UNL     1      24.362   1.206  52.427  1.00  0.00    -0.379 N 
HETATM   18  C11 UNL     1      25.696   1.695  52.169  1.00  0.00     0.161 C 
HETATM   19  H9  UNL     1      23.721   1.655  51.743  1.00  0.00     0.160 HD
HETATM   20  C12 UNL     1      26.723   1.275  53.112  1.00  0.00    -0.007 A 
HETATM   21  C13 UNL     1      27.777   2.189  52.961  1.00  0.00     0.011 A 
HETATM   22  C17 UNL     1      26.931   0.286  54.050  1.00  0.00     0.086 A 
HETATM   23  C14 UNL     1      28.945   2.131  53.684  1.00  0.00     0.001 A 
HETATM   24  C15 UNL     1      29.095   1.117  54.611  1.00  0.00     0.003 A 
HETATM   25  C16 UNL     1      28.091   0.187  54.804  1.00  0.00     0.038 A 
ENDBRANCH   8  10
ENDBRANCH   7   8
ENDBRANCH   6   7
ENDBRANCH   5   6
ENDBRANCH   4   5
ENDBRANCH   3   4
TORSDOF 6
ENDMDL
MODEL 9
REMARK VINA RESULT:      -5.8      5.453      8.768
REMARK  6 active torsions:
REMARK  status: ('A' for Active; 'I' for Inactive)
REMARK    1  A    between atoms: C3_3  and  P1_4 
REMARK    2  A    between atoms: P1_4  and  C4_5 
REMARK    3  A    between atoms: C4_5  and  C5_6 
REMARK    4  A    between atoms: C5_6  and  C6_7 
REMARK    5  A    between atoms: C6_7  and  N1_8 
REMARK    6  A    between atoms: N1_8  and  C7_9 
ROOT
HETATM    1  C1  UNL     1      13.293   0.616  53.750  1.00  0.00     0.013 C 
HETATM    2  C2  UNL     1      14.254   0.763  53.095  1.00  0.00    -0.106 C 
HETATM    3  C3  UNL     1      15.417   0.943  52.332  1.00  0.00     0.176 C 
ENDROOT
BRANCH   3   4
HETATM    4  P1  UNL     1      15.386   0.239  50.799  1.00  0.00    -0.113 P 
BRANCH   4   5
HETATM    5  C4  UNL     1      17.025   0.052  49.919  1.00  0.00     0.058 C 
BRANCH   5   6
HETATM    6  C5  UNL     1      18.062  -0.142  50.950  1.00  0.00    -0.006 C 
BRANCH   6   7
HETATM    7  C6  UNL     1      18.930   0.359  51.758  1.00  0.00     0.086 C 
BRANCH   7   8
HETATM    8  N1  UNL     1      19.736   0.924  52.733  1.00  0.00    -0.349 N 
HETATM    9  H7  UNL     1      19.191   0.251  53.279  1.00  0.00     0.167 HD
BRANCH   8  10
HETATM   10  C7  UNL     1      20.700   1.928  52.565  1.00  0.00     0.159 A 
HETATM   11  N2  UNL     1      20.321   3.104  52.095  1.00  0.00    -0.222 NA
HETATM   12  C8  UNL     1      21.213   4.122  51.906  1.00  0.00     0.238 A 
HETATM   13  N3  UNL     1      22.482   3.854  52.225  1.00  0.00    -0.215 NA
HETATM   14  C9  UNL     1      22.905   2.668  52.706  1.00  0.00     0.202 A 
HETATM   15  C10 UNL     1      21.983   1.654  52.888  1.00  0.00     0.129 A 
HETATM   16  O1  UNL     1      24.261   2.563  52.984  1.00  0.00    -0.289 OA
HETATM   17  N4  UNL     1      22.086   0.335  53.358  1.00  0.00    -0.379 N 
HETATM   18  C11 UNL     1      23.275  -0.449  53.597  1.00  0.00     0.161 C 
HETATM   19  H9  UNL     1      21.264  -0.253  53.599  1.00  0.00     0.160 HD
HETATM   20  C12 UNL     1      24.535   0.163  53.195  1.00  0.00    -0.007 A 
HETATM   21  C13 UNL     1      25.452  -0.892  53.082  1.00  0.00     0.011 A 
HETATM   22  C17 UNL     1      25.039   1.415  52.917  1.00  0.00     0.086 A 
HETATM   23  C14 UNL     1      26.768  -0.723  52.719  1.00  0.00     0.001 A 
HETATM   24  C15 UNL     1      27.216   0.558  52.451  1.00  0.00     0.003 A 
HETATM   25  C16 UNL     1      26.357   1.637  52.546  1.00  0.00     0.038 A 
ENDBRANCH   8  10
ENDBRANCH   7   8
ENDBRANCH   6   7
ENDBRANCH   5   6
ENDBRANCH   4   5
ENDBRANCH   3   4
TORSDOF 6
ENDMDL
