MODEL 1
REMARK VINA RESULT:      -8.8      0.000      0.000
REMARK  7 active torsions:
REMARK  status: ('A' for Active; 'I' for Inactive)
REMARK    1  A    between atoms: N1_5  and  C5_6 
REMARK    2  A    between atoms: C7_9  and  C8_10 
REMARK    3  A    between atoms: C9_11  and  N3_12 
REMARK       I    between atoms: N3_12  and  C10_13 
REMARK    4  A    between atoms: C10_13  and  C11_15 
REMARK    5  A    between atoms: C11_15  and  O2_16 
REMARK    6  A    between atoms: O2_16  and  C12_17 
REMARK    7  A    between atoms: C20_26  and  N4_27 
ROOT
HETATM    1  C5  UNL     1      28.262   7.225  47.783  1.00  0.00     0.270 A 
HETATM    2  C6  UNL     1      28.946   5.945  48.054  1.00  0.00     0.126 A 
HETATM    3  N2  UNL     1      28.575   4.782  48.544  1.00  0.00    -0.263 NA
HETATM    4  C7  UNL     1      27.194   4.626  48.940  1.00  0.00     0.053 A 
HETATM    5  C18 UNL     1      26.569   5.763  48.703  1.00  0.00     0.007 A 
HETATM    6  C19 UNL     1      26.827   7.114  48.174  1.00  0.00     0.071 A 
ENDROOT
BRANCH   4   7
HETATM    7  C8  UNL     1      26.580   3.442  49.501  1.00  0.00     0.048 C 
HETATM    8  C9  UNL     1      25.696   3.482  50.469  1.00  0.00     0.093 C 
BRANCH   8   9
HETATM    9  N3  UNL     1      25.144   2.264  50.958  1.00  0.00    -0.335 N 
HETATM   10  C10 UNL     1      24.489   2.350  52.232  1.00  0.00     0.245 C 
HETATM   11  O1  UNL     1      24.476   3.512  52.770  1.00  0.00    -0.271 OA
HETATM   12  H11 UNL     1      25.076   1.279  50.625  1.00  0.00     0.168 HD
BRANCH  10  13
HETATM   13  C11 UNL     1      23.786   1.420  53.140  1.00  0.00     0.278 C 
BRANCH  13  14
HETATM   14  O2  UNL     1      24.426   0.196  53.280  1.00  0.00    -0.342 OA
BRANCH  14  15
HETATM   15  C12 UNL     1      25.749   0.068  53.616  1.00  0.00     0.069 A 
HETATM   16  C13 UNL     1      26.405  -0.712  52.656  1.00  0.00     0.040 A 
HETATM   17  C14 UNL     1      27.764  -1.005  52.749  1.00  0.00     0.045 A 
HETATM   18  C15 UNL     1      28.487  -0.517  53.816  1.00  0.00     0.116 A 
HETATM   19  F1  UNL     1      29.818  -0.754  53.987  1.00  0.00    -0.206 F 
HETATM   20  C16 UNL     1      27.864   0.254  54.776  1.00  0.00     0.045 A 
HETATM   21  C17 UNL     1      26.522   0.544  54.682  1.00  0.00     0.040 A 
ENDBRANCH  14  15
ENDBRANCH  13  14
ENDBRANCH  10  13
ENDBRANCH   8   9
ENDBRANCH   4   7
BRANCH   1  22
HETATM   22  N1  UNL     1      28.925   8.381  48.320  1.00  0.00     0.135 N 
HETATM   23  C4  UNL     1      29.721   8.986  47.286  1.00  0.00     0.304 C 
HETATM   24  C3  UNL     1      30.537  10.072  47.953  1.00  0.00     0.006 C 
HETATM   25  C2  UNL     1      29.873  11.021  48.604  1.00  0.00    -0.082 C 
HETATM   26  C1  UNL     1      30.557  12.130  49.292  1.00  0.00     0.043 C 
HETATM   27  C21 UNL     1      28.413  10.736  48.494  1.00  0.00     0.101 C 
HETATM   28  C20 UNL     1      28.064   9.343  48.903  1.00  0.00     0.456 C 
BRANCH  28  29
HETATM   29  N4  UNL     1      28.110   9.336  50.373  1.00  0.00     0.112 N 
HETATM   30  H22 UNL     1      28.284   8.397  50.756  1.00  0.00     0.315 HD
HETATM   31  H23 UNL     1      28.852   9.983  50.703  1.00  0.00     0.315 HD
ENDBRANCH  28  29
ENDBRANCH   1  22
TORSDOF 7
ENDMDL
MODEL 2
REMARK VINA RESULT:      -8.7      2.359      3.048
REMARK  7 active torsions:
REMARK  status: ('A' for Active; 'I' for Inactive)
REMARK    1  A    between atoms: N1_5  and  C5_6 
REMARK    2  A    between atoms: C7_9  and  C8_10 
REMARK    3  A    between atoms: C9_11  and  N3_12 
REMARK       I    between atoms: N3_12  and  C10_13 
REMARK    4  A    between atoms: C10_13  and  C11_15 
REMARK    5  A    between atoms: C11_15  and  O2_16 
REMARK    6  A    between atoms: O2_16  and  C12_17 
REMARK    7  A    between atoms: C20_26  and  N4_27 
ROOT
HETATM    1  C5  UNL     1      27.838   7.189  47.944  1.00  0.00     0.270 A 
HETATM    2  C6  UNL     1      28.555   5.904  48.071  1.00  0.00     0.126 A 
HETATM    3  N2  UNL     1      28.258   4.723  48.569  1.00  0.00    -0.263 NA
HETATM    4  C7  UNL     1      26.948   4.546  49.152  1.00  0.00     0.053 A 
HETATM    5  C18 UNL     1      26.294   5.687  49.045  1.00  0.00     0.007 A 
HETATM    6  C19 UNL     1      26.473   7.056  48.532  1.00  0.00     0.071 A 
ENDROOT
BRANCH   4   7
HETATM    7  C8  UNL     1      26.421   3.340  49.752  1.00  0.00     0.048 C 
HETATM    8  C9  UNL     1      26.818   2.886  50.917  1.00  0.00     0.093 C 
BRANCH   8   9
HETATM    9  N3  UNL     1      26.242   1.688  51.430  1.00  0.00    -0.335 N 
HETATM   10  C10 UNL     1      27.045   0.976  52.383  1.00  0.00     0.245 C 
HETATM   11  O1  UNL     1      28.177   1.506  52.659  1.00  0.00    -0.271 OA
HETATM   12  H11 UNL     1      25.351   1.165  51.303  1.00  0.00     0.168 HD
BRANCH  10  13
HETATM   13  C11 UNL     1      26.917  -0.264  53.177  1.00  0.00     0.278 C 
BRANCH  13  14
HETATM   14  O2  UNL     1      26.052  -0.142  54.255  1.00  0.00    -0.342 OA
BRANCH  14  15
HETATM   15  C12 UNL     1      24.716  -0.442  54.190  1.00  0.00     0.069 A 
HETATM   16  C13 UNL     1      24.338  -1.156  55.334  1.00  0.00     0.040 A 
HETATM   17  C14 UNL     1      23.030  -1.592  55.532  1.00  0.00     0.045 A 
HETATM   18  C15 UNL     1      22.076  -1.315  54.576  1.00  0.00     0.116 A 
HETATM   19  F1  UNL     1      20.774  -1.703  54.686  1.00  0.00    -0.206 F 
HETATM   20  C16 UNL     1      22.422  -0.613  53.440  1.00  0.00     0.045 A 
HETATM   21  C17 UNL     1      23.715  -0.183  53.247  1.00  0.00     0.040 A 
ENDBRANCH  14  15
ENDBRANCH  13  14
ENDBRANCH  10  13
ENDBRANCH   8   9
ENDBRANCH   4   7
BRANCH   1  22
HETATM   22  N1  UNL     1      28.570   8.329  48.422  1.00  0.00     0.135 N 
HETATM   23  C4  UNL     1      29.272   8.929  47.318  1.00  0.00     0.304 C 
HETATM   24  C3  UNL     1      30.167   9.996  47.909  1.00  0.00     0.006 C 
HETATM   25  C2  UNL     1      29.586  10.951  48.627  1.00  0.00    -0.082 C 
HETATM   26  C1  UNL     1      30.353  12.043  49.252  1.00  0.00     0.043 C 
HETATM   27  C21 UNL     1      28.118  10.691  48.658  1.00  0.00     0.101 C 
HETATM   28  C20 UNL     1      27.785   9.302  49.091  1.00  0.00     0.456 C 
BRANCH  28  29
HETATM   29  N4  UNL     1      27.974   9.282  50.549  1.00  0.00     0.112 N 
HETATM   30  H22 UNL     1      28.313   8.372  50.890  1.00  0.00     0.315 HD
HETATM   31  H23 UNL     1      28.647  10.023  50.825  1.00  0.00     0.315 HD
ENDBRANCH  28  29
ENDBRANCH   1  22
TORSDOF 7
ENDMDL
MODEL 3
REMARK VINA RESULT:      -8.0      4.263      9.728
REMARK  7 active torsions:
REMARK  status: ('A' for Active; 'I' for Inactive)
REMARK    1  A    between atoms: N1_5  and  C5_6 
REMARK    2  A    between atoms: C7_9  and  C8_10 
REMARK    3  A    between atoms: C9_11  and  N3_12 
REMARK       I    between atoms: N3_12  and  C10_13 
REMARK    4  A    between atoms: C10_13  and  C11_15 
REMARK    5  A    between atoms: C11_15  and  O2_16 
REMARK    6  A    between atoms: O2_16  and  C12_17 
REMARK    7  A    between atoms: C20_26  and  N4_27 
ROOT
HETATM    1  C5  UNL     1      22.129   2.584  50.917  1.00  0.00     0.270 A 
HETATM    2  C6  UNL     1      22.557   3.761  51.699  1.00  0.00     0.126 A 
HETATM    3  N2  UNL     1      23.509   4.659  51.573  1.00  0.00    -0.263 NA
HETATM    4  C7  UNL     1      24.395   4.551  50.436  1.00  0.00     0.053 A 
HETATM    5  C18 UNL     1      24.022   3.503  49.726  1.00  0.00     0.007 A 
HETATM    6  C19 UNL     1      23.013   2.430  49.726  1.00  0.00     0.071 A 
ENDROOT
BRANCH   4   7
HETATM    7  C8  UNL     1      25.500   5.425  50.110  1.00  0.00     0.048 C 
HETATM    8  C9  UNL     1      26.193   5.321  49.001  1.00  0.00     0.093 C 
BRANCH   8   9
HETATM    9  N3  UNL     1      27.267   6.227  48.764  1.00  0.00    -0.335 N 
HETATM   10  C10 UNL     1      28.527   5.620  48.443  1.00  0.00     0.245 C 
HETATM   11  O1  UNL     1      28.531   4.341  48.404  1.00  0.00    -0.271 OA
HETATM   12  H11 UNL     1      27.393   7.261  48.753  1.00  0.00     0.168 HD
BRANCH  10  13
HETATM   13  C11 UNL     1      29.893   6.090  48.128  1.00  0.00     0.278 C 
BRANCH  13  14
HETATM   14  O2  UNL     1      30.890   5.301  48.684  1.00  0.00    -0.342 OA
BRANCH  14  15
HETATM   15  C12 UNL     1      32.044   4.965  48.026  1.00  0.00     0.069 A 
HETATM   16  C13 UNL     1      31.765   4.001  47.050  1.00  0.00     0.040 A 
HETATM   17  C14 UNL     1      32.760   3.475  46.227  1.00  0.00     0.045 A 
HETATM   18  C15 UNL     1      34.058   3.914  46.377  1.00  0.00     0.116 A 
HETATM   19  F1  UNL     1      35.093   3.456  45.618  1.00  0.00    -0.206 F 
HETATM   20  C16 UNL     1      34.360   4.863  47.332  1.00  0.00     0.045 A 
HETATM   21  C17 UNL     1      33.376   5.382  48.142  1.00  0.00     0.040 A 
ENDBRANCH  14  15
ENDBRANCH  13  14
ENDBRANCH  10  13
ENDBRANCH   8   9
ENDBRANCH   4   7
BRANCH   1  22
HETATM   22  N1  UNL     1      21.973   1.381  51.688  1.00  0.00     0.135 N 
HETATM   23  C4  UNL     1      23.030   1.309  52.660  1.00  0.00     0.304 C 
HETATM   24  C3  UNL     1      22.927  -0.056  53.305  1.00  0.00     0.006 C 
HETATM   25  C2  UNL     1      21.775  -0.368  53.889  1.00  0.00    -0.082 C 
HETATM   26  C1  UNL     1      21.555  -1.667  54.550  1.00  0.00     0.043 C 
HETATM   27  C21 UNL     1      20.840   0.783  53.737  1.00  0.00     0.101 C 
HETATM   28  C20 UNL     1      20.713   1.241  52.322  1.00  0.00     0.456 C 
BRANCH  28  29
HETATM   29  N4  UNL     1      19.847   0.254  51.660  1.00  0.00     0.112 N 
HETATM   30  H22 UNL     1      20.229  -0.063  50.758  1.00  0.00     0.315 HD
HETATM   31  H23 UNL     1      19.713  -0.566  52.282  1.00  0.00     0.315 HD
ENDBRANCH  28  29
ENDBRANCH   1  22
TORSDOF 7
ENDMDL
MODEL 4
REMARK VINA RESULT:      -7.8      4.395      9.420
REMARK  7 active torsions:
REMARK  status: ('A' for Active; 'I' for Inactive)
REMARK    1  A    between atoms: N1_5  and  C5_6 
REMARK    2  A    between atoms: C7_9  and  C8_10 
REMARK    3  A    between atoms: C9_11  and  N3_12 
REMARK       I    between atoms: N3_12  and  C10_13 
REMARK    4  A    between atoms: C10_13  and  C11_15 
REMARK    5  A    between atoms: C11_15  and  O2_16 
REMARK    6  A    between atoms: O2_16  and  C12_17 
REMARK    7  A    between atoms: C20_26  and  N4_27 
ROOT
HETATM    1  C5  UNL     1      25.151   3.194  50.299  1.00  0.00     0.270 A 
HETATM    2  C6  UNL     1      25.146   4.662  50.460  1.00  0.00     0.126 A 
HETATM    3  N2  UNL     1      25.874   5.648  49.983  1.00  0.00    -0.263 NA
HETATM    4  C7  UNL     1      26.956   5.315  49.084  1.00  0.00     0.053 A 
HETATM    5  C18 UNL     1      26.972   4.005  48.931  1.00  0.00     0.007 A 
HETATM    6  C19 UNL     1      26.253   2.798  49.376  1.00  0.00     0.071 A 
ENDROOT
BRANCH   4   7
HETATM    7  C8  UNL     1      27.874   6.237  48.451  1.00  0.00     0.048 C 
HETATM    8  C9  UNL     1      29.113   5.925  48.155  1.00  0.00     0.093 C 
BRANCH   8   9
HETATM    9  N3  UNL     1      29.944   6.899  47.531  1.00  0.00    -0.335 N 
HETATM   10  C10 UNL     1      31.145   7.233  48.244  1.00  0.00     0.245 C 
HETATM   11  O1  UNL     1      31.323   6.611  49.349  1.00  0.00    -0.271 OA
HETATM   12  H11 UNL     1      29.924   7.459  46.653  1.00  0.00     0.168 HD
BRANCH  10  13
HETATM   13  C11 UNL     1      32.292   8.142  48.043  1.00  0.00     0.278 C 
BRANCH  13  14
HETATM   14  O2  UNL     1      33.522   7.504  48.121  1.00  0.00    -0.342 OA
BRANCH  14  15
HETATM   15  C12 UNL     1      33.864   6.424  47.350  1.00  0.00     0.069 A 
HETATM   16  C13 UNL     1      34.405   5.419  48.161  1.00  0.00     0.040 A 
HETATM   17  C14 UNL     1      34.840   4.203  47.637  1.00  0.00     0.045 A 
HETATM   18  C15 UNL     1      34.739   3.980  46.281  1.00  0.00     0.116 A 
HETATM   19  F1  UNL     1      35.140   2.823  45.683  1.00  0.00    -0.206 F 
HETATM   20  C16 UNL     1      34.210   4.954  45.459  1.00  0.00     0.045 A 
HETATM   21  C17 UNL     1      33.780   6.154  45.979  1.00  0.00     0.040 A 
ENDBRANCH  14  15
ENDBRANCH  13  14
ENDBRANCH  10  13
ENDBRANCH   8   9
ENDBRANCH   4   7
BRANCH   1  22
HETATM   22  N1  UNL     1      25.133   2.460  51.535  1.00  0.00     0.135 N 
HETATM   23  C4  UNL     1      24.038   1.528  51.509  1.00  0.00     0.304 C 
HETATM   24  C3  UNL     1      23.954   0.927  52.895  1.00  0.00     0.006 C 
HETATM   25  C2  UNL     1      25.037   0.313  53.360  1.00  0.00    -0.082 C 
HETATM   26  C1  UNL     1      25.076  -0.310  54.695  1.00  0.00     0.043 C 
HETATM   27  C21 UNL     1      26.107   0.394  52.324  1.00  0.00     0.101 C 
HETATM   28  C20 UNL     1      26.342   1.787  51.843  1.00  0.00     0.456 C 
BRANCH  28  29
HETATM   29  N4  UNL     1      27.110   2.452  52.907  1.00  0.00     0.112 N 
HETATM   30  H22 UNL     1      27.174   1.882  53.761  1.00  0.00     0.315 HD
HETATM   31  H23 UNL     1      28.067   2.667  52.565  1.00  0.00     0.315 HD
ENDBRANCH  28  29
ENDBRANCH   1  22
TORSDOF 7
ENDMDL
MODEL 5
REMARK VINA RESULT:      -7.7      3.891     10.005
REMARK  7 active torsions:
REMARK  status: ('A' for Active; 'I' for Inactive)
REMARK    1  A    between atoms: N1_5  and  C5_6 
REMARK    2  A    between atoms: C7_9  and  C8_10 
REMARK    3  A    between atoms: C9_11  and  N3_12 
REMARK       I    between atoms: N3_12  and  C10_13 
REMARK    4  A    between atoms: C10_13  and  C11_15 
REMARK    5  A    between atoms: C11_15  and  O2_16 
REMARK    6  A    between atoms: O2_16  and  C12_17 
REMARK    7  A    between atoms: C20_26  and  N4_27 
ROOT
HETATM    1  C5  UNL     1      25.223   3.205  50.331  1.00  0.00     0.270 A 
HETATM    2  C6  UNL     1      24.871   4.627  50.511  1.00  0.00     0.126 A 
HETATM    3  N2  UNL     1      25.356   5.766  50.064  1.00  0.00    -0.263 NA
HETATM    4  C7  UNL     1      26.503   5.712  49.186  1.00  0.00     0.053 A 
HETATM    5  C18 UNL     1      26.829   4.446  49.014  1.00  0.00     0.007 A 
HETATM    6  C19 UNL     1      26.405   3.096  49.427  1.00  0.00     0.071 A 
ENDROOT
BRANCH   4   7
HETATM    7  C8  UNL     1      27.190   6.835  48.586  1.00  0.00     0.048 C 
HETATM    8  C9  UNL     1      26.701   8.052  48.573  1.00  0.00     0.093 C 
BRANCH   8   9
HETATM    9  N3  UNL     1      27.450   9.096  47.959  1.00  0.00    -0.335 N 
HETATM   10  C10 UNL     1      27.811  10.186  48.821  1.00  0.00     0.245 C 
HETATM   11  O1  UNL     1      27.421  10.082  50.036  1.00  0.00    -0.271 OA
HETATM   12  H11 UNL     1      27.833   9.294  47.011  1.00  0.00     0.168 HD
BRANCH  10  13
HETATM   13  C11 UNL     1      28.550  11.458  48.687  1.00  0.00     0.278 C 
BRANCH  13  14
HETATM   14  O2  UNL     1      29.834  11.409  49.211  1.00  0.00    -0.342 OA
BRANCH  14  15
HETATM   15  C12 UNL     1      30.885  10.793  48.582  1.00  0.00     0.069 A 
HETATM   16  C13 UNL     1      31.618  11.739  47.855  1.00  0.00     0.040 A 
HETATM   17  C14 UNL     1      32.745  11.387  47.115  1.00  0.00     0.045 A 
HETATM   18  C15 UNL     1      33.153  10.071  47.094  1.00  0.00     0.116 A 
HETATM   19  F1  UNL     1      34.241   9.638  46.397  1.00  0.00    -0.206 F 
HETATM   20  C16 UNL     1      32.448   9.119  47.801  1.00  0.00     0.045 A 
HETATM   21  C17 UNL     1      31.335   9.469  48.532  1.00  0.00     0.040 A 
ENDBRANCH  14  15
ENDBRANCH  13  14
ENDBRANCH  10  13
ENDBRANCH   8   9
ENDBRANCH   4   7
BRANCH   1  22
HETATM   22  N1  UNL     1      25.356   2.464  51.555  1.00  0.00     0.135 N 
HETATM   23  C4  UNL     1      24.278   1.516  51.646  1.00  0.00     0.304 C 
HETATM   24  C3  UNL     1      24.359   0.906  53.028  1.00  0.00     0.006 C 
HETATM   25  C2  UNL     1      25.497   0.307  53.365  1.00  0.00    -0.082 C 
HETATM   26  C1  UNL     1      25.695  -0.322  54.683  1.00  0.00     0.043 C 
HETATM   27  C21 UNL     1      26.442   0.410  52.216  1.00  0.00     0.101 C 
HETATM   28  C20 UNL     1      26.601   1.809  51.721  1.00  0.00     0.456 C 
BRANCH  28  29
HETATM   29  N4  UNL     1      27.474   2.480  52.696  1.00  0.00     0.112 N 
HETATM   30  H22 UNL     1      27.467   2.016  53.615  1.00  0.00     0.315 HD
HETATM   31  H23 UNL     1      28.446   2.509  52.334  1.00  0.00     0.315 HD
ENDBRANCH  28  29
ENDBRANCH   1  22
TORSDOF 7
ENDMDL
MODEL 6
REMARK VINA RESULT:      -7.7      8.061     11.432
REMARK  7 active torsions:
REMARK  status: ('A' for Active; 'I' for Inactive)
REMARK    1  A    between atoms: N1_5  and  C5_6 
REMARK    2  A    between atoms: C7_9  and  C8_10 
REMARK    3  A    between atoms: C9_11  and  N3_12 
REMARK       I    between atoms: N3_12  and  C10_13 
REMARK    4  A    between atoms: C10_13  and  C11_15 
REMARK    5  A    between atoms: C11_15  and  O2_16 
REMARK    6  A    between atoms: O2_16  and  C12_17 
REMARK    7  A    between atoms: C20_26  and  N4_27 
ROOT
HETATM    1  C5  UNL     1      24.038   0.770  53.413  1.00  0.00     0.270 A 
HETATM    2  C6  UNL     1      23.675   1.285  52.078  1.00  0.00     0.126 A 
HETATM    3  N2  UNL     1      22.591   1.247  51.333  1.00  0.00    -0.263 NA
HETATM    4  C7  UNL     1      21.433   0.562  51.861  1.00  0.00     0.053 A 
HETATM    5  C18 UNL     1      21.742   0.097  53.056  1.00  0.00     0.007 A 
HETATM    6  C19 UNL     1      22.870   0.053  54.004  1.00  0.00     0.071 A 
ENDROOT
BRANCH   4   7
HETATM    7  C8  UNL     1      20.149   0.401  51.214  1.00  0.00     0.048 C 
HETATM    8  C9  UNL     1      19.007   0.548  51.841  1.00  0.00     0.093 C 
BRANCH   8   9
HETATM    9  N3  UNL     1      17.791   0.370  51.121  1.00  0.00    -0.335 N 
HETATM   10  C10 UNL     1      16.891   1.489  51.142  1.00  0.00     0.245 C 
HETATM   11  O1  UNL     1      17.294   2.510  51.801  1.00  0.00    -0.271 OA
HETATM   12  H11 UNL     1      17.356  -0.383  50.548  1.00  0.00     0.168 HD
BRANCH  10  13
HETATM   13  C11 UNL     1      15.560   1.804  50.583  1.00  0.00     0.278 C 
BRANCH  13  14
HETATM   14  O2  UNL     1      14.512   1.465  51.428  1.00  0.00    -0.342 OA
BRANCH  14  15
HETATM   15  C12 UNL     1      13.885   2.362  52.253  1.00  0.00     0.069 A 
HETATM   16  C13 UNL     1      12.990   1.685  53.091  1.00  0.00     0.040 A 
HETATM   17  C14 UNL     1      12.214   2.355  54.034  1.00  0.00     0.045 A 
HETATM   18  C15 UNL     1      12.326   3.724  54.148  1.00  0.00     0.116 A 
HETATM   19  F1  UNL     1      11.606   4.460  55.042  1.00  0.00    -0.206 F 
HETATM   20  C16 UNL     1      13.200   4.415  53.335  1.00  0.00     0.045 A 
HETATM   21  C17 UNL     1      13.966   3.751  52.404  1.00  0.00     0.040 A 
ENDBRANCH  14  15
ENDBRANCH  13  14
ENDBRANCH  10  13
ENDBRANCH   8   9
ENDBRANCH   4   7
BRANCH   1  22
HETATM   22  N1  UNL     1      25.262   0.018  53.450  1.00  0.00     0.135 N 
HETATM   23  C4  UNL     1      25.924   0.141  52.178  1.00  0.00     0.304 C 
HETATM   24  C3  UNL     1      27.096  -0.815  52.211  1.00  0.00     0.006 C 
HETATM   25  C2  UNL     1      27.987  -0.655  53.184  1.00  0.00    -0.082 C 
HETATM   26  C1  UNL     1      29.169  -1.524  53.319  1.00  0.00     0.043 C 
HETATM   27  C21 UNL     1      27.558   0.495  54.032  1.00  0.00     0.101 C 
HETATM   28  C20 UNL     1      26.146   0.374  54.499  1.00  0.00     0.456 C 
BRANCH  28  29
HETATM   29  N4  UNL     1      26.169  -0.617  55.586  1.00  0.00     0.112 N 
HETATM   30  H22 UNL     1      25.348  -0.545  56.201  1.00  0.00     0.315 HD
HETATM   31  H23 UNL     1      26.215  -1.574  55.186  1.00  0.00     0.315 HD
ENDBRANCH  28  29
ENDBRANCH   1  22
TORSDOF 7
ENDMDL
MODEL 7
REMARK VINA RESULT:      -7.7      7.794      9.927
REMARK  7 active torsions:
REMARK  status: ('A' for Active; 'I' for Inactive)
REMARK    1  A    between atoms: N1_5  and  C5_6 
REMARK    2  A    between atoms: C7_9  and  C8_10 
REMARK    3  A    between atoms: C9_11  and  N3_12 
REMARK       I    between atoms: N3_12  and  C10_13 
REMARK    4  A    between atoms: C10_13  and  C11_15 
REMARK    5  A    between atoms: C11_15  and  O2_16 
REMARK    6  A    between atoms: O2_16  and  C12_17 
REMARK    7  A    between atoms: C20_26  and  N4_27 
ROOT
HETATM    1  C5  UNL     1      23.589   5.869  51.418  1.00  0.00     0.270 A 
HETATM    2  C6  UNL     1      22.446   5.753  50.492  1.00  0.00     0.126 A 
HETATM    3  N2  UNL     1      21.329   5.058  50.482  1.00  0.00    -0.263 NA
HETATM    4  C7  UNL     1      21.074   4.173  51.596  1.00  0.00     0.053 A 
HETATM    5  C18 UNL     1      22.089   4.267  52.434  1.00  0.00     0.007 A 
HETATM    6  C19 UNL     1      23.373   4.973  52.591  1.00  0.00     0.071 A 
ENDROOT
BRANCH   4   7
HETATM    7  C8  UNL     1      19.919   3.323  51.784  1.00  0.00     0.048 C 
HETATM    8  C9  UNL     1      18.727   3.622  51.325  1.00  0.00     0.093 C 
BRANCH   8   9
HETATM    9  N3  UNL     1      17.647   2.723  51.558  1.00  0.00    -0.335 N 
HETATM   10  C10 UNL     1      16.345   3.220  51.214  1.00  0.00     0.245 C 
HETATM   11  O1  UNL     1      16.315   4.407  50.735  1.00  0.00    -0.271 OA
HETATM   12  H11 UNL     1      17.537   1.753  51.921  1.00  0.00     0.168 HD
BRANCH  10  13
HETATM   13  C11 UNL     1      14.958   2.713  51.260  1.00  0.00     0.278 C 
BRANCH  13  14
HETATM   14  O2  UNL     1      14.043   3.649  51.722  1.00  0.00    -0.342 OA
BRANCH  14  15
HETATM   15  C12 UNL     1      13.288   3.475  52.853  1.00  0.00     0.069 A 
HETATM   16  C13 UNL     1      13.128   2.107  53.106  1.00  0.00     0.040 A 
HETATM   17  C14 UNL     1      12.400   1.640  54.199  1.00  0.00     0.045 A 
HETATM   18  C15 UNL     1      11.818   2.548  55.057  1.00  0.00     0.116 A 
HETATM   19  F1  UNL     1      11.090   2.181  56.150  1.00  0.00    -0.206 F 
HETATM   20  C16 UNL     1      11.961   3.901  54.831  1.00  0.00     0.045 A 
HETATM   21  C17 UNL     1      12.681   4.360  53.751  1.00  0.00     0.040 A 
ENDBRANCH  14  15
ENDBRANCH  13  14
ENDBRANCH  10  13
ENDBRANCH   8   9
ENDBRANCH   4   7
BRANCH   1  22
HETATM   22  N1  UNL     1      24.877   5.717  50.798  1.00  0.00     0.135 N 
HETATM   23  C4  UNL     1      24.875   4.515  50.007  1.00  0.00     0.304 C 
HETATM   24  C3  UNL     1      26.299   4.308  49.539  1.00  0.00     0.006 C 
HETATM   25  C2  UNL     1      26.860   5.289  48.840  1.00  0.00    -0.082 C 
HETATM   26  C1  UNL     1      28.240   5.204  48.330  1.00  0.00     0.043 C 
HETATM   27  C21 UNL     1      25.870   6.397  48.702  1.00  0.00     0.101 C 
HETATM   28  C20 UNL     1      25.291   6.821  50.011  1.00  0.00     0.456 C 
BRANCH  28  29
HETATM   29  N4  UNL     1      26.332   7.628  50.664  1.00  0.00     0.112 N 
HETATM   30  H22 UNL     1      26.015   8.583  50.876  1.00  0.00     0.315 HD
HETATM   31  H23 UNL     1      26.634   7.165  51.543  1.00  0.00     0.315 HD
ENDBRANCH  28  29
ENDBRANCH   1  22
TORSDOF 7
ENDMDL
MODEL 8
REMARK VINA RESULT:      -7.7      5.115     11.353
REMARK  7 active torsions:
REMARK  status: ('A' for Active; 'I' for Inactive)
REMARK    1  A    between atoms: N1_5  and  C5_6 
REMARK    2  A    between atoms: C7_9  and  C8_10 
REMARK    3  A    between atoms: C9_11  and  N3_12 
REMARK       I    between atoms: N3_12  and  C10_13 
REMARK    4  A    between atoms: C10_13  and  C11_15 
REMARK    5  A    between atoms: C11_15  and  O2_16 
REMARK    6  A    between atoms: O2_16  and  C12_17 
REMARK    7  A    between atoms: C20_26  and  N4_27 
ROOT
HETATM    1  C5  UNL     1      25.230   3.335  50.277  1.00  0.00     0.270 A 
HETATM    2  C6  UNL     1      24.932   4.767  50.478  1.00  0.00     0.126 A 
HETATM    3  N2  UNL     1      25.447   5.892  50.031  1.00  0.00    -0.263 NA
HETATM    4  C7  UNL     1      26.571   5.808  49.127  1.00  0.00     0.053 A 
HETATM    5  C18 UNL     1      26.849   4.532  48.937  1.00  0.00     0.007 A 
HETATM    6  C19 UNL     1      26.387   3.194  49.346  1.00  0.00     0.071 A 
ENDROOT
BRANCH   4   7
HETATM    7  C8  UNL     1      27.284   6.912  48.523  1.00  0.00     0.048 C 
HETATM    8  C9  UNL     1      27.721   7.943  49.206  1.00  0.00     0.093 C 
BRANCH   8   9
HETATM    9  N3  UNL     1      28.414   8.985  48.525  1.00  0.00    -0.335 N 
HETATM   10  C10 UNL     1      28.081  10.319  48.935  1.00  0.00     0.245 C 
HETATM   11  O1  UNL     1      27.206  10.409  49.866  1.00  0.00    -0.271 OA
HETATM   12  H11 UNL     1      29.138   9.048  47.779  1.00  0.00     0.168 HD
BRANCH  10  13
HETATM   13  C11 UNL     1      28.491  11.689  48.562  1.00  0.00     0.278 C 
BRANCH  13  14
HETATM   14  O2  UNL     1      27.600  12.666  48.984  1.00  0.00    -0.342 OA
BRANCH  14  15
HETATM   15  C12 UNL     1      27.303  13.785  48.251  1.00  0.00     0.069 A 
HETATM   16  C13 UNL     1      28.454  14.238  47.595  1.00  0.00     0.040 A 
HETATM   17  C14 UNL     1      28.441  15.366  46.776  1.00  0.00     0.045 A 
HETATM   18  C15 UNL     1      27.262  16.059  46.605  1.00  0.00     0.116 A 
HETATM   19  F1  UNL     1      27.157  17.171  45.824  1.00  0.00    -0.206 F 
HETATM   20  C16 UNL     1      26.113  15.634  47.240  1.00  0.00     0.045 A 
HETATM   21  C17 UNL     1      26.128  14.520  48.048  1.00  0.00     0.040 A 
ENDBRANCH  14  15
ENDBRANCH  13  14
ENDBRANCH  10  13
ENDBRANCH   8   9
ENDBRANCH   4   7
BRANCH   1  22
HETATM   22  N1  UNL     1      25.364   2.578  51.491  1.00  0.00     0.135 N 
HETATM   23  C4  UNL     1      24.265   1.655  51.589  1.00  0.00     0.304 C 
HETATM   24  C3  UNL     1      24.353   1.028  52.963  1.00  0.00     0.006 C 
HETATM   25  C2  UNL     1      25.480   0.399  53.276  1.00  0.00    -0.082 C 
HETATM   26  C1  UNL     1      25.684  -0.250  54.584  1.00  0.00     0.043 C 
HETATM   27  C21 UNL     1      26.411   0.491  52.114  1.00  0.00     0.101 C 
HETATM   28  C20 UNL     1      26.596   1.892  51.631  1.00  0.00     0.456 C 
BRANCH  28  29
HETATM   29  N4  UNL     1      27.498   2.531  52.600  1.00  0.00     0.112 N 
HETATM   30  H22 UNL     1      28.488   2.323  52.413  1.00  0.00     0.315 HD
HETATM   31  H23 UNL     1      27.356   3.560  52.585  1.00  0.00     0.315 HD
ENDBRANCH  28  29
ENDBRANCH   1  22
TORSDOF 7
ENDMDL
MODEL 9
REMARK VINA RESULT:      -7.6      1.965      2.533
REMARK  7 active torsions:
REMARK  status: ('A' for Active; 'I' for Inactive)
REMARK    1  A    between atoms: N1_5  and  C5_6 
REMARK    2  A    between atoms: C7_9  and  C8_10 
REMARK    3  A    between atoms: C9_11  and  N3_12 
REMARK       I    between atoms: N3_12  and  C10_13 
REMARK    4  A    between atoms: C10_13  and  C11_15 
REMARK    5  A    between atoms: C11_15  and  O2_16 
REMARK    6  A    between atoms: O2_16  and  C12_17 
REMARK    7  A    between atoms: C20_26  and  N4_27 
ROOT
HETATM    1  C5  UNL     1      27.086   7.669  48.806  1.00  0.00     0.270 A 
HETATM    2  C6  UNL     1      26.016   7.335  49.767  1.00  0.00     0.126 A 
HETATM    3  N2  UNL     1      25.482   6.216  50.207  1.00  0.00    -0.263 NA
HETATM    4  C7  UNL     1      25.997   4.971  49.684  1.00  0.00     0.053 A 
HETATM    5  C18 UNL     1      26.956   5.254  48.823  1.00  0.00     0.007 A 
HETATM    6  C19 UNL     1      27.654   6.412  48.237  1.00  0.00     0.071 A 
ENDROOT
BRANCH   4   7
HETATM    7  C8  UNL     1      25.556   3.637  50.027  1.00  0.00     0.048 C 
HETATM    8  C9  UNL     1      24.575   3.399  50.865  1.00  0.00     0.093 C 
BRANCH   8   9
HETATM    9  N3  UNL     1      24.210   2.050  51.142  1.00  0.00    -0.335 N 
HETATM   10  C10 UNL     1      24.163   1.697  52.533  1.00  0.00     0.245 C 
HETATM   11  O1  UNL     1      24.450   2.638  53.352  1.00  0.00    -0.271 OA
HETATM   12  H11 UNL     1      23.947   1.210  50.587  1.00  0.00     0.168 HD
BRANCH  10  13
HETATM   13  C11 UNL     1      23.856   0.485  53.321  1.00  0.00     0.278 C 
BRANCH  13  14
HETATM   14  O2  UNL     1      24.765  -0.545  53.123  1.00  0.00    -0.342 OA
BRANCH  14  15
HETATM   15  C12 UNL     1      26.074  -0.487  53.526  1.00  0.00     0.069 A 
HETATM   16  C13 UNL     1      26.853  -1.320  52.714  1.00  0.00     0.040 A 
HETATM   17  C14 UNL     1      28.228  -1.455  52.900  1.00  0.00     0.045 A 
HETATM   18  C15 UNL     1      28.842  -0.750  53.913  1.00  0.00     0.116 A 
HETATM   19  F1  UNL     1      30.179  -0.822  54.168  1.00  0.00    -0.206 F 
HETATM   20  C16 UNL     1      28.097   0.077  54.728  1.00  0.00     0.045 A 
HETATM   21  C17 UNL     1      26.739   0.209  54.542  1.00  0.00     0.040 A 
ENDBRANCH  14  15
ENDBRANCH  13  14
ENDBRANCH  10  13
ENDBRANCH   8   9
ENDBRANCH   4   7
BRANCH   1  22
HETATM   22  N1  UNL     1      26.715   8.642  47.816  1.00  0.00     0.135 N 
HETATM   23  C4  UNL     1      27.835   9.511  47.573  1.00  0.00     0.304 C 
HETATM   24  C3  UNL     1      27.330  10.620  46.676  1.00  0.00     0.006 C 
HETATM   25  C2  UNL     1      26.793  10.266  45.513  1.00  0.00    -0.082 C 
HETATM   26  C1  UNL     1      26.267  11.255  44.555  1.00  0.00     0.043 C 
HETATM   27  C21 UNL     1      26.835   8.779  45.406  1.00  0.00     0.101 C 
HETATM   28  C20 UNL     1      26.244   8.097  46.595  1.00  0.00     0.456 C 
BRANCH  28  29
HETATM   29  N4  UNL     1      24.787   8.219  46.441  1.00  0.00     0.112 N 
HETATM   30  H22 UNL     1      24.440   7.751  45.594  1.00  0.00     0.315 HD
HETATM   31  H23 UNL     1      24.312   7.819  47.273  1.00  0.00     0.315 HD
ENDBRANCH  28  29
ENDBRANCH   1  22
TORSDOF 7
ENDMDL
