MODEL 1
REMARK VINA RESULT:      -8.0      0.000      0.000
REMARK  2 active torsions:
REMARK  status: ('A' for Active; 'I' for Inactive)
REMARK    1  A    between atoms: N1_2  and  C2_3 
REMARK    2  A    between atoms: C16_22  and  O2_23 
ROOT
HETATM    1  C2  UNL     1      26.008   2.010  52.286  1.00  0.00     0.034 C 
HETATM    2  C3  UNL     1      25.958   1.199  53.327  1.00  0.00     0.141 C 
HETATM    3  N2  UNL     1      24.985   0.298  53.810  1.00  0.00    -0.270 N 
HETATM    4  C4  UNL     1      25.174  -0.787  54.432  1.00  0.00     0.135 A 
HETATM    5  O1  UNL     1      23.828  -0.542  54.249  1.00  0.00     0.000 OA
HETATM    6  C5  UNL     1      22.783  -1.235  54.919  1.00  0.00     0.032 C 
HETATM    7  C6  UNL     1      21.569  -1.152  53.995  1.00  0.00     0.269 C 
HETATM    8  N3  UNL     1      21.168   0.225  53.734  1.00  0.00     0.083 N 
HETATM    9  C7  UNL     1      20.064   0.210  52.767  1.00  0.00     0.271 C 
HETATM   10  C8  UNL     1      19.719   1.684  52.495  1.00  0.00     0.049 C 
HETATM   11  C9  UNL     1      20.995   2.335  52.053  1.00  0.00     0.121 C 
HETATM   12  N4  UNL     1      21.581   1.704  50.902  1.00  0.00    -0.388 N 
HETATM   13  C10 UNL     1      22.827   2.357  50.567  1.00  0.00     0.059 C 
HETATM   14  C11 UNL     1      23.685   2.580  51.585  1.00  0.00     0.020 C 
HETATM   15  C12 UNL     1      25.058   2.201  51.232  1.00  0.00     0.091 C 
HETATM   16  C13 UNL     1      25.457   3.131  50.147  1.00  0.00    -0.048 C 
HETATM   17  C14 UNL     1      26.608   3.715  50.077  1.00  0.00     0.214 C 
HETATM   18 BR1  UNL     1      27.326   4.933  48.794  1.00  0.00    -0.193 Br
HETATM   19  C15 UNL     1      24.436   3.352  49.141  1.00  0.00     0.044 C 
HETATM   20  C16 UNL     1      23.249   2.792  49.194  1.00  0.00     0.094 C 
HETATM   21  H11 UNL     1      20.806   0.595  54.661  1.00  0.00     0.315 HD
HETATM   22  H18 UNL     1      21.522   0.978  50.179  1.00  0.00     0.159 HD
ENDROOT
BRANCH   1  23
HETATM   23  N1  UNL     1      27.258   2.766  52.207  1.00  0.00    -0.396 N 
HETATM   24  C1  UNL     1      28.115   2.212  53.274  1.00  0.00     0.146 C 
HETATM   25  H4  UNL     1      27.992   3.429  51.951  1.00  0.00     0.159 HD
ENDBRANCH   1  23
BRANCH  20  26
HETATM   26  O2  UNL     1      22.242   2.477  48.313  1.00  0.00    -0.354 OA
HETATM   27  C17 UNL     1      21.859   3.146  47.157  1.00  0.00     0.210 C 
ENDBRANCH  20  26
TORSDOF 2
ENDMDL
MODEL 2
REMARK VINA RESULT:      -7.9      2.488      3.840
REMARK  2 active torsions:
REMARK  status: ('A' for Active; 'I' for Inactive)
REMARK    1  A    between atoms: N1_2  and  C2_3 
REMARK    2  A    between atoms: C16_22  and  O2_23 
ROOT
HETATM    1  C2  UNL     1      24.669  -0.390  54.081  1.00  0.00     0.034 C 
HETATM    2  C3  UNL     1      23.475  -0.866  54.385  1.00  0.00     0.141 C 
HETATM    3  N2  UNL     1      22.181  -0.644  53.868  1.00  0.00    -0.270 N 
HETATM    4  C4  UNL     1      21.221  -1.464  53.804  1.00  0.00     0.135 A 
HETATM    5  O1  UNL     1      20.866  -0.236  53.282  1.00  0.00     0.000 OA
HETATM    6  C5  UNL     1      19.534   0.165  52.991  1.00  0.00     0.032 C 
HETATM    7  C6  UNL     1      19.645   1.211  51.884  1.00  0.00     0.269 C 
HETATM    8  N3  UNL     1      20.435   2.365  52.295  1.00  0.00     0.083 N 
HETATM    9  C7  UNL     1      20.570   3.267  51.144  1.00  0.00     0.271 C 
HETATM   10  C8  UNL     1      21.449   4.435  51.622  1.00  0.00     0.049 C 
HETATM   11  C9  UNL     1      22.711   3.819  52.148  1.00  0.00     0.121 C 
HETATM   12  N4  UNL     1      23.389   3.005  51.176  1.00  0.00    -0.388 N 
HETATM   13  C10 UNL     1      24.565   2.411  51.771  1.00  0.00     0.059 C 
HETATM   14  C11 UNL     1      24.404   1.829  52.979  1.00  0.00     0.020 C 
HETATM   15  C12 UNL     1      25.052   0.515  53.040  1.00  0.00     0.091 C 
HETATM   16  C13 UNL     1      26.504   0.785  52.905  1.00  0.00    -0.048 C 
HETATM   17  C14 UNL     1      27.419   0.218  53.621  1.00  0.00     0.214 C 
HETATM   18 BR1  UNL     1      29.318   0.413  53.622  1.00  0.00    -0.193 Br
HETATM   19  C15 UNL     1      26.841   1.764  51.888  1.00  0.00     0.044 C 
HETATM   20  C16 UNL     1      25.934   2.374  51.159  1.00  0.00     0.094 C 
HETATM   21  H11 UNL     1      19.860   2.851  53.044  1.00  0.00     0.315 HD
HETATM   22  H18 UNL     1      23.427   2.637  50.219  1.00  0.00     0.159 HD
ENDROOT
BRANCH   1  23
HETATM   23  N1  UNL     1      25.734  -0.933  54.924  1.00  0.00    -0.396 N 
HETATM   24  C1  UNL     1      25.151  -1.025  56.277  1.00  0.00     0.146 C 
HETATM   25  H4  UNL     1      26.623  -1.297  55.274  1.00  0.00     0.159 HD
ENDBRANCH   1  23
BRANCH  20  26
HETATM   26  O2  UNL     1      25.882   3.015  49.945  1.00  0.00    -0.354 OA
HETATM   27  C17 UNL     1      26.740   3.984  49.435  1.00  0.00     0.210 C 
ENDBRANCH  20  26
TORSDOF 2
ENDMDL
MODEL 3
REMARK VINA RESULT:      -7.7      2.666      4.592
REMARK  2 active torsions:
REMARK  status: ('A' for Active; 'I' for Inactive)
REMARK    1  A    between atoms: N1_2  and  C2_3 
REMARK    2  A    between atoms: C16_22  and  O2_23 
ROOT
HETATM    1  C2  UNL     1      23.542   0.206  53.406  1.00  0.00     0.034 C 
HETATM    2  C3  UNL     1      22.235   0.163  53.589  1.00  0.00     0.141 C 
HETATM    3  N2  UNL     1      21.149   0.843  52.995  1.00  0.00    -0.270 N 
HETATM    4  C4  UNL     1      19.976   0.411  52.805  1.00  0.00     0.135 A 
HETATM    5  O1  UNL     1      20.115   1.705  52.344  1.00  0.00     0.000 OA
HETATM    6  C5  UNL     1      19.034   2.555  51.984  1.00  0.00     0.032 C 
HETATM    7  C6  UNL     1      19.600   3.539  50.962  1.00  0.00     0.269 C 
HETATM    8  N3  UNL     1      20.696   4.330  51.507  1.00  0.00     0.083 N 
HETATM    9  C7  UNL     1      21.239   5.172  50.434  1.00  0.00     0.271 C 
HETATM   10  C8  UNL     1      22.417   5.942  51.053  1.00  0.00     0.049 C 
HETATM   11  C9  UNL     1      23.336   4.904  51.626  1.00  0.00     0.121 C 
HETATM   12  N4  UNL     1      23.780   3.944  50.654  1.00  0.00    -0.388 N 
HETATM   13  C10 UNL     1      24.620   2.954  51.291  1.00  0.00     0.059 C 
HETATM   14  C11 UNL     1      24.158   2.419  52.441  1.00  0.00     0.020 C 
HETATM   15  C12 UNL     1      24.307   0.960  52.460  1.00  0.00     0.091 C 
HETATM   16  C13 UNL     1      25.769   0.713  52.451  1.00  0.00    -0.048 C 
HETATM   17  C14 UNL     1      26.364  -0.165  53.190  1.00  0.00     0.214 C 
HETATM   18 BR1  UNL     1      28.205  -0.644  53.344  1.00  0.00    -0.193 Br
HETATM   19  C15 UNL     1      26.513   1.551  51.530  1.00  0.00     0.044 C 
HETATM   20  C16 UNL     1      25.943   2.467  50.780  1.00  0.00     0.094 C 
HETATM   21  H11 UNL     1      20.256   4.956  52.243  1.00  0.00     0.315 HD
HETATM   22  H18 UNL     1      23.777   3.623  49.679  1.00  0.00     0.159 HD
ENDROOT
BRANCH   1  23
HETATM   23  N1  UNL     1      24.273  -0.706  54.286  1.00  0.00    -0.396 N 
HETATM   24  C1  UNL     1      23.262  -1.241  55.219  1.00  0.00     0.146 C 
HETATM   25  H4  UNL     1      25.002  -1.254  54.749  1.00  0.00     0.159 HD
ENDBRANCH   1  23
BRANCH  20  26
HETATM   26  O2  UNL     1      26.227   3.133  49.611  1.00  0.00    -0.354 OA
HETATM   27  C17 UNL     1      27.014   4.263  49.424  1.00  0.00     0.210 C 
ENDBRANCH  20  26
TORSDOF 2
ENDMDL
MODEL 4
REMARK VINA RESULT:      -7.5      2.379      5.014
REMARK  2 active torsions:
REMARK  status: ('A' for Active; 'I' for Inactive)
REMARK    1  A    between atoms: N1_2  and  C2_3 
REMARK    2  A    between atoms: C16_22  and  O2_23 
ROOT
HETATM    1  C2  UNL     1      25.035   3.241  51.319  1.00  0.00     0.034 C 
HETATM    2  C3  UNL     1      24.429   4.275  50.765  1.00  0.00     0.141 C 
HETATM    3  N2  UNL     1      23.081   4.686  50.693  1.00  0.00    -0.270 N 
HETATM    4  C4  UNL     1      22.631   5.867  50.652  1.00  0.00     0.135 A 
HETATM    5  O1  UNL     1      21.608   4.940  50.621  1.00  0.00     0.000 OA
HETATM    6  C5  UNL     1      20.260   5.236  50.283  1.00  0.00     0.032 C 
HETATM    7  C6  UNL     1      19.411   4.181  50.990  1.00  0.00     0.269 C 
HETATM    8  N3  UNL     1      19.747   2.828  50.565  1.00  0.00     0.083 N 
HETATM    9  C7  UNL     1      18.957   1.882  51.362  1.00  0.00     0.271 C 
HETATM   10  C8  UNL     1      19.387   0.479  50.905  1.00  0.00     0.049 C 
HETATM   11  C9  UNL     1      20.877   0.425  51.075  1.00  0.00     0.121 C 
HETATM   12  N4  UNL     1      21.302   0.701  52.420  1.00  0.00    -0.388 N 
HETATM   13  C10 UNL     1      22.746   0.677  52.491  1.00  0.00     0.059 C 
HETATM   14  C11 UNL     1      23.410   1.365  51.538  1.00  0.00     0.020 C 
HETATM   15  C12 UNL     1      24.490   2.178  52.108  1.00  0.00     0.091 C 
HETATM   16  C13 UNL     1      25.463   1.207  52.665  1.00  0.00    -0.048 C 
HETATM   17  C14 UNL     1      26.744   1.301  52.528  1.00  0.00     0.214 C 
HETATM   18 BR1  UNL     1      28.162   0.183  53.148  1.00  0.00    -0.193 Br
HETATM   19  C15 UNL     1      24.860   0.106  53.394  1.00  0.00     0.044 C 
HETATM   20  C16 UNL     1      23.561  -0.031  53.533  1.00  0.00     0.094 C 
HETATM   21  H11 UNL     1      19.436   2.764  49.552  1.00  0.00     0.315 HD
HETATM   22  H18 UNL     1      21.046   0.914  53.390  1.00  0.00     0.159 HD
ENDROOT
BRANCH   1  23
HETATM   23  N1  UNL     1      26.485   3.250  51.115  1.00  0.00    -0.396 N 
HETATM   24  C1  UNL     1      26.679   3.681  49.717  1.00  0.00     0.146 C 
HETATM   25  H4  UNL     1      27.496   3.161  51.237  1.00  0.00     0.159 HD
ENDBRANCH   1  23
BRANCH  20  26
HETATM   26  O2  UNL     1      22.701  -0.664  54.398  1.00  0.00    -0.354 OA
HETATM   27  C17 UNL     1      23.003  -1.485  55.478  1.00  0.00     0.210 C 
ENDBRANCH  20  26
TORSDOF 2
ENDMDL
MODEL 5
REMARK VINA RESULT:      -7.4      2.808      5.375
REMARK  2 active torsions:
REMARK  status: ('A' for Active; 'I' for Inactive)
REMARK    1  A    between atoms: N1_2  and  C2_3 
REMARK    2  A    between atoms: C16_22  and  O2_23 
ROOT
HETATM    1  C2  UNL     1      20.802   0.820  52.758  1.00  0.00     0.034 C 
HETATM    2  C3  UNL     1      21.327  -0.217  53.386  1.00  0.00     0.141 C 
HETATM    3  N2  UNL     1      22.592  -0.464  53.962  1.00  0.00    -0.270 N 
HETATM    4  C4  UNL     1      22.858  -1.185  54.966  1.00  0.00     0.135 A 
HETATM    5  O1  UNL     1      24.001  -0.613  54.442  1.00  0.00     0.000 OA
HETATM    6  C5  UNL     1      25.326  -1.004  54.775  1.00  0.00     0.032 C 
HETATM    7  C6  UNL     1      26.196   0.228  54.538  1.00  0.00     0.269 C 
HETATM    8  N3  UNL     1      26.143   0.683  53.155  1.00  0.00     0.083 N 
HETATM    9  C7  UNL     1      26.926   1.920  53.043  1.00  0.00     0.271 C 
HETATM   10  C8  UNL     1      26.792   2.376  51.581  1.00  0.00     0.049 C 
HETATM   11  C9  UNL     1      25.321   2.482  51.311  1.00  0.00     0.121 C 
HETATM   12  N4  UNL     1      24.645   3.376  52.211  1.00  0.00    -0.388 N 
HETATM   13  C10 UNL     1      23.229   3.387  51.918  1.00  0.00     0.059 C 
HETATM   14  C11 UNL     1      22.634   2.185  51.764  1.00  0.00     0.020 C 
HETATM   15  C12 UNL     1      21.365   2.109  52.497  1.00  0.00     0.091 C 
HETATM   16  C13 UNL     1      20.472   3.097  51.841  1.00  0.00    -0.048 C 
HETATM   17  C14 UNL     1      19.231   2.878  51.556  1.00  0.00     0.214 C 
HETATM   18 BR1  UNL     1      17.915   3.983  50.724  1.00  0.00    -0.193 Br
HETATM   19  C15 UNL     1      21.106   4.363  51.527  1.00  0.00     0.044 C 
HETATM   20  C16 UNL     1      22.371   4.610  51.784  1.00  0.00     0.094 C 
HETATM   21  H11 UNL     1      26.621  -0.076  52.588  1.00  0.00     0.315 HD
HETATM   22  H18 UNL     1      24.704   4.035  52.995  1.00  0.00     0.159 HD
ENDROOT
BRANCH   1  23
HETATM   23  N1  UNL     1      19.420   0.592  52.332  1.00  0.00    -0.396 N 
HETATM   24  C1  UNL     1      18.973  -0.598  53.082  1.00  0.00     0.146 C 
HETATM   25  H4  UNL     1      18.512   0.651  51.867  1.00  0.00     0.159 HD
ENDBRANCH   1  23
BRANCH  20  26
HETATM   26  O2  UNL     1      23.163   5.717  51.973  1.00  0.00    -0.354 OA
HETATM   27  C17 UNL     1      23.667   6.598  51.023  1.00  0.00     0.210 C 
ENDBRANCH  20  26
TORSDOF 2
ENDMDL
MODEL 6
REMARK VINA RESULT:      -7.1      3.511      6.067
REMARK  2 active torsions:
REMARK  status: ('A' for Active; 'I' for Inactive)
REMARK    1  A    between atoms: N1_2  and  C2_3 
REMARK    2  A    between atoms: C16_22  and  O2_23 
ROOT
HETATM    1  C2  UNL     1      21.643   0.076  53.138  1.00  0.00     0.034 C 
HETATM    2  C3  UNL     1      22.835   0.610  53.331  1.00  0.00     0.141 C 
HETATM    3  N2  UNL     1      23.540   1.661  52.707  1.00  0.00    -0.270 N 
HETATM    4  C4  UNL     1      24.372   2.455  53.232  1.00  0.00     0.135 A 
HETATM    5  O1  UNL     1      24.198   2.728  51.890  1.00  0.00     0.000 OA
HETATM    6  C5  UNL     1      25.044   3.573  51.120  1.00  0.00     0.032 C 
HETATM    7  C6  UNL     1      24.176   4.108  49.983  1.00  0.00     0.269 C 
HETATM    8  N3  UNL     1      23.642   3.039  49.148  1.00  0.00     0.083 N 
HETATM    9  C7  UNL     1      22.748   3.636  48.148  1.00  0.00     0.271 C 
HETATM   10  C8  UNL     1      22.181   2.463  47.332  1.00  0.00     0.049 C 
HETATM   11  C9  UNL     1      21.556   1.529  48.325  1.00  0.00     0.121 C 
HETATM   12  N4  UNL     1      20.543   2.156  49.130  1.00  0.00    -0.388 N 
HETATM   13  C10 UNL     1      20.025   1.208  50.091  1.00  0.00     0.059 C 
HETATM   14  C11 UNL     1      20.934   0.493  50.786  1.00  0.00     0.020 C 
HETATM   15  C12 UNL     1      20.614   0.450  52.217  1.00  0.00     0.091 C 
HETATM   16  C13 UNL     1      19.339  -0.303  52.313  1.00  0.00    -0.048 C 
HETATM   17  C14 UNL     1      19.097  -1.212  53.198  1.00  0.00     0.214 C 
HETATM   18 BR1  UNL     1      17.554  -2.295  53.502  1.00  0.00    -0.193 Br
HETATM   19  C15 UNL     1      18.352   0.058  51.313  1.00  0.00     0.044 C 
HETATM   20  C16 UNL     1      18.574   0.963  50.386  1.00  0.00     0.094 C 
HETATM   21  H11 UNL     1      24.482   2.623  48.649  1.00  0.00     0.315 HD
HETATM   22  H18 UNL     1      19.997   2.997  49.346  1.00  0.00     0.159 HD
ENDROOT
BRANCH   1  23
HETATM   23  N1  UNL     1      21.352  -1.024  54.059  1.00  0.00    -0.396 N 
HETATM   24  C1  UNL     1      22.514  -1.089  54.967  1.00  0.00     0.146 C 
HETATM   25  H4  UNL     1      20.921  -1.815  54.541  1.00  0.00     0.159 HD
ENDBRANCH   1  23
BRANCH  20  26
HETATM   26  O2  UNL     1      17.824   1.783  49.577  1.00  0.00    -0.354 OA
HETATM   27  C17 UNL     1      16.454   1.756  49.344  1.00  0.00     0.210 C 
ENDBRANCH  20  26
TORSDOF 2
ENDMDL
MODEL 7
REMARK VINA RESULT:      -6.9      3.114      6.785
REMARK  2 active torsions:
REMARK  status: ('A' for Active; 'I' for Inactive)
REMARK    1  A    between atoms: N1_2  and  C2_3 
REMARK    2  A    between atoms: C16_22  and  O2_23 
ROOT
HETATM    1  C2  UNL     1      21.032   1.226  51.063  1.00  0.00     0.034 C 
HETATM    2  C3  UNL     1      20.425   1.716  49.997  1.00  0.00     0.141 C 
HETATM    3  N2  UNL     1      20.785   2.684  49.035  1.00  0.00    -0.270 N 
HETATM    4  C4  UNL     1      20.458   2.721  47.814  1.00  0.00     0.135 A 
HETATM    5  O1  UNL     1      21.262   3.792  48.150  1.00  0.00     0.000 OA
HETATM    6  C5  UNL     1      21.457   4.943  47.339  1.00  0.00     0.032 C 
HETATM    7  C6  UNL     1      22.828   5.496  47.721  1.00  0.00     0.269 C 
HETATM    8  N3  UNL     1      22.902   5.860  49.131  1.00  0.00     0.083 N 
HETATM    9  C7  UNL     1      24.275   6.286  49.427  1.00  0.00     0.271 C 
HETATM   10  C8  UNL     1      24.304   6.609  50.930  1.00  0.00     0.049 C 
HETATM   11  C9  UNL     1      23.813   5.376  51.630  1.00  0.00     0.121 C 
HETATM   12  N4  UNL     1      24.589   4.206  51.322  1.00  0.00    -0.388 N 
HETATM   13  C10 UNL     1      24.027   3.056  51.994  1.00  0.00     0.059 C 
HETATM   14  C11 UNL     1      22.692   2.889  51.893  1.00  0.00     0.020 C 
HETATM   15  C12 UNL     1      22.340   1.500  51.575  1.00  0.00     0.091 C 
HETATM   16  C13 UNL     1      22.765   0.706  52.754  1.00  0.00    -0.048 C 
HETATM   17  C14 UNL     1      22.059  -0.234  53.290  1.00  0.00     0.214 C 
HETATM   18 BR1  UNL     1      22.399  -1.366  54.789  1.00  0.00    -0.193 Br
HETATM   19  C15 UNL     1      24.065   1.069  53.285  1.00  0.00     0.044 C 
HETATM   20  C16 UNL     1      24.799   2.034  52.777  1.00  0.00     0.094 C 
HETATM   21  H11 UNL     1      22.254   6.694  49.243  1.00  0.00     0.315 HD
HETATM   22  H18 UNL     1      25.388   3.793  50.828  1.00  0.00     0.159 HD
ENDROOT
BRANCH   1  23
HETATM   23  N1  UNL     1      20.235   0.218  51.763  1.00  0.00    -0.396 N 
HETATM   24  C1  UNL     1      18.886   0.308  51.171  1.00  0.00     0.146 C 
HETATM   25  H4  UNL     1      19.918  -0.522  52.393  1.00  0.00     0.159 HD
ENDBRANCH   1  23
BRANCH  20  26
HETATM   26  O2  UNL     1      26.127   2.387  52.758  1.00  0.00    -0.354 OA
HETATM   27  C17 UNL     1      27.244   1.564  52.682  1.00  0.00     0.210 C 
ENDBRANCH  20  26
TORSDOF 2
ENDMDL
MODEL 8
REMARK VINA RESULT:      -6.8      2.884      4.785
REMARK  2 active torsions:
REMARK  status: ('A' for Active; 'I' for Inactive)
REMARK    1  A    between atoms: N1_2  and  C2_3 
REMARK    2  A    between atoms: C16_22  and  O2_23 
ROOT
HETATM    1  C2  UNL     1      21.448  -0.172  53.351  1.00  0.00     0.034 C 
HETATM    2  C3  UNL     1      20.321  -0.731  53.750  1.00  0.00     0.141 C 
HETATM    3  N2  UNL     1      18.992  -0.683  53.275  1.00  0.00    -0.270 N 
HETATM    4  C4  UNL     1      18.118  -1.595  53.328  1.00  0.00     0.135 A 
HETATM    5  O1  UNL     1      17.623  -0.460  52.716  1.00  0.00     0.000 OA
HETATM    6  C5  UNL     1      16.247  -0.219  52.451  1.00  0.00     0.032 C 
HETATM    7  C6  UNL     1      16.213   0.726  51.251  1.00  0.00     0.269 C 
HETATM    8  N3  UNL     1      16.898   1.984  51.521  1.00  0.00     0.083 N 
HETATM    9  C7  UNL     1      16.900   2.783  50.290  1.00  0.00     0.271 C 
HETATM   10  C8  UNL     1      17.674   4.070  50.621  1.00  0.00     0.049 C 
HETATM   11  C9  UNL     1      19.009   3.630  51.142  1.00  0.00     0.121 C 
HETATM   12  N4  UNL     1      19.730   2.798  50.217  1.00  0.00    -0.388 N 
HETATM   13  C10 UNL     1      20.980   2.378  50.808  1.00  0.00     0.059 C 
HETATM   14  C11 UNL     1      20.922   1.899  52.069  1.00  0.00     0.020 C 
HETATM   15  C12 UNL     1      21.701   0.664  52.217  1.00  0.00     0.091 C 
HETATM   16  C13 UNL     1      23.113   1.060  51.993  1.00  0.00    -0.048 C 
HETATM   17  C14 UNL     1      24.106   0.652  52.714  1.00  0.00     0.214 C 
HETATM   18 BR1  UNL     1      25.974   1.029  52.612  1.00  0.00    -0.193 Br
HETATM   19  C15 UNL     1      23.312   1.967  50.879  1.00  0.00     0.044 C 
HETATM   20  C16 UNL     1      22.323   2.417  50.140  1.00  0.00     0.094 C 
HETATM   21  H11 UNL     1      16.304   2.479  52.249  1.00  0.00     0.315 HD
HETATM   22  H18 UNL     1      19.770   2.349  49.296  1.00  0.00     0.159 HD
ENDROOT
BRANCH   1  23
HETATM   23  N1  UNL     1      22.593  -0.529  54.190  1.00  0.00    -0.396 N 
HETATM   24  C1  UNL     1      22.133  -1.664  55.014  1.00  0.00     0.146 C 
HETATM   25  H4  UNL     1      23.508  -0.559  54.646  1.00  0.00     0.159 HD
ENDBRANCH   1  23
BRANCH  20  26
HETATM   26  O2  UNL     1      22.163   2.934  48.877  1.00  0.00    -0.354 OA
HETATM   27  C17 UNL     1      22.345   2.306  47.651  1.00  0.00     0.210 C 
ENDBRANCH  20  26
TORSDOF 2
ENDMDL
MODEL 9
REMARK VINA RESULT:      -6.6      4.120      6.374
REMARK  2 active torsions:
REMARK  status: ('A' for Active; 'I' for Inactive)
REMARK    1  A    between atoms: N1_2  and  C2_3 
REMARK    2  A    between atoms: C16_22  and  O2_23 
ROOT
HETATM    1  C2  UNL     1      21.111   6.156  50.272  1.00  0.00     0.034 C 
HETATM    2  C3  UNL     1      20.654   5.042  50.813  1.00  0.00     0.141 C 
HETATM    3  N2  UNL     1      21.270   3.966  51.487  1.00  0.00    -0.270 N 
HETATM    4  C4  UNL     1      20.786   3.252  52.412  1.00  0.00     0.135 A 
HETATM    5  O1  UNL     1      22.072   2.859  52.095  1.00  0.00     0.000 OA
HETATM    6  C5  UNL     1      22.671   1.641  52.517  1.00  0.00     0.032 C 
HETATM    7  C6  UNL     1      24.176   1.903  52.539  1.00  0.00     0.269 C 
HETATM    8  N3  UNL     1      24.688   2.284  51.229  1.00  0.00     0.083 N 
HETATM    9  C7  UNL     1      26.113   2.609  51.365  1.00  0.00     0.271 C 
HETATM   10  C8  UNL     1      26.584   3.048  49.969  1.00  0.00     0.049 C 
HETATM   11  C9  UNL     1      25.673   4.166  49.555  1.00  0.00     0.121 C 
HETATM   12  N4  UNL     1      25.667   5.262  50.485  1.00  0.00    -0.388 N 
HETATM   13  C10 UNL     1      24.733   6.274  50.042  1.00  0.00     0.059 C 
HETATM   14  C11 UNL     1      23.509   5.845  49.670  1.00  0.00     0.020 C 
HETATM   15  C12 UNL     1      22.444   6.676  50.243  1.00  0.00     0.091 C 
HETATM   16  C13 UNL     1      22.615   8.015  49.627  1.00  0.00    -0.048 C 
HETATM   17  C14 UNL     1      21.642   8.741  49.182  1.00  0.00     0.214 C 
HETATM   18 BR1  UNL     1      21.629  10.464  48.362  1.00  0.00    -0.193 Br
HETATM   19  C15 UNL     1      23.991   8.469  49.552  1.00  0.00     0.044 C 
HETATM   20  C16 UNL     1      25.004   7.748  49.975  1.00  0.00     0.094 C 
HETATM   21  H11 UNL     1      24.592   1.417  50.624  1.00  0.00     0.315 HD
HETATM   22  H18 UNL     1      26.033   5.676  51.349  1.00  0.00     0.159 HD
ENDROOT
BRANCH   1  23
HETATM   23  N1  UNL     1      20.058   6.976  49.671  1.00  0.00    -0.396 N 
HETATM   24  C1  UNL     1      19.042   6.016  49.195  1.00  0.00     0.146 C 
HETATM   25  H4  UNL     1      19.499   7.755  49.317  1.00  0.00     0.159 HD
ENDBRANCH   1  23
BRANCH  20  26
HETATM   26  O2  UNL     1      26.295   7.970  50.391  1.00  0.00    -0.354 OA
HETATM   27  C17 UNL     1      27.165   8.989  50.020  1.00  0.00     0.210 C 
ENDBRANCH  20  26
TORSDOF 2
ENDMDL
