MODEL 1
REMARK VINA RESULT:      -9.0      0.000      0.000
REMARK  2 active torsions:
REMARK  status: ('A' for Active; 'I' for Inactive)
REMARK    1  A    between atoms: C7_8  and  C8_9 
REMARK    2  A    between atoms: C8_9  and  N2_10 
ROOT
HETATM    1  N1  UNL     1      29.048   2.450  54.306  1.00  0.00    -0.191 NA
HETATM    2  C1  UNL     1      28.820   1.356  53.981  1.00  0.00     0.100 C 
HETATM    3  C2  UNL     1      28.551   0.005  53.558  1.00  0.00     0.052 A 
HETATM    4  C3  UNL     1      29.576  -0.892  53.742  1.00  0.00     0.023 A 
HETATM    5  C4  UNL     1      29.349  -2.208  53.326  1.00  0.00     0.002 A 
HETATM    6  C5  UNL     1      28.132  -2.558  52.755  1.00  0.00     0.001 A 
HETATM    7  C6  UNL     1      27.132  -1.604  52.595  1.00  0.00     0.010 A 
HETATM    8  C7  UNL     1      27.321  -0.281  52.999  1.00  0.00    -0.020 A 
ENDROOT
BRANCH   8   9
HETATM    9  C8  UNL     1      26.227   0.698  52.828  1.00  0.00     0.163 C 
BRANCH   9  10
HETATM   10  N2  UNL     1      24.943   0.256  53.274  1.00  0.00    -0.376 N 
HETATM   11  C9  UNL     1      24.502  -0.562  54.358  1.00  0.00     0.128 C 
HETATM   12  C10 UNL     1      23.047  -0.841  54.244  1.00  0.00     0.060 C 
HETATM   13  C11 UNL     1      22.546  -0.004  53.157  1.00  0.00    -0.033 A 
HETATM   14  C12 UNL     1      21.410   0.320  52.570  1.00  0.00     0.002 A 
HETATM   15  C17 UNL     1      23.725   0.634  52.601  1.00  0.00     0.032 A 
HETATM   16  C13 UNL     1      21.076   1.220  51.440  1.00  0.00     0.119 A 
HETATM   17  C14 UNL     1      20.173   2.292  51.917  1.00  0.00     0.068 C 
HETATM   18  C15 UNL     1      22.292   1.878  50.853  1.00  0.00     0.052 A 
HETATM   19  N3  UNL     1      19.475   3.132  52.298  1.00  0.00    -0.197 NA
HETATM   20  C16 UNL     1      23.489   1.447  51.584  1.00  0.00     0.005 A 
ENDBRANCH   9  10
ENDBRANCH   8   9
TORSDOF 2
ENDMDL
MODEL 2
REMARK VINA RESULT:      -8.9      1.749      2.713
REMARK  2 active torsions:
REMARK  status: ('A' for Active; 'I' for Inactive)
REMARK    1  A    between atoms: C7_8  and  C8_9 
REMARK    2  A    between atoms: C8_9  and  N2_10 
ROOT
HETATM    1  N1  UNL     1      29.477   2.209  54.738  1.00  0.00    -0.191 NA
HETATM    2  C1  UNL     1      29.114   1.183  54.327  1.00  0.00     0.100 C 
HETATM    3  C2  UNL     1      28.673  -0.083  53.796  1.00  0.00     0.052 A 
HETATM    4  C3  UNL     1      29.643  -1.050  53.682  1.00  0.00     0.023 A 
HETATM    5  C4  UNL     1      29.248  -2.284  53.154  1.00  0.00     0.002 A 
HETATM    6  C5  UNL     1      27.928  -2.489  52.772  1.00  0.00     0.001 A 
HETATM    7  C6  UNL     1      26.992  -1.469  52.913  1.00  0.00     0.010 A 
HETATM    8  C7  UNL     1      27.348  -0.225  53.436  1.00  0.00    -0.020 A 
ENDROOT
BRANCH   8   9
HETATM    9  C8  UNL     1      26.319   0.826  53.586  1.00  0.00     0.163 C 
BRANCH   9  10
HETATM   10  N2  UNL     1      26.101   1.631  52.425  1.00  0.00    -0.376 N 
HETATM   11  C9  UNL     1      26.952   2.426  51.600  1.00  0.00     0.128 C 
HETATM   12  C10 UNL     1      26.153   3.199  50.615  1.00  0.00     0.060 C 
HETATM   13  C11 UNL     1      24.780   2.710  50.716  1.00  0.00    -0.033 A 
HETATM   14  C12 UNL     1      23.606   2.862  50.136  1.00  0.00     0.002 A 
HETATM   15  C17 UNL     1      24.797   1.771  51.823  1.00  0.00     0.032 A 
HETATM   16  C13 UNL     1      22.271   2.262  50.378  1.00  0.00     0.119 A 
HETATM   17  C14 UNL     1      21.841   1.520  49.172  1.00  0.00     0.068 C 
HETATM   18  C15 UNL     1      22.279   1.296  51.528  1.00  0.00     0.052 A 
HETATM   19  N3  UNL     1      21.514   0.935  48.229  1.00  0.00    -0.197 NA
HETATM   20  C16 UNL     1      23.631   1.205  52.089  1.00  0.00     0.005 A 
ENDBRANCH   9  10
ENDBRANCH   8   9
TORSDOF 2
ENDMDL
MODEL 3
REMARK VINA RESULT:      -8.5      1.954      3.260
REMARK  2 active torsions:
REMARK  status: ('A' for Active; 'I' for Inactive)
REMARK    1  A    between atoms: C7_8  and  C8_9 
REMARK    2  A    between atoms: C8_9  and  N2_10 
ROOT
HETATM    1  N1  UNL     1      28.096  -2.763  52.931  1.00  0.00    -0.191 NA
HETATM    2  C1  UNL     1      28.193  -1.614  53.088  1.00  0.00     0.100 C 
HETATM    3  C2  UNL     1      28.304  -0.194  53.305  1.00  0.00     0.052 A 
HETATM    4  C3  UNL     1      29.336   0.205  54.122  1.00  0.00     0.023 A 
HETATM    5  C4  UNL     1      29.458   1.577  54.364  1.00  0.00     0.002 A 
HETATM    6  C5  UNL     1      28.561   2.469  53.789  1.00  0.00     0.001 A 
HETATM    7  C6  UNL     1      27.537   2.003  52.970  1.00  0.00     0.010 A 
HETATM    8  C7  UNL     1      27.383   0.642  52.705  1.00  0.00    -0.020 A 
ENDROOT
BRANCH   8   9
HETATM    9  C8  UNL     1      26.293   0.190  51.814  1.00  0.00     0.163 C 
BRANCH   9  10
HETATM   10  N2  UNL     1      25.083   0.944  51.906  1.00  0.00    -0.376 N 
HETATM   11  C9  UNL     1      24.621   2.149  51.295  1.00  0.00     0.128 C 
HETATM   12  C10 UNL     1      23.332   2.580  51.896  1.00  0.00     0.060 C 
HETATM   13  C11 UNL     1      22.897   1.494  52.771  1.00  0.00    -0.033 A 
HETATM   14  C12 UNL     1      21.872   1.153  53.527  1.00  0.00     0.002 A 
HETATM   15  C17 UNL     1      23.986   0.535  52.749  1.00  0.00     0.032 A 
HETATM   16  C13 UNL     1      21.590  -0.030  54.376  1.00  0.00     0.119 A 
HETATM   17  C14 UNL     1      20.380  -0.718  53.870  1.00  0.00     0.068 C 
HETATM   18  C15 UNL     1      22.716  -1.024  54.365  1.00  0.00     0.052 A 
HETATM   19  N3  UNL     1      19.439  -1.256  53.466  1.00  0.00    -0.197 NA
HETATM   20  C16 UNL     1      23.792  -0.542  53.492  1.00  0.00     0.005 A 
ENDBRANCH   9  10
ENDBRANCH   8   9
TORSDOF 2
ENDMDL
MODEL 4
REMARK VINA RESULT:      -8.4      1.362      2.242
REMARK  2 active torsions:
REMARK  status: ('A' for Active; 'I' for Inactive)
REMARK    1  A    between atoms: C7_8  and  C8_9 
REMARK    2  A    between atoms: C8_9  and  N2_10 
ROOT
HETATM    1  N1  UNL     1      28.543  -2.781  53.080  1.00  0.00    -0.191 NA
HETATM    2  C1  UNL     1      28.493  -1.625  53.204  1.00  0.00     0.100 C 
HETATM    3  C2  UNL     1      28.425  -0.197  53.381  1.00  0.00     0.052 A 
HETATM    4  C3  UNL     1      29.517   0.381  53.985  1.00  0.00     0.023 A 
HETATM    5  C4  UNL     1      29.472   1.764  54.185  1.00  0.00     0.002 A 
HETATM    6  C5  UNL     1      28.360   2.492  53.781  1.00  0.00     0.001 A 
HETATM    7  C6  UNL     1      27.285   1.849  53.174  1.00  0.00     0.010 A 
HETATM    8  C7  UNL     1      27.293   0.470  52.957  1.00  0.00    -0.020 A 
ENDROOT
BRANCH   8   9
HETATM    9  C8  UNL     1      26.139  -0.171  52.292  1.00  0.00     0.163 C 
BRANCH   9  10
HETATM   10  N2  UNL     1      24.958  -0.269  53.091  1.00  0.00    -0.376 N 
HETATM   11  C9  UNL     1      24.691  -0.764  54.404  1.00  0.00     0.128 C 
HETATM   12  C10 UNL     1      23.229  -0.782  54.668  1.00  0.00     0.060 C 
HETATM   13  C11 UNL     1      22.594  -0.091  53.549  1.00  0.00    -0.033 A 
HETATM   14  C12 UNL     1      21.404   0.321  53.157  1.00  0.00     0.002 A 
HETATM   15  C17 UNL     1      23.674   0.193  52.622  1.00  0.00     0.032 A 
HETATM   16  C13 UNL     1      20.927   1.032  51.947  1.00  0.00     0.119 A 
HETATM   17  C14 UNL     1      20.327   2.326  52.342  1.00  0.00     0.068 C 
HETATM   18  C15 UNL     1      22.038   1.323  50.979  1.00  0.00     0.052 A 
HETATM   19  N3  UNL     1      19.867   3.339  52.657  1.00  0.00    -0.197 NA
HETATM   20  C16 UNL     1      23.308   0.825  51.519  1.00  0.00     0.005 A 
ENDBRANCH   9  10
ENDBRANCH   8   9
TORSDOF 2
ENDMDL
MODEL 5
REMARK VINA RESULT:      -8.1      3.557      4.957
REMARK  2 active torsions:
REMARK  status: ('A' for Active; 'I' for Inactive)
REMARK    1  A    between atoms: C7_8  and  C8_9 
REMARK    2  A    between atoms: C8_9  and  N2_10 
ROOT
HETATM    1  N1  UNL     1      26.803  -2.367  52.407  1.00  0.00    -0.191 NA
HETATM    2  C1  UNL     1      27.258  -1.342  52.720  1.00  0.00     0.100 C 
HETATM    3  C2  UNL     1      27.807  -0.074  53.128  1.00  0.00     0.052 A 
HETATM    4  C3  UNL     1      28.778  -0.130  54.099  1.00  0.00     0.023 A 
HETATM    5  C4  UNL     1      29.318   1.087  54.527  1.00  0.00     0.002 A 
HETATM    6  C5  UNL     1      28.870   2.281  53.975  1.00  0.00     0.001 A 
HETATM    7  C6  UNL     1      27.883   2.272  52.993  1.00  0.00     0.010 A 
HETATM    8  C7  UNL     1      27.321   1.078  52.541  1.00  0.00    -0.020 A 
ENDROOT
BRANCH   8   9
HETATM    9  C8  UNL     1      26.289   1.111  51.483  1.00  0.00     0.163 C 
BRANCH   9  10
HETATM   10  N2  UNL     1      25.419   2.244  51.522  1.00  0.00    -0.376 N 
HETATM   11  C9  UNL     1      24.270   2.582  52.299  1.00  0.00     0.128 C 
HETATM   12  C10 UNL     1      23.644   3.831  51.792  1.00  0.00     0.060 C 
HETATM   13  C11 UNL     1      24.556   4.378  50.791  1.00  0.00    -0.033 A 
HETATM   14  C12 UNL     1      24.695   5.439  50.021  1.00  0.00     0.002 A 
HETATM   15  C17 UNL     1      25.607   3.385  50.659  1.00  0.00     0.032 A 
HETATM   16  C13 UNL     1      25.721   5.843  49.029  1.00  0.00     0.119 A 
HETATM   17  C14 UNL     1      26.355   7.107  49.467  1.00  0.00     0.068 C 
HETATM   18  C15 UNL     1      26.808   4.817  48.880  1.00  0.00     0.052 A 
HETATM   19  N3  UNL     1      26.852   8.090  49.819  1.00  0.00    -0.197 NA
HETATM   20  C16 UNL     1      26.551   3.689  49.784  1.00  0.00     0.005 A 
ENDBRANCH   9  10
ENDBRANCH   8   9
TORSDOF 2
ENDMDL
MODEL 6
REMARK VINA RESULT:      -8.0      2.203      6.141
REMARK  2 active torsions:
REMARK  status: ('A' for Active; 'I' for Inactive)
REMARK    1  A    between atoms: C7_8  and  C8_9 
REMARK    2  A    between atoms: C8_9  and  N2_10 
ROOT
HETATM    1  N1  UNL     1      24.847   4.633  50.560  1.00  0.00    -0.191 NA
HETATM    2  C1  UNL     1      24.077   3.848  50.178  1.00  0.00     0.100 C 
HETATM    3  C2  UNL     1      23.109   2.894  49.698  1.00  0.00     0.052 A 
HETATM    4  C3  UNL     1      23.096   2.693  48.338  1.00  0.00     0.023 A 
HETATM    5  C4  UNL     1      22.155   1.785  47.841  1.00  0.00     0.002 A 
HETATM    6  C5  UNL     1      21.288   1.133  48.710  1.00  0.00     0.001 A 
HETATM    7  C6  UNL     1      21.352   1.380  50.078  1.00  0.00     0.010 A 
HETATM    8  C7  UNL     1      22.277   2.278  50.611  1.00  0.00    -0.020 A 
ENDROOT
BRANCH   8   9
HETATM    9  C8  UNL     1      22.324   2.498  52.073  1.00  0.00     0.163 C 
BRANCH   9  10
HETATM   10  N2  UNL     1      22.564   1.325  52.854  1.00  0.00    -0.376 N 
HETATM   11  C9  UNL     1      21.722   0.443  53.596  1.00  0.00     0.128 C 
HETATM   12  C10 UNL     1      22.536  -0.528  54.372  1.00  0.00     0.060 C 
HETATM   13  C11 UNL     1      23.919  -0.355  53.936  1.00  0.00    -0.033 A 
HETATM   14  C12 UNL     1      25.111  -0.889  54.116  1.00  0.00     0.002 A 
HETATM   15  C17 UNL     1      23.887   0.776  53.026  1.00  0.00     0.032 A 
HETATM   16  C13 UNL     1      26.454  -0.573  53.571  1.00  0.00     0.119 A 
HETATM   17  C14 UNL     1      26.962  -1.740  52.815  1.00  0.00     0.068 C 
HETATM   18  C15 UNL     1      26.431   0.601  52.635  1.00  0.00     0.052 A 
HETATM   19  N3  UNL     1      27.351  -2.651  52.218  1.00  0.00    -0.197 NA
HETATM   20  C16 UNL     1      25.059   1.107  52.510  1.00  0.00     0.005 A 
ENDBRANCH   9  10
ENDBRANCH   8   9
TORSDOF 2
ENDMDL
MODEL 7
REMARK VINA RESULT:      -7.8      4.081      5.466
REMARK  2 active torsions:
REMARK  status: ('A' for Active; 'I' for Inactive)
REMARK    1  A    between atoms: C7_8  and  C8_9 
REMARK    2  A    between atoms: C8_9  and  N2_10 
ROOT
HETATM    1  N1  UNL     1      29.030   2.539  53.419  1.00  0.00    -0.191 NA
HETATM    2  C1  UNL     1      28.064   1.894  53.492  1.00  0.00     0.100 C 
HETATM    3  C2  UNL     1      26.881   1.075  53.578  1.00  0.00     0.052 A 
HETATM    4  C3  UNL     1      26.699   0.415  54.770  1.00  0.00     0.023 A 
HETATM    5  C4  UNL     1      25.568  -0.400  54.877  1.00  0.00     0.002 A 
HETATM    6  C5  UNL     1      24.689  -0.516  53.807  1.00  0.00     0.001 A 
HETATM    7  C6  UNL     1      24.928   0.179  52.625  1.00  0.00     0.010 A 
HETATM    8  C7  UNL     1      26.045   1.002  52.481  1.00  0.00    -0.020 A 
ENDROOT
BRANCH   8   9
HETATM    9  C8  UNL     1      26.253   1.737  51.215  1.00  0.00     0.163 C 
BRANCH   9  10
HETATM   10  N2  UNL     1      25.531   2.966  51.103  1.00  0.00    -0.376 N 
HETATM   11  C9  UNL     1      24.360   3.485  51.733  1.00  0.00     0.128 C 
HETATM   12  C10 UNL     1      23.949   4.764  51.099  1.00  0.00     0.060 C 
HETATM   13  C11 UNL     1      25.019   5.136  50.178  1.00  0.00    -0.033 A 
HETATM   14  C12 UNL     1      25.367   6.124  49.376  1.00  0.00     0.002 A 
HETATM   15  C17 UNL     1      25.947   4.020  50.211  1.00  0.00     0.032 A 
HETATM   16  C13 UNL     1      26.532   6.341  48.484  1.00  0.00     0.119 A 
HETATM   17  C14 UNL     1      27.269   7.546  48.926  1.00  0.00     0.068 C 
HETATM   18  C15 UNL     1      27.492   5.187  48.505  1.00  0.00     0.052 A 
HETATM   19  N3  UNL     1      27.847   8.484  49.280  1.00  0.00    -0.197 NA
HETATM   20  C16 UNL     1      27.006   4.156  49.430  1.00  0.00     0.005 A 
ENDBRANCH   9  10
ENDBRANCH   8   9
TORSDOF 2
ENDMDL
MODEL 8
REMARK VINA RESULT:      -7.8      2.183      2.919
REMARK  2 active torsions:
REMARK  status: ('A' for Active; 'I' for Inactive)
REMARK    1  A    between atoms: C7_8  and  C8_9 
REMARK    2  A    between atoms: C8_9  and  N2_10 
ROOT
HETATM    1  N1  UNL     1      26.788   3.089  50.425  1.00  0.00    -0.191 NA
HETATM    2  C1  UNL     1      26.838   2.483  51.417  1.00  0.00     0.100 C 
HETATM    3  C2  UNL     1      26.897   1.712  52.634  1.00  0.00     0.052 A 
HETATM    4  C3  UNL     1      28.085   1.060  52.869  1.00  0.00     0.023 A 
HETATM    5  C4  UNL     1      28.165   0.291  54.034  1.00  0.00     0.002 A 
HETATM    6  C5  UNL     1      27.076   0.209  54.892  1.00  0.00     0.001 A 
HETATM    7  C6  UNL     1      25.900   0.893  54.599  1.00  0.00     0.010 A 
HETATM    8  C7  UNL     1      25.782   1.672  53.447  1.00  0.00    -0.020 A 
ENDROOT
BRANCH   8   9
HETATM    9  C8  UNL     1      24.521   2.397  53.181  1.00  0.00     0.163 C 
BRANCH   9  10
HETATM   10  N2  UNL     1      23.439   1.584  52.725  1.00  0.00    -0.376 N 
HETATM   11  C9  UNL     1      22.605   0.607  53.351  1.00  0.00     0.128 C 
HETATM   12  C10 UNL     1      21.741  -0.064  52.345  1.00  0.00     0.060 C 
HETATM   13  C11 UNL     1      21.916   0.665  51.092  1.00  0.00    -0.033 A 
HETATM   14  C12 UNL     1      21.442   0.692  49.861  1.00  0.00     0.002 A 
HETATM   15  C17 UNL     1      22.952   1.644  51.369  1.00  0.00     0.032 A 
HETATM   16  C13 UNL     1      21.747   1.530  48.677  1.00  0.00     0.119 A 
HETATM   17  C14 UNL     1      20.530   2.271  48.275  1.00  0.00     0.068 C 
HETATM   18  C15 UNL     1      22.824   2.540  48.953  1.00  0.00     0.052 A 
HETATM   19  N3  UNL     1      19.579   2.854  47.969  1.00  0.00    -0.197 NA
HETATM   20  C16 UNL     1      23.270   2.420  50.346  1.00  0.00     0.005 A 
ENDBRANCH   9  10
ENDBRANCH   8   9
TORSDOF 2
ENDMDL
MODEL 9
REMARK VINA RESULT:      -7.7      1.969      6.949
REMARK  2 active torsions:
REMARK  status: ('A' for Active; 'I' for Inactive)
REMARK    1  A    between atoms: C7_8  and  C8_9 
REMARK    2  A    between atoms: C8_9  and  N2_10 
ROOT
HETATM    1  N1  UNL     1      21.176   0.054  54.747  1.00  0.00    -0.191 NA
HETATM    2  C1  UNL     1      20.981   0.448  53.669  1.00  0.00     0.100 C 
HETATM    3  C2  UNL     1      20.753   0.918  52.326  1.00  0.00     0.052 A 
HETATM    4  C3  UNL     1      19.774   0.256  51.622  1.00  0.00     0.023 A 
HETATM    5  C4  UNL     1      19.542   0.680  50.310  1.00  0.00     0.002 A 
HETATM    6  C5  UNL     1      20.284   1.723  49.772  1.00  0.00     0.001 A 
HETATM    7  C6  UNL     1      21.262   2.354  50.536  1.00  0.00     0.010 A 
HETATM    8  C7  UNL     1      21.522   1.961  51.849  1.00  0.00    -0.020 A 
ENDROOT
BRANCH   8   9
HETATM    9  C8  UNL     1      22.556   2.669  52.633  1.00  0.00     0.163 C 
BRANCH   9  10
HETATM   10  N2  UNL     1      23.872   2.626  52.077  1.00  0.00    -0.376 N 
HETATM   11  C9  UNL     1      24.637   3.530  51.279  1.00  0.00     0.128 C 
HETATM   12  C10 UNL     1      25.903   2.891  50.833  1.00  0.00     0.060 C 
HETATM   13  C11 UNL     1      26.002   1.620  51.546  1.00  0.00    -0.033 A 
HETATM   14  C12 UNL     1      26.837   0.612  51.708  1.00  0.00     0.002 A 
HETATM   15  C17 UNL     1      24.754   1.502  52.278  1.00  0.00     0.032 A 
HETATM   16  C13 UNL     1      26.771  -0.640  52.499  1.00  0.00     0.119 A 
HETATM   17  C14 UNL     1      27.871  -0.653  53.489  1.00  0.00     0.068 C 
HETATM   18  C15 UNL     1      25.479  -0.774  53.253  1.00  0.00     0.052 A 
HETATM   19  N3  UNL     1      28.728  -0.654  54.266  1.00  0.00    -0.197 NA
HETATM   20  C16 UNL     1      24.636   0.400  53.001  1.00  0.00     0.005 A 
ENDBRANCH   9  10
ENDBRANCH   8   9
TORSDOF 2
ENDMDL
