MODEL 1
REMARK VINA RESULT:      -8.2      0.000      0.000
REMARK  4 active torsions:
REMARK  status: ('A' for Active; 'I' for Inactive)
REMARK    1  A    between atoms: C3_3  and  N1_4 
REMARK    2  A    between atoms: N1_4  and  C4_5 
REMARK    3  A    between atoms: C7_9  and  N2_10 
REMARK    4  A    between atoms: N2_10  and  C8_11 
ROOT
HETATM    1  C1  UNL     1      20.922   0.685  50.577  1.00  0.00     0.028 C 
HETATM    2  C2  UNL     1      21.948   0.829  51.395  1.00  0.00     0.011 A 
HETATM    3  C3  UNL     1      22.247   0.263  52.699  1.00  0.00     0.047 A 
HETATM    4  C5  UNL     1      23.412   0.732  53.104  1.00  0.00     0.048 A 
HETATM    5  C6  UNL     1      23.919   1.628  52.070  1.00  0.00     0.042 A 
HETATM    6  C7  UNL     1      25.120   2.365  52.059  1.00  0.00     0.142 A 
HETATM    7  N3  UNL     1      25.305   3.107  50.958  1.00  0.00    -0.224 NA
HETATM    8  C14 UNL     1      24.458   3.184  49.928  1.00  0.00     0.236 A 
HETATM    9  N4  UNL     1      23.303   2.489  49.920  1.00  0.00    -0.240 NA
HETATM   10  C15 UNL     1      23.042   1.709  51.005  1.00  0.00     0.084 A 
ENDROOT
BRANCH   6  11
HETATM   11  N2  UNL     1      26.023   2.275  53.138  1.00  0.00    -0.340 N 
HETATM   12  H6  UNL     1      25.769   2.962  53.871  1.00  0.00     0.167 HD
BRANCH  11  13
HETATM   13  C8  UNL     1      27.119   1.399  53.272  1.00  0.00     0.035 A 
HETATM   14  C9  UNL     1      28.349   1.812  53.726  1.00  0.00     0.032 A 
HETATM   15  C10 UNL     1      29.448   0.976  53.892  1.00  0.00     0.046 A 
HETATM   16  C11 UNL     1      29.228  -0.345  53.565  1.00  0.00     0.138 A 
HETATM   17  F1  UNL     1      30.251  -1.232  53.708  1.00  0.00    -0.204 F 
HETATM   18  C12 UNL     1      28.003  -0.802  53.105  1.00  0.00     0.074 A 
HETATM   19 CL1  UNL     1      27.844  -2.497  52.725  1.00  0.00    -0.081 Cl
HETATM   20  C13 UNL     1      26.928   0.082  52.953  1.00  0.00     0.056 A 
ENDBRANCH  11  13
ENDBRANCH   6  11
BRANCH   3  21
HETATM   21  N1  UNL     1      21.367  -0.633  53.360  1.00  0.00    -0.334 N 
HETATM   22  H3  UNL     1      20.528  -1.205  53.257  1.00  0.00     0.168 HD
BRANCH  21  23
HETATM   23  C4  UNL     1      21.811  -0.856  54.721  1.00  0.00     0.353 C 
HETATM   24  O1  UNL     1      22.317  -1.737  55.481  1.00  0.00    -0.283 OA
ENDBRANCH  21  23
ENDBRANCH   3  21
TORSDOF 4
ENDMDL
MODEL 2
REMARK VINA RESULT:      -8.1      2.565      3.888
REMARK  4 active torsions:
REMARK  status: ('A' for Active; 'I' for Inactive)
REMARK    1  A    between atoms: C3_3  and  N1_4 
REMARK    2  A    between atoms: N1_4  and  C4_5 
REMARK    3  A    between atoms: C7_9  and  N2_10 
REMARK    4  A    between atoms: N2_10  and  C8_11 
ROOT
HETATM    1  C1  UNL     1      19.039  -0.692  53.299  1.00  0.00     0.028 C 
HETATM    2  C2  UNL     1      20.244  -0.275  52.958  1.00  0.00     0.011 A 
HETATM    3  C3  UNL     1      20.721   0.547  51.859  1.00  0.00     0.047 A 
HETATM    4  C5  UNL     1      22.030   0.671  51.964  1.00  0.00     0.048 A 
HETATM    5  C6  UNL     1      22.459  -0.072  53.144  1.00  0.00     0.042 A 
HETATM    6  C7  UNL     1      23.763  -0.235  53.653  1.00  0.00     0.142 A 
HETATM    7  N3  UNL     1      23.835  -0.984  54.762  1.00  0.00    -0.224 NA
HETATM    8  C14 UNL     1      22.796  -1.556  55.376  1.00  0.00     0.236 A 
HETATM    9  N4  UNL     1      21.541  -1.414  54.905  1.00  0.00    -0.240 NA
HETATM   10  C15 UNL     1      21.384  -0.665  53.779  1.00  0.00     0.084 A 
ENDROOT
BRANCH   6  11
HETATM   11  N2  UNL     1      24.860   0.378  53.015  1.00  0.00    -0.340 N 
HETATM   12  H6  UNL     1      24.528   1.112  52.364  1.00  0.00     0.167 HD
BRANCH  11  13
HETATM   13  C8  UNL     1      26.229   0.095  53.198  1.00  0.00     0.035 A 
HETATM   14  C9  UNL     1      26.792  -1.108  52.842  1.00  0.00     0.032 A 
HETATM   15  C10 UNL     1      28.140  -1.418  52.985  1.00  0.00     0.046 A 
HETATM   16  C11 UNL     1      28.915  -0.413  53.524  1.00  0.00     0.138 A 
HETATM   17  F1  UNL     1      30.248  -0.633  53.690  1.00  0.00    -0.204 F 
HETATM   18  C12 UNL     1      28.386   0.813  53.896  1.00  0.00     0.074 A 
HETATM   19 CL1  UNL     1      29.465   2.009  54.565  1.00  0.00    -0.081 Cl
HETATM   20  C13 UNL     1      27.020   1.075  53.732  1.00  0.00     0.056 A 
ENDBRANCH  11  13
ENDBRANCH   6  11
BRANCH   3  21
HETATM   21  N1  UNL     1      19.849   1.082  50.875  1.00  0.00    -0.334 N 
HETATM   22  H3  UNL     1      19.461   0.942  49.942  1.00  0.00     0.168 HD
BRANCH  21  23
HETATM   23  C4  UNL     1      19.249   2.309  51.354  1.00  0.00     0.353 C 
HETATM   24  O1  UNL     1      19.343   3.183  52.268  1.00  0.00    -0.283 OA
ENDBRANCH  21  23
ENDBRANCH   3  21
TORSDOF 4
ENDMDL
MODEL 3
REMARK VINA RESULT:      -7.5      3.446      5.457
REMARK  4 active torsions:
REMARK  status: ('A' for Active; 'I' for Inactive)
REMARK    1  A    between atoms: C3_3  and  N1_4 
REMARK    2  A    between atoms: N1_4  and  C4_5 
REMARK    3  A    between atoms: C7_9  and  N2_10 
REMARK    4  A    between atoms: N2_10  and  C8_11 
ROOT
HETATM    1  C1  UNL     1      22.767  -1.297  55.308  1.00  0.00     0.028 C 
HETATM    2  C2  UNL     1      23.194  -0.638  54.248  1.00  0.00     0.011 A 
HETATM    3  C3  UNL     1      24.525  -0.399  53.715  1.00  0.00     0.047 A 
HETATM    4  C5  UNL     1      24.415   0.330  52.621  1.00  0.00     0.048 A 
HETATM    5  C6  UNL     1      22.998   0.597  52.399  1.00  0.00     0.042 A 
HETATM    6  C7  UNL     1      22.396   1.339  51.363  1.00  0.00     0.142 A 
HETATM    7  N3  UNL     1      21.059   1.406  51.434  1.00  0.00    -0.224 NA
HETATM    8  C14 UNL     1      20.308   0.841  52.384  1.00  0.00     0.236 A 
HETATM    9  N4  UNL     1      20.864   0.129  53.384  1.00  0.00    -0.240 NA
HETATM   10  C15 UNL     1      22.220   0.014  53.382  1.00  0.00     0.084 A 
ENDROOT
BRANCH   6  11
HETATM   11  N2  UNL     1      23.185   1.925  50.353  1.00  0.00    -0.340 N 
HETATM   12  H6  UNL     1      23.245   1.290  49.536  1.00  0.00     0.167 HD
BRANCH  11  13
HETATM   13  C8  UNL     1      23.817   3.184  50.378  1.00  0.00     0.035 A 
HETATM   14  C9  UNL     1      23.330   4.246  51.104  1.00  0.00     0.032 A 
HETATM   15  C10 UNL     1      23.935   5.496  51.172  1.00  0.00     0.046 A 
HETATM   16  C11 UNL     1      25.098   5.620  50.442  1.00  0.00     0.138 A 
HETATM   17  F1  UNL     1      25.757   6.811  50.462  1.00  0.00    -0.204 F 
HETATM   18  C12 UNL     1      25.622   4.575  49.698  1.00  0.00     0.074 A 
HETATM   19 CL1  UNL     1      27.102   4.851  48.817  1.00  0.00    -0.081 Cl
HETATM   20  C13 UNL     1      24.973   3.335  49.662  1.00  0.00     0.056 A 
ENDBRANCH  11  13
ENDBRANCH   6  11
BRANCH   3  21
HETATM   21  N1  UNL     1      25.696  -0.901  54.340  1.00  0.00    -0.334 N 
HETATM   22  H3  UNL     1      26.109  -1.705  54.813  1.00  0.00     0.168 HD
BRANCH  21  23
HETATM   23  C4  UNL     1      26.748   0.093  54.299  1.00  0.00     0.353 C 
HETATM   24  O1  UNL     1      27.391   0.906  55.032  1.00  0.00    -0.283 OA
ENDBRANCH  21  23
ENDBRANCH   3  21
TORSDOF 4
ENDMDL
MODEL 4
REMARK VINA RESULT:      -7.4      4.289      6.053
REMARK  4 active torsions:
REMARK  status: ('A' for Active; 'I' for Inactive)
REMARK    1  A    between atoms: C3_3  and  N1_4 
REMARK    2  A    between atoms: N1_4  and  C4_5 
REMARK    3  A    between atoms: C7_9  and  N2_10 
REMARK    4  A    between atoms: N2_10  and  C8_11 
ROOT
HETATM    1  C1  UNL     1      24.891  -0.884  54.584  1.00  0.00     0.028 C 
HETATM    2  C2  UNL     1      25.491  -0.173  53.648  1.00  0.00     0.011 A 
HETATM    3  C3  UNL     1      26.887  -0.031  53.272  1.00  0.00     0.047 A 
HETATM    4  C5  UNL     1      26.966   0.813  52.260  1.00  0.00     0.048 A 
HETATM    5  C6  UNL     1      25.614   1.256  51.938  1.00  0.00     0.042 A 
HETATM    6  C7  UNL     1      25.201   2.161  50.940  1.00  0.00     0.142 A 
HETATM    7  N3  UNL     1      23.877   2.369  50.893  1.00  0.00    -0.224 NA
HETATM    8  C14 UNL     1      22.978   1.798  51.700  1.00  0.00     0.236 A 
HETATM    9  N4  UNL     1      23.352   0.931  52.662  1.00  0.00    -0.240 NA
HETATM   10  C15 UNL     1      24.683   0.666  52.773  1.00  0.00     0.084 A 
ENDROOT
BRANCH   6  11
HETATM   11  N2  UNL     1      26.146   2.754  50.079  1.00  0.00    -0.340 N 
HETATM   12  H6  UNL     1      26.768   2.028  49.680  1.00  0.00     0.167 HD
BRANCH  11  13
HETATM   13  C8  UNL     1      26.275   4.120  49.755  1.00  0.00     0.035 A 
HETATM   14  C9  UNL     1      27.233   4.591  48.889  1.00  0.00     0.032 A 
HETATM   15  C10 UNL     1      27.379   5.926  48.527  1.00  0.00     0.046 A 
HETATM   16  C11 UNL     1      26.473   6.788  49.107  1.00  0.00     0.138 A 
HETATM   17  F1  UNL     1      26.543   8.113  48.798  1.00  0.00    -0.204 F 
HETATM   18  C12 UNL     1      25.493   6.354  49.985  1.00  0.00     0.074 A 
HETATM   19 CL1  UNL     1      24.401   7.539  50.654  1.00  0.00    -0.081 Cl
HETATM   20  C13 UNL     1      25.389   4.998  50.318  1.00  0.00     0.056 A 
ENDBRANCH  11  13
ENDBRANCH   6  11
BRANCH   3  21
HETATM   21  N1  UNL     1      27.930  -0.721  53.942  1.00  0.00    -0.334 N 
HETATM   22  H3  UNL     1      28.423  -1.610  54.024  1.00  0.00     0.168 HD
BRANCH  21  23
HETATM   23  C4  UNL     1      28.583   0.160  54.889  1.00  0.00     0.353 C 
HETATM   24  O1  UNL     1      29.076   1.324  55.003  1.00  0.00    -0.283 OA
ENDBRANCH  21  23
ENDBRANCH   3  21
TORSDOF 4
ENDMDL
MODEL 5
REMARK VINA RESULT:      -7.3      2.400      3.846
REMARK  4 active torsions:
REMARK  status: ('A' for Active; 'I' for Inactive)
REMARK    1  A    between atoms: C3_3  and  N1_4 
REMARK    2  A    between atoms: N1_4  and  C4_5 
REMARK    3  A    between atoms: C7_9  and  N2_10 
REMARK    4  A    between atoms: N2_10  and  C8_11 
ROOT
HETATM    1  C1  UNL     1      20.051   2.414  52.355  1.00  0.00     0.028 C 
HETATM    2  C2  UNL     1      21.258   1.897  52.222  1.00  0.00     0.011 A 
HETATM    3  C3  UNL     1      22.322   2.132  51.261  1.00  0.00     0.047 A 
HETATM    4  C5  UNL     1      23.342   1.351  51.563  1.00  0.00     0.048 A 
HETATM    5  C6  UNL     1      22.977   0.572  52.742  1.00  0.00     0.042 A 
HETATM    6  C7  UNL     1      23.739  -0.397  53.425  1.00  0.00     0.142 A 
HETATM    7  N3  UNL     1      23.122  -0.944  54.481  1.00  0.00    -0.224 NA
HETATM    8  C14 UNL     1      21.889  -0.640  54.898  1.00  0.00     0.236 A 
HETATM    9  N4  UNL     1      21.143   0.283  54.258  1.00  0.00    -0.240 NA
HETATM   10  C15 UNL     1      21.701   0.886  53.173  1.00  0.00     0.084 A 
ENDROOT
BRANCH   6  11
HETATM   11  N2  UNL     1      25.045  -0.710  52.996  1.00  0.00    -0.340 N 
HETATM   12  H6  UNL     1      25.025  -1.542  52.379  1.00  0.00     0.167 HD
BRANCH  11  13
HETATM   13  C8  UNL     1      26.239  -0.030  53.309  1.00  0.00     0.035 A 
HETATM   14  C9  UNL     1      26.273   1.311  53.612  1.00  0.00     0.032 A 
HETATM   15  C10 UNL     1      27.426   2.012  53.947  1.00  0.00     0.046 A 
HETATM   16  C11 UNL     1      28.581   1.261  53.961  1.00  0.00     0.138 A 
HETATM   17  F1  UNL     1      29.754   1.871  54.288  1.00  0.00    -0.204 F 
HETATM   18  C12 UNL     1      28.590  -0.092  53.662  1.00  0.00     0.074 A 
HETATM   19 CL1  UNL     1      30.114  -0.940  53.715  1.00  0.00    -0.081 Cl
HETATM   20  C13 UNL     1      27.401  -0.753  53.329  1.00  0.00     0.056 A 
ENDBRANCH  11  13
ENDBRANCH   6  11
BRANCH   3  21
HETATM   21  N1  UNL     1      22.195   3.062  50.197  1.00  0.00    -0.334 N 
HETATM   22  H3  UNL     1      21.874   3.191  49.237  1.00  0.00     0.168 HD
BRANCH  21  23
HETATM   23  C4  UNL     1      22.708   4.355  50.600  1.00  0.00     0.353 C 
HETATM   24  O1  UNL     1      23.608   4.902  51.308  1.00  0.00    -0.283 OA
ENDBRANCH  21  23
ENDBRANCH   3  21
TORSDOF 4
ENDMDL
MODEL 6
REMARK VINA RESULT:      -7.3      3.724      5.304
REMARK  4 active torsions:
REMARK  status: ('A' for Active; 'I' for Inactive)
REMARK    1  A    between atoms: C3_3  and  N1_4 
REMARK    2  A    between atoms: N1_4  and  C4_5 
REMARK    3  A    between atoms: C7_9  and  N2_10 
REMARK    4  A    between atoms: N2_10  and  C8_11 
ROOT
HETATM    1  C1  UNL     1      22.735  -1.563  55.290  1.00  0.00     0.028 C 
HETATM    2  C2  UNL     1      22.655  -0.652  54.338  1.00  0.00     0.011 A 
HETATM    3  C3  UNL     1      21.538   0.103  53.798  1.00  0.00     0.047 A 
HETATM    4  C5  UNL     1      21.987   0.895  52.843  1.00  0.00     0.048 A 
HETATM    5  C6  UNL     1      23.426   0.682  52.723  1.00  0.00     0.042 A 
HETATM    6  C7  UNL     1      24.334   1.296  51.837  1.00  0.00     0.142 A 
HETATM    7  N3  UNL     1      25.602   0.884  51.970  1.00  0.00    -0.224 NA
HETATM    8  C14 UNL     1      26.029  -0.028  52.848  1.00  0.00     0.236 A 
HETATM    9  N4  UNL     1      25.178  -0.628  53.703  1.00  0.00    -0.240 NA
HETATM   10  C15 UNL     1      23.868  -0.263  53.630  1.00  0.00     0.084 A 
ENDROOT
BRANCH   6  11
HETATM   11  N2  UNL     1      23.888   2.268  50.919  1.00  0.00    -0.340 N 
HETATM   12  H6  UNL     1      22.942   2.024  50.574  1.00  0.00     0.167 HD
BRANCH  11  13
HETATM   13  C8  UNL     1      24.569   3.429  50.499  1.00  0.00     0.035 A 
HETATM   14  C9  UNL     1      25.660   3.389  49.663  1.00  0.00     0.032 A 
HETATM   15  C10 UNL     1      26.344   4.511  49.208  1.00  0.00     0.046 A 
HETATM   16  C11 UNL     1      25.849   5.716  49.658  1.00  0.00     0.138 A 
HETATM   17  F1  UNL     1      26.458   6.864  49.252  1.00  0.00    -0.204 F 
HETATM   18  C12 UNL     1      24.752   5.800  50.501  1.00  0.00     0.074 A 
HETATM   19 CL1  UNL     1      24.215   7.382  51.002  1.00  0.00    -0.081 Cl
HETATM   20  C13 UNL     1      24.098   4.639  50.931  1.00  0.00     0.056 A 
ENDBRANCH  11  13
ENDBRANCH   6  11
BRANCH   3  21
HETATM   21  N1  UNL     1      20.211  -0.054  54.275  1.00  0.00    -0.334 N 
HETATM   22  H3  UNL     1      19.604   0.027  55.092  1.00  0.00     0.168 HD
BRANCH  21  23
HETATM   23  C4  UNL     1      19.343  -0.497  53.203  1.00  0.00     0.353 C 
HETATM   24  O1  UNL     1      18.223  -1.049  52.981  1.00  0.00    -0.283 OA
ENDBRANCH  21  23
ENDBRANCH   3  21
TORSDOF 4
ENDMDL
MODEL 7
REMARK VINA RESULT:      -7.2      4.282      6.367
REMARK  4 active torsions:
REMARK  status: ('A' for Active; 'I' for Inactive)
REMARK    1  A    between atoms: C3_3  and  N1_4 
REMARK    2  A    between atoms: N1_4  and  C4_5 
REMARK    3  A    between atoms: C7_9  and  N2_10 
REMARK    4  A    between atoms: N2_10  and  C8_11 
ROOT
HETATM    1  C1  UNL     1      26.299   7.987  48.550  1.00  0.00     0.028 C 
HETATM    2  C2  UNL     1      26.541   6.719  48.824  1.00  0.00     0.011 A 
HETATM    3  C3  UNL     1      27.635   5.832  48.467  1.00  0.00     0.047 A 
HETATM    4  C5  UNL     1      27.402   4.644  48.993  1.00  0.00     0.048 A 
HETATM    5  C6  UNL     1      26.137   4.713  49.717  1.00  0.00     0.042 A 
HETATM    6  C7  UNL     1      25.477   3.693  50.430  1.00  0.00     0.142 A 
HETATM    7  N3  UNL     1      24.318   4.069  50.990  1.00  0.00    -0.224 NA
HETATM    8  C14 UNL     1      23.783   5.290  50.910  1.00  0.00     0.236 A 
HETATM    9  N4  UNL     1      24.397   6.280  50.231  1.00  0.00    -0.240 NA
HETATM   10  C15 UNL     1      25.582   5.977  49.633  1.00  0.00     0.084 A 
ENDROOT
BRANCH   6  11
HETATM   11  N2  UNL     1      26.046   2.407  50.528  1.00  0.00    -0.340 N 
HETATM   12  H6  UNL     1      26.125   1.982  49.586  1.00  0.00     0.167 HD
BRANCH  11  13
HETATM   13  C8  UNL     1      26.476   1.744  51.694  1.00  0.00     0.035 A 
HETATM   14  C9  UNL     1      25.872   0.602  52.166  1.00  0.00     0.032 A 
HETATM   15  C10 UNL     1      26.279  -0.094  53.299  1.00  0.00     0.046 A 
HETATM   16  C11 UNL     1      27.368   0.445  53.952  1.00  0.00     0.138 A 
HETATM   17  F1  UNL     1      27.836  -0.182  55.067  1.00  0.00    -0.204 F 
HETATM   18  C12 UNL     1      28.005   1.593  53.510  1.00  0.00     0.074 A 
HETATM   19 CL1  UNL     1      29.375   2.178  54.417  1.00  0.00    -0.081 Cl
HETATM   20  C13 UNL     1      27.554   2.257  52.362  1.00  0.00     0.056 A 
ENDBRANCH  11  13
ENDBRANCH   6  11
BRANCH   3  21
HETATM   21  N1  UNL     1      28.731   6.257  47.673  1.00  0.00    -0.334 N 
HETATM   22  H3  UNL     1      29.015   6.855  46.896  1.00  0.00     0.168 HD
BRANCH  21  23
HETATM   23  C4  UNL     1      29.950   5.613  48.119  1.00  0.00     0.353 C 
HETATM   24  O1  UNL     1      30.818   4.756  47.770  1.00  0.00    -0.283 OA
ENDBRANCH  21  23
ENDBRANCH   3  21
TORSDOF 4
ENDMDL
MODEL 8
REMARK VINA RESULT:      -7.2      4.332      5.830
REMARK  4 active torsions:
REMARK  status: ('A' for Active; 'I' for Inactive)
REMARK    1  A    between atoms: C3_3  and  N1_4 
REMARK    2  A    between atoms: N1_4  and  C4_5 
REMARK    3  A    between atoms: C7_9  and  N2_10 
REMARK    4  A    between atoms: N2_10  and  C8_11 
ROOT
HETATM    1  C1  UNL     1      23.157   0.310  53.698  1.00  0.00     0.028 C 
HETATM    2  C2  UNL     1      23.528   0.976  52.621  1.00  0.00     0.011 A 
HETATM    3  C3  UNL     1      22.804   1.400  51.435  1.00  0.00     0.047 A 
HETATM    4  C5  UNL     1      23.639   2.041  50.639  1.00  0.00     0.048 A 
HETATM    5  C6  UNL     1      24.949   2.057  51.282  1.00  0.00     0.042 A 
HETATM    6  C7  UNL     1      26.152   2.618  50.809  1.00  0.00     0.142 A 
HETATM    7  N3  UNL     1      27.197   2.466  51.635  1.00  0.00    -0.224 NA
HETATM    8  C14 UNL     1      27.162   1.843  52.816  1.00  0.00     0.236 A 
HETATM    9  N4  UNL     1      26.022   1.298  53.286  1.00  0.00    -0.240 NA
HETATM   10  C15 UNL     1      24.914   1.411  52.503  1.00  0.00     0.084 A 
ENDROOT
BRANCH   6  11
HETATM   11  N2  UNL     1      26.189   3.288  49.569  1.00  0.00    -0.340 N 
HETATM   12  H6  UNL     1      25.954   2.631  48.804  1.00  0.00     0.167 HD
BRANCH  11  13
HETATM   13  C8  UNL     1      26.480   4.647  49.335  1.00  0.00     0.035 A 
HETATM   14  C9  UNL     1      27.560   5.058  48.590  1.00  0.00     0.032 A 
HETATM   15  C10 UNL     1      27.868   6.386  48.317  1.00  0.00     0.046 A 
HETATM   16  C11 UNL     1      26.997   7.308  48.857  1.00  0.00     0.138 A 
HETATM   17  F1  UNL     1      27.224   8.632  48.629  1.00  0.00    -0.204 F 
HETATM   18  C12 UNL     1      25.897   6.936  49.613  1.00  0.00     0.074 A 
HETATM   19 CL1  UNL     1      24.864   8.193  50.241  1.00  0.00    -0.081 Cl
HETATM   20  C13 UNL     1      25.631   5.584  49.859  1.00  0.00     0.056 A 
ENDBRANCH  11  13
ENDBRANCH   6  11
BRANCH   3  21
HETATM   21  N1  UNL     1      21.426   1.121  51.244  1.00  0.00    -0.334 N 
HETATM   22  H3  UNL     1      20.755   0.439  50.887  1.00  0.00     0.168 HD
BRANCH  21  23
HETATM   23  C4  UNL     1      20.621   2.212  51.752  1.00  0.00     0.353 C 
HETATM   24  O1  UNL     1      20.371   2.869  52.809  1.00  0.00    -0.283 OA
ENDBRANCH  21  23
ENDBRANCH   3  21
TORSDOF 4
ENDMDL
MODEL 9
REMARK VINA RESULT:      -6.9      3.637      5.429
REMARK  4 active torsions:
REMARK  status: ('A' for Active; 'I' for Inactive)
REMARK    1  A    between atoms: C3_3  and  N1_4 
REMARK    2  A    between atoms: N1_4  and  C4_5 
REMARK    3  A    between atoms: C7_9  and  N2_10 
REMARK    4  A    between atoms: N2_10  and  C8_11 
ROOT
HETATM    1  C1  UNL     1      24.404   7.536  49.660  1.00  0.00     0.028 C 
HETATM    2  C2  UNL     1      24.699   6.261  49.834  1.00  0.00     0.011 A 
HETATM    3  C3  UNL     1      25.786   5.432  49.340  1.00  0.00     0.047 A 
HETATM    4  C5  UNL     1      25.624   4.207  49.804  1.00  0.00     0.048 A 
HETATM    5  C6  UNL     1      24.417   4.193  50.623  1.00  0.00     0.042 A 
HETATM    6  C7  UNL     1      23.840   3.111  51.317  1.00  0.00     0.142 A 
HETATM    7  N3  UNL     1      22.718   3.415  51.985  1.00  0.00    -0.224 NA
HETATM    8  C14 UNL     1      22.147   4.623  52.024  1.00  0.00     0.236 A 
HETATM    9  N4  UNL     1      22.682   5.670  51.366  1.00  0.00    -0.240 NA
HETATM   10  C15 UNL     1      23.825   5.441  50.663  1.00  0.00     0.084 A 
ENDROOT
BRANCH   6  11
HETATM   11  N2  UNL     1      24.447   1.839  51.289  1.00  0.00    -0.340 N 
HETATM   12  H6  UNL     1      24.126   1.310  50.458  1.00  0.00     0.167 HD
BRANCH  11  13
HETATM   13  C8  UNL     1      25.370   1.307  52.212  1.00  0.00     0.035 A 
HETATM   14  C9  UNL     1      26.723   1.535  52.124  1.00  0.00     0.032 A 
HETATM   15  C10 UNL     1      27.663   1.047  53.026  1.00  0.00     0.046 A 
HETATM   16  C11 UNL     1      27.144   0.291  54.055  1.00  0.00     0.138 A 
HETATM   17  F1  UNL     1      27.998  -0.218  54.986  1.00  0.00    -0.204 F 
HETATM   18  C12 UNL     1      25.787   0.038  54.179  1.00  0.00     0.074 A 
HETATM   19 CL1  UNL     1      25.248  -0.930  55.526  1.00  0.00    -0.081 Cl
HETATM   20  C13 UNL     1      24.882   0.552  53.244  1.00  0.00     0.056 A 
ENDBRANCH  11  13
ENDBRANCH   6  11
BRANCH   3  21
HETATM   21  N1  UNL     1      26.807   5.939  48.495  1.00  0.00    -0.334 N 
HETATM   22  H3  UNL     1      27.064   6.695  47.860  1.00  0.00     0.168 HD
BRANCH  21  23
HETATM   23  C4  UNL     1      27.962   5.067  48.530  1.00  0.00     0.353 C 
HETATM   24  O1  UNL     1      29.228   5.072  48.432  1.00  0.00    -0.283 OA
ENDBRANCH  21  23
ENDBRANCH   3  21
TORSDOF 4
ENDMDL
