MODEL 1
REMARK VINA RESULT:      -8.5      0.000      0.000
REMARK  1 active torsions:
REMARK  status: ('A' for Active; 'I' for Inactive)
REMARK    1  A    between atoms: C15_21  and  O2_22 
ROOT
HETATM    1  C1  UNL     1      28.451  -0.247  54.104  1.00  0.00     0.000 C 
HETATM    2  O1  UNL     1      27.318   0.220  53.380  1.00  0.00     0.000 OA
HETATM    3  C2  UNL     1      26.035  -0.125  53.743  1.00  0.00    -0.042 A 
HETATM    4  C3  UNL     1      26.311   0.624  52.656  1.00  0.00     0.057 A 
HETATM    5  C4  UNL     1      26.765   1.429  51.508  1.00  0.00     0.280 C 
HETATM    6  N1  UNL     1      26.159   2.776  51.478  1.00  0.00     0.088 N 
HETATM    7  C5  UNL     1      26.553   3.324  50.230  1.00  0.00     0.310 C 
HETATM    8  C6  UNL     1      25.902   4.578  49.858  1.00  0.00    -0.004 A 
HETATM    9  C7  UNL     1      26.623   5.337  48.966  1.00  0.00     0.012 A 
HETATM   10  C8  UNL     1      26.234   6.548  48.452  1.00  0.00     0.020 A 
HETATM   11  C9  UNL     1      25.034   7.120  48.811  1.00  0.00     0.013 A 
HETATM   12 BR1  UNL     1      24.513   8.779  48.105  1.00  0.00    -0.051 Br
HETATM   13  C10 UNL     1      24.313   6.327  49.725  1.00  0.00     0.049 A 
HETATM   14  C11 UNL     1      24.704   5.080  50.258  1.00  0.00     0.038 A 
HETATM   15  N2  UNL     1      23.641   4.698  51.101  1.00  0.00    -0.371 N 
HETATM   16  C12 UNL     1      22.413   4.010  51.332  1.00  0.00     0.272 C 
HETATM   17  N3  UNL     1      22.516   2.629  51.413  1.00  0.00    -0.267 NA
HETATM   18  C13 UNL     1      23.152   1.808  50.730  1.00  0.00     0.188 C 
HETATM   19  N4  UNL     1      22.474   1.047  51.710  1.00  0.00    -0.397 NA
HETATM   20  C14 UNL     1      23.049   0.436  52.643  1.00  0.00     0.363 C 
HETATM   21  C15 UNL     1      23.525  -0.325  53.773  1.00  0.00     0.073 C 
HETATM   22  C17 UNL     1      24.716  -0.506  54.157  1.00  0.00     0.042 C 
HETATM   23  H7  UNL     1      26.415   3.315  52.306  1.00  0.00     0.316 HD
HETATM   24  H13 UNL     1      23.995   5.212  51.970  1.00  0.00     0.161 HD
ENDROOT
BRANCH  21  25
HETATM   25  O2  UNL     1      22.792  -1.039  54.705  1.00  0.00    -0.358 OA
HETATM   26  C16 UNL     1      21.471  -1.492  54.499  1.00  0.00     0.209 C 
ENDBRANCH  21  25
TORSDOF 1
ENDMDL
MODEL 2
REMARK VINA RESULT:      -8.4      3.519      6.671
REMARK  1 active torsions:
REMARK  status: ('A' for Active; 'I' for Inactive)
REMARK    1  A    between atoms: C15_21  and  O2_22 
ROOT
HETATM    1  C1  UNL     1      27.340  -1.544  53.026  1.00  0.00     0.000 C 
HETATM    2  O1  UNL     1      26.301  -0.589  52.837  1.00  0.00     0.000 OA
HETATM    3  C2  UNL     1      26.502   0.563  52.111  1.00  0.00    -0.042 A 
HETATM    4  C3  UNL     1      25.340   0.286  52.737  1.00  0.00     0.057 A 
HETATM    5  C4  UNL     1      24.137  -0.153  53.467  1.00  0.00     0.280 C 
HETATM    6  N1  UNL     1      22.938  -0.224  52.606  1.00  0.00     0.088 N 
HETATM    7  C5  UNL     1      21.864  -0.471  53.498  1.00  0.00     0.310 C 
HETATM    8  C6  UNL     1      20.527  -0.372  52.918  1.00  0.00    -0.004 A 
HETATM    9  C7  UNL     1      19.570  -1.087  53.599  1.00  0.00     0.012 A 
HETATM   10  C8  UNL     1      18.240  -1.155  53.269  1.00  0.00     0.020 A 
HETATM   11  C9  UNL     1      17.742  -0.479  52.178  1.00  0.00     0.013 A 
HETATM   12 BR1  UNL     1      15.922  -0.581  51.733  1.00  0.00    -0.051 Br
HETATM   13  C10 UNL     1      18.740   0.245  51.494  1.00  0.00     0.049 A 
HETATM   14  C11 UNL     1      20.109   0.322  51.827  1.00  0.00     0.038 A 
HETATM   15  N2  UNL     1      20.669   1.175  50.854  1.00  0.00    -0.371 N 
HETATM   16  C12 UNL     1      21.071   2.469  50.408  1.00  0.00     0.272 C 
HETATM   17  N3  UNL     1      22.215   2.973  51.008  1.00  0.00    -0.267 NA
HETATM   18  C13 UNL     1      22.591   2.976  52.194  1.00  0.00     0.188 C 
HETATM   19  N4  UNL     1      23.611   3.632  51.466  1.00  0.00    -0.397 NA
HETATM   20  C14 UNL     1      24.762   3.162  51.298  1.00  0.00     0.363 C 
HETATM   21  C15 UNL     1      26.124   2.790  50.998  1.00  0.00     0.073 C 
HETATM   22  C17 UNL     1      26.753   1.750  51.346  1.00  0.00     0.042 C 
HETATM   23  H7  UNL     1      23.064  -0.904  51.855  1.00  0.00     0.316 HD
HETATM   24  H13 UNL     1      20.860   0.412  50.130  1.00  0.00     0.161 HD
ENDROOT
BRANCH  21  25
HETATM   25  O2  UNL     1      27.068   3.485  50.261  1.00  0.00    -0.358 OA
HETATM   26  C16 UNL     1      26.759   4.348  49.187  1.00  0.00     0.209 C 
ENDBRANCH  21  25
TORSDOF 1
ENDMDL
MODEL 3
REMARK VINA RESULT:      -8.2      2.337      4.272
REMARK  1 active torsions:
REMARK  status: ('A' for Active; 'I' for Inactive)
REMARK    1  A    between atoms: C15_21  and  O2_22 
ROOT
HETATM    1  C1  UNL     1      18.983   1.860  49.532  1.00  0.00     0.000 C 
HETATM    2  O1  UNL     1      20.247   2.055  50.158  1.00  0.00     0.000 OA
HETATM    3  C2  UNL     1      20.772   1.130  51.032  1.00  0.00    -0.042 A 
HETATM    4  C3  UNL     1      21.382   2.300  50.752  1.00  0.00     0.057 A 
HETATM    5  C4  UNL     1      21.928   3.608  50.348  1.00  0.00     0.280 C 
HETATM    6  N1  UNL     1      23.286   3.509  49.774  1.00  0.00     0.088 N 
HETATM    7  C5  UNL     1      23.716   4.853  49.625  1.00  0.00     0.310 C 
HETATM    8  C6  UNL     1      25.123   5.028  49.274  1.00  0.00    -0.004 A 
HETATM    9  C7  UNL     1      25.394   6.222  48.645  1.00  0.00     0.012 A 
HETATM   10  C8  UNL     1      26.632   6.635  48.220  1.00  0.00     0.020 A 
HETATM   11  C9  UNL     1      27.746   5.847  48.400  1.00  0.00     0.013 A 
HETATM   12 BR1  UNL     1      29.433   6.421  47.813  1.00  0.00    -0.051 Br
HETATM   13  C10 UNL     1      27.445   4.631  49.045  1.00  0.00     0.049 A 
HETATM   14  C11 UNL     1      26.176   4.198  49.486  1.00  0.00     0.038 A 
HETATM   15  N2  UNL     1      26.410   2.937  50.073  1.00  0.00    -0.371 N 
HETATM   16  C12 UNL     1      26.690   2.118  51.207  1.00  0.00     0.272 C 
HETATM   17  N3  UNL     1      25.632   1.946  52.087  1.00  0.00    -0.267 NA
HETATM   18  C13 UNL     1      24.799   2.749  52.543  1.00  0.00     0.188 C 
HETATM   19  N4  UNL     1      24.476   1.497  53.115  1.00  0.00    -0.397 NA
HETATM   20  C14 UNL     1      23.432   0.854  52.846  1.00  0.00     0.363 C 
HETATM   21  C15 UNL     1      22.300  -0.024  52.667  1.00  0.00     0.073 C 
HETATM   22  C17 UNL     1      21.282   0.140  51.935  1.00  0.00     0.042 C 
HETATM   23  H7  UNL     1      23.288   2.940  48.927  1.00  0.00     0.316 HD
HETATM   24  H13 UNL     1      26.319   2.372  49.170  1.00  0.00     0.161 HD
ENDROOT
BRANCH  21  25
HETATM   25  O2  UNL     1      22.058  -1.252  53.256  1.00  0.00    -0.358 OA
HETATM   26  C16 UNL     1      21.662  -1.425  54.601  1.00  0.00     0.209 C 
ENDBRANCH  21  25
TORSDOF 1
ENDMDL
MODEL 4
REMARK VINA RESULT:      -7.8      4.175      6.351
REMARK  1 active torsions:
REMARK  status: ('A' for Active; 'I' for Inactive)
REMARK    1  A    between atoms: C15_21  and  O2_22 
ROOT
HETATM    1  C1  UNL     1      20.046   2.746  47.674  1.00  0.00     0.000 C 
HETATM    2  O1  UNL     1      20.414   2.307  48.978  1.00  0.00     0.000 OA
HETATM    3  C2  UNL     1      19.593   1.494  49.725  1.00  0.00    -0.042 A 
HETATM    4  C3  UNL     1      20.765   1.975  50.189  1.00  0.00     0.057 A 
HETATM    5  C4  UNL     1      22.063   2.571  50.555  1.00  0.00     0.280 C 
HETATM    6  N1  UNL     1      23.062   1.561  50.959  1.00  0.00     0.088 N 
HETATM    7  C5  UNL     1      24.161   2.314  51.450  1.00  0.00     0.310 C 
HETATM    8  C6  UNL     1      25.206   1.542  52.116  1.00  0.00    -0.004 A 
HETATM    9  C7  UNL     1      26.437   2.155  52.115  1.00  0.00     0.012 A 
HETATM   10  C8  UNL     1      27.581   1.649  52.679  1.00  0.00     0.020 A 
HETATM   11  C9  UNL     1      27.579   0.430  53.319  1.00  0.00     0.013 A 
HETATM   12 BR1  UNL     1      29.149  -0.255  54.085  1.00  0.00    -0.051 Br
HETATM   13  C10 UNL     1      26.309  -0.181  53.307  1.00  0.00     0.049 A 
HETATM   14  C11 UNL     1      25.128   0.333  52.730  1.00  0.00     0.038 A 
HETATM   15  N2  UNL     1      24.142  -0.639  53.001  1.00  0.00    -0.371 N 
HETATM   16  C12 UNL     1      23.094  -1.165  53.813  1.00  0.00     0.272 C 
HETATM   17  N3  UNL     1      21.896  -0.467  53.756  1.00  0.00    -0.267 NA
HETATM   18  C13 UNL     1      21.651   0.752  53.767  1.00  0.00     0.188 C 
HETATM   19  N4  UNL     1      20.395   0.109  53.679  1.00  0.00    -0.397 NA
HETATM   20  C14 UNL     1      19.654   0.159  52.667  1.00  0.00     0.363 C 
HETATM   21  C15 UNL     1      18.674   0.098  51.609  1.00  0.00     0.073 C 
HETATM   22  C17 UNL     1      18.708   0.645  50.470  1.00  0.00     0.042 C 
HETATM   23  H7  UNL     1      23.265   0.916  50.195  1.00  0.00     0.316 HD
HETATM   24  H13 UNL     1      24.335  -1.240  52.137  1.00  0.00     0.161 HD
ENDROOT
BRANCH  21  25
HETATM   25  O2  UNL     1      17.462  -0.569  51.591  1.00  0.00    -0.358 OA
HETATM   26  C16 UNL     1      16.957  -1.330  52.668  1.00  0.00     0.209 C 
ENDBRANCH  21  25
TORSDOF 1
ENDMDL
MODEL 5
REMARK VINA RESULT:      -7.4      1.723      2.143
REMARK  1 active torsions:
REMARK  status: ('A' for Active; 'I' for Inactive)
REMARK    1  A    between atoms: C15_21  and  O2_22 
ROOT
HETATM    1  C1  UNL     1      28.655   2.016  53.404  1.00  0.00     0.000 C 
HETATM    2  O1  UNL     1      27.323   2.054  52.903  1.00  0.00     0.000 OA
HETATM    3  C2  UNL     1      26.356   1.183  53.353  1.00  0.00    -0.042 A 
HETATM    4  C3  UNL     1      26.130   2.086  52.377  1.00  0.00     0.057 A 
HETATM    5  C4  UNL     1      26.033   3.119  51.330  1.00  0.00     0.280 C 
HETATM    6  N1  UNL     1      24.958   4.099  51.591  1.00  0.00     0.088 N 
HETATM    7  C5  UNL     1      24.888   4.884  50.411  1.00  0.00     0.310 C 
HETATM    8  C6  UNL     1      23.751   5.796  50.328  1.00  0.00    -0.004 A 
HETATM    9  C7  UNL     1      23.958   6.869  49.493  1.00  0.00     0.012 A 
HETATM   10  C8  UNL     1      23.048   7.864  49.232  1.00  0.00     0.020 A 
HETATM   11  C9  UNL     1      21.802   7.859  49.816  1.00  0.00     0.013 A 
HETATM   12 BR1  UNL     1      20.568   9.225  49.455  1.00  0.00    -0.051 Br
HETATM   13  C10 UNL     1      21.612   6.752  50.668  1.00  0.00     0.049 A 
HETATM   14  C11 UNL     1      22.540   5.724  50.940  1.00  0.00     0.038 A 
HETATM   15  N2  UNL     1      21.869   4.859  51.829  1.00  0.00    -0.371 N 
HETATM   16  C12 UNL     1      21.062   3.712  52.087  1.00  0.00     0.272 C 
HETATM   17  N3  UNL     1      21.702   2.492  51.930  1.00  0.00    -0.267 NA
HETATM   18  C13 UNL     1      22.479   2.074  51.053  1.00  0.00     0.188 C 
HETATM   19  N4  UNL     1      22.326   1.008  51.968  1.00  0.00    -0.397 NA
HETATM   20  C14 UNL     1      23.244   0.591  52.715  1.00  0.00     0.363 C 
HETATM   21  C15 UNL     1      24.164  -0.022  53.643  1.00  0.00     0.073 C 
HETATM   22  C17 UNL     1      25.380   0.258  53.850  1.00  0.00     0.042 C 
HETATM   23  H7  UNL     1      25.125   4.607  52.460  1.00  0.00     0.316 HD
HETATM   24  H13 UNL     1      22.142   5.380  52.723  1.00  0.00     0.161 HD
ENDROOT
BRANCH  21  25
HETATM   25  O2  UNL     1      23.936  -1.063  54.526  1.00  0.00    -0.358 OA
HETATM   26  C16 UNL     1      22.696  -1.318  55.151  1.00  0.00     0.209 C 
ENDBRANCH  21  25
TORSDOF 1
ENDMDL
MODEL 6
REMARK VINA RESULT:      -7.2      2.208      4.423
REMARK  1 active torsions:
REMARK  status: ('A' for Active; 'I' for Inactive)
REMARK    1  A    between atoms: C15_21  and  O2_22 
ROOT
HETATM    1  C1  UNL     1      20.839  -1.643  54.207  1.00  0.00     0.000 C 
HETATM    2  O1  UNL     1      21.633  -0.563  53.726  1.00  0.00     0.000 OA
HETATM    3  C2  UNL     1      22.998  -0.538  53.899  1.00  0.00    -0.042 A 
HETATM    4  C3  UNL     1      22.315   0.471  53.320  1.00  0.00     0.057 A 
HETATM    5  C4  UNL     1      21.439   1.486  52.708  1.00  0.00     0.280 C 
HETATM    6  N1  UNL     1      21.830   1.820  51.322  1.00  0.00     0.088 N 
HETATM    7  C5  UNL     1      21.013   2.926  50.972  1.00  0.00     0.310 C 
HETATM    8  C6  UNL     1      21.356   3.589  49.716  1.00  0.00    -0.004 A 
HETATM    9  C7  UNL     1      20.309   4.274  49.145  1.00  0.00     0.012 A 
HETATM   10  C8  UNL     1      20.367   4.987  47.974  1.00  0.00     0.020 A 
HETATM   11  C9  UNL     1      21.534   5.071  47.250  1.00  0.00     0.013 A 
HETATM   12 BR1  UNL     1      21.603   6.046  45.648  1.00  0.00    -0.051 Br
HETATM   13  C10 UNL     1      22.593   4.362  47.852  1.00  0.00     0.049 A 
HETATM   14  C11 UNL     1      22.543   3.628  49.057  1.00  0.00     0.038 A 
HETATM   15  N2  UNL     1      23.850   3.128  49.229  1.00  0.00    -0.371 N 
HETATM   16  C12 UNL     1      25.168   3.233  49.763  1.00  0.00     0.272 C 
HETATM   17  N3  UNL     1      25.273   3.003  51.127  1.00  0.00    -0.267 NA
HETATM   18  C13 UNL     1      24.573   3.380  52.083  1.00  0.00     0.188 C 
HETATM   19  N4  UNL     1      25.606   2.598  52.649  1.00  0.00    -0.397 NA
HETATM   20  C14 UNL     1      25.419   1.483  53.194  1.00  0.00     0.363 C 
HETATM   21  C15 UNL     1      25.406   0.199  53.853  1.00  0.00     0.073 C 
HETATM   22  C17 UNL     1      24.419  -0.551  54.099  1.00  0.00     0.042 C 
HETATM   23  H7  UNL     1      21.766   1.003  50.714  1.00  0.00     0.316 HD
HETATM   24  H13 UNL     1      23.709   2.240  48.649  1.00  0.00     0.161 HD
ENDROOT
BRANCH  21  25
HETATM   25  O2  UNL     1      26.470  -0.517  54.374  1.00  0.00    -0.358 OA
HETATM   26  C16 UNL     1      27.761   0.017  54.582  1.00  0.00     0.209 C 
ENDBRANCH  21  25
TORSDOF 1
ENDMDL
MODEL 7
REMARK VINA RESULT:      -7.0      3.756      5.983
REMARK  1 active torsions:
REMARK  status: ('A' for Active; 'I' for Inactive)
REMARK    1  A    between atoms: C15_21  and  O2_22 
ROOT
HETATM    1  C1  UNL     1      17.003  -2.350  53.095  1.00  0.00     0.000 C 
HETATM    2  O1  UNL     1      18.022  -1.378  52.887  1.00  0.00     0.000 OA
HETATM    3  C2  UNL     1      19.224  -1.437  53.556  1.00  0.00    -0.042 A 
HETATM    4  C3  UNL     1      18.906  -0.436  52.710  1.00  0.00     0.057 A 
HETATM    5  C4  UNL     1      18.421   0.583  51.761  1.00  0.00     0.280 C 
HETATM    6  N1  UNL     1      19.324   0.766  50.606  1.00  0.00     0.088 N 
HETATM    7  C5  UNL     1      18.808   1.894  49.917  1.00  0.00     0.310 C 
HETATM    8  C6  UNL     1      19.652   2.418  48.846  1.00  0.00    -0.004 A 
HETATM    9  C7  UNL     1      18.962   3.125  47.889  1.00  0.00     0.012 A 
HETATM   10  C8  UNL     1      19.517   3.727  46.788  1.00  0.00     0.020 A 
HETATM   11  C9  UNL     1      20.871   3.663  46.548  1.00  0.00     0.013 A 
HETATM   12 BR1  UNL     1      21.619   4.486  45.037  1.00  0.00    -0.051 Br
HETATM   13  C10 UNL     1      21.558   2.933  47.539  1.00  0.00     0.049 A 
HETATM   14  C11 UNL     1      20.996   2.312  48.676  1.00  0.00     0.038 A 
HETATM   15  N2  UNL     1      22.092   1.735  49.350  1.00  0.00    -0.371 N 
HETATM   16  C12 UNL     1      23.126   1.790  50.331  1.00  0.00     0.272 C 
HETATM   17  N3  UNL     1      22.700   1.673  51.646  1.00  0.00    -0.267 NA
HETATM   18  C13 UNL     1      21.739   2.182  52.249  1.00  0.00     0.188 C 
HETATM   19  N4  UNL     1      22.408   1.379  53.202  1.00  0.00    -0.397 NA
HETATM   20  C14 UNL     1      21.924   0.332  53.697  1.00  0.00     0.363 C 
HETATM   21  C15 UNL     1      21.541  -0.885  54.371  1.00  0.00     0.073 C 
HETATM   22  C17 UNL     1      20.463  -1.536  54.272  1.00  0.00     0.042 C 
HETATM   23  H7  UNL     1      19.407  -0.094  50.063  1.00  0.00     0.316 HD
HETATM   24  H13 UNL     1      22.085   0.813  48.809  1.00  0.00     0.161 HD
ENDROOT
BRANCH  21  25
HETATM   25  O2  UNL     1      22.263  -1.628  55.290  1.00  0.00    -0.358 OA
HETATM   26  C16 UNL     1      23.607  -1.371  55.640  1.00  0.00     0.209 C 
ENDBRANCH  21  25
TORSDOF 1
ENDMDL
MODEL 8
REMARK VINA RESULT:      -6.8      4.534      6.769
REMARK  1 active torsions:
REMARK  status: ('A' for Active; 'I' for Inactive)
REMARK    1  A    between atoms: C15_21  and  O2_22 
ROOT
HETATM    1  C1  UNL     1      20.376   3.981  45.829  1.00  0.00     0.000 C 
HETATM    2  O1  UNL     1      20.515   3.808  47.236  1.00  0.00     0.000 OA
HETATM    3  C2  UNL     1      19.430   3.550  48.043  1.00  0.00    -0.042 A 
HETATM    4  C3  UNL     1      20.679   3.712  48.526  1.00  0.00     0.057 A 
HETATM    5  C4  UNL     1      22.090   3.909  48.904  1.00  0.00     0.280 C 
HETATM    6  N1  UNL     1      22.645   2.767  49.660  1.00  0.00     0.088 N 
HETATM    7  C5  UNL     1      23.922   3.206  50.095  1.00  0.00     0.310 C 
HETATM    8  C6  UNL     1      24.595   2.334  51.053  1.00  0.00    -0.004 A 
HETATM    9  C7  UNL     1      25.964   2.472  51.065  1.00  0.00     0.012 A 
HETATM   10  C8  UNL     1      26.828   1.778  51.876  1.00  0.00     0.020 A 
HETATM   11  C9  UNL     1      26.365   0.849  52.779  1.00  0.00     0.013 A 
HETATM   12 BR1  UNL     1      27.555  -0.096  53.880  1.00  0.00    -0.051 Br
HETATM   13  C10 UNL     1      24.961   0.723  52.749  1.00  0.00     0.049 A 
HETATM   14  C11 UNL     1      24.065   1.433  51.921  1.00  0.00     0.038 A 
HETATM   15  N2  UNL     1      22.787   0.961  52.285  1.00  0.00    -0.371 N 
HETATM   16  C12 UNL     1      21.592   1.056  53.057  1.00  0.00     0.272 C 
HETATM   17  N3  UNL     1      20.728   2.076  52.684  1.00  0.00    -0.267 NA
HETATM   18  C13 UNL     1      20.937   3.262  52.375  1.00  0.00     0.188 C 
HETATM   19  N4  UNL     1      19.537   3.082  52.281  1.00  0.00    -0.397 NA
HETATM   20  C14 UNL     1      18.901   3.108  51.200  1.00  0.00     0.363 C 
HETATM   21  C15 UNL     1      18.004   3.103  50.069  1.00  0.00     0.073 C 
HETATM   22  C17 UNL     1      18.273   3.282  48.847  1.00  0.00     0.042 C 
HETATM   23  H7  UNL     1      22.629   1.913  49.102  1.00  0.00     0.316 HD
HETATM   24  H13 UNL     1      22.782   0.123  51.620  1.00  0.00     0.161 HD
ENDROOT
BRANCH  21  25
HETATM   25  O2  UNL     1      16.634   2.905  50.054  1.00  0.00    -0.358 OA
HETATM   26  C16 UNL     1      15.923   2.190  51.043  1.00  0.00     0.209 C 
ENDBRANCH  21  25
TORSDOF 1
ENDMDL
MODEL 9
REMARK VINA RESULT:      -6.6      4.935      7.907
REMARK  1 active torsions:
REMARK  status: ('A' for Active; 'I' for Inactive)
REMARK    1  A    between atoms: C15_21  and  O2_22 
ROOT
HETATM    1  C1  UNL     1      24.868   0.099  53.185  1.00  0.00     0.000 C 
HETATM    2  O1  UNL     1      23.717   0.760  52.670  1.00  0.00     0.000 OA
HETATM    3  C2  UNL     1      23.822   1.805  51.780  1.00  0.00    -0.042 A 
HETATM    4  C3  UNL     1      22.640   1.375  52.267  1.00  0.00     0.057 A 
HETATM    5  C4  UNL     1      21.430   0.795  52.879  1.00  0.00     0.280 C 
HETATM    6  N1  UNL     1      20.448   0.330  51.878  1.00  0.00     0.088 N 
HETATM    7  C5  UNL     1      19.296  -0.011  52.631  1.00  0.00     0.310 C 
HETATM    8  C6  UNL     1      18.096  -0.300  51.850  1.00  0.00    -0.004 A 
HETATM    9  C7  UNL     1      17.186  -1.099  52.503  1.00  0.00     0.012 A 
HETATM   10  C8  UNL     1      15.978  -1.509  51.997  1.00  0.00     0.020 A 
HETATM   11  C9  UNL     1      15.569  -1.133  50.738  1.00  0.00     0.013 A 
HETATM   12 BR1  UNL     1      13.917  -1.702  50.054  1.00  0.00    -0.051 Br
HETATM   13  C10 UNL     1      16.516  -0.316  50.087  1.00  0.00     0.049 A 
HETATM   14  C11 UNL     1      17.760   0.112  50.600  1.00  0.00     0.038 A 
HETATM   15  N2  UNL     1      18.314   0.911  49.580  1.00  0.00    -0.371 N 
HETATM   16  C12 UNL     1      18.533   2.180  48.965  1.00  0.00     0.272 C 
HETATM   17  N3  UNL     1      19.428   3.009  49.625  1.00  0.00    -0.267 NA
HETATM   18  C13 UNL     1      19.571   3.274  50.831  1.00  0.00     0.188 C 
HETATM   19  N4  UNL     1      20.561   4.023  50.154  1.00  0.00    -0.397 NA
HETATM   20  C14 UNL     1      21.793   3.800  50.249  1.00  0.00     0.363 C 
HETATM   21  C15 UNL     1      23.232   3.699  50.229  1.00  0.00     0.073 C 
HETATM   22  C17 UNL     1      23.975   2.889  50.854  1.00  0.00     0.042 C 
HETATM   23  H7  UNL     1      20.839  -0.410  51.293  1.00  0.00     0.316 HD
HETATM   24  H13 UNL     1      18.779   0.109  49.046  1.00  0.00     0.161 HD
ENDROOT
BRANCH  21  25
HETATM   25  O2  UNL     1      24.143   4.467  49.524  1.00  0.00    -0.358 OA
HETATM   26  C16 UNL     1      24.161   5.879  49.524  1.00  0.00     0.209 C 
ENDBRANCH  21  25
TORSDOF 1
ENDMDL
