MODEL 1
REMARK VINA RESULT:      -7.4      0.000      0.000
REMARK  4 active torsions:
REMARK  status: ('A' for Active; 'I' for Inactive)
REMARK    1  A    between atoms: C5_5  and  N1_6 
REMARK    2  A    between atoms: N1_6  and  C6_7 
REMARK    3  A    between atoms: C9_10  and  O1_11 
REMARK    4  A    between atoms: C13_18  and  N4_19 
ROOT
HETATM    1  C1  UNL     1      23.270  -0.125  53.798  1.00  0.00     0.021 C 
HETATM    2  C2  UNL     1      24.643  -0.514  53.297  1.00  0.00     0.059 A 
HETATM    3  C3  UNL     1      25.064   0.370  52.166  1.00  0.00     0.001 A 
HETATM    4  C4  UNL     1      26.150   1.006  52.530  1.00  0.00     0.038 A 
HETATM    5  C5  UNL     1      26.965   1.926  51.915  1.00  0.00     0.141 A 
HETATM    6  N2  UNL     1      28.046   2.429  52.538  1.00  0.00    -0.224 NA
HETATM    7  C11 UNL     1      28.399   2.070  53.784  1.00  0.00     0.236 A 
HETATM    8  N3  UNL     1      27.631   1.170  54.427  1.00  0.00    -0.239 NA
HETATM    9  C12 UNL     1      26.561   0.667  53.820  1.00  0.00     0.097 A 
HETATM   10  C13 UNL     1      25.699  -0.221  54.301  1.00  0.00     0.074 A 
ENDROOT
BRANCH   5  11
HETATM   11  N1  UNL     1      26.726   2.404  50.604  1.00  0.00    -0.340 N 
HETATM   12  H6  UNL     1      26.901   1.853  49.738  1.00  0.00     0.167 HD
BRANCH  11  13
HETATM   13  C6  UNL     1      26.234   3.626  50.109  1.00  0.00     0.032 A 
HETATM   14  C7  UNL     1      26.831   4.446  49.228  1.00  0.00     0.009 A 
HETATM   15  C8  UNL     1      26.000   5.644  48.947  1.00  0.00     0.095 A 
HETATM   16  C9  UNL     1      24.818   5.393  49.808  1.00  0.00     0.067 A 
HETATM   17  C10 UNL     1      24.943   4.250  50.470  1.00  0.00     0.062 A 
BRANCH  16  18
HETATM   18  O1  UNL     1      23.797   6.338  49.803  1.00  0.00    -0.275 OA
HETATM   19 BR1  UNL     1      24.168   8.099  50.349  1.00  0.00     0.105 Br
ENDBRANCH  16  18
ENDBRANCH  11  13
ENDBRANCH   5  11
BRANCH  10  20
HETATM   20  N4  UNL     1      25.711  -0.858  55.588  1.00  0.00    -0.226 N 
HETATM   21  F1  UNL     1      24.734  -0.965  56.521  1.00  0.00    -0.101 F 
HETATM   22  H12 UNL     1      26.669  -1.273  55.727  1.00  0.00     0.199 HD
ENDBRANCH  10  20
TORSDOF 4
ENDMDL
MODEL 2
REMARK VINA RESULT:      -7.3      4.729      6.203
REMARK  4 active torsions:
REMARK  status: ('A' for Active; 'I' for Inactive)
REMARK    1  A    between atoms: C5_5  and  N1_6 
REMARK    2  A    between atoms: N1_6  and  C6_7 
REMARK    3  A    between atoms: C9_10  and  O1_11 
REMARK    4  A    between atoms: C13_18  and  N4_19 
ROOT
HETATM    1  C1  UNL     1      21.673  -1.882  54.786  1.00  0.00     0.021 C 
HETATM    2  C2  UNL     1      21.405  -0.442  54.413  1.00  0.00     0.059 A 
HETATM    3  C3  UNL     1      22.608   0.171  53.769  1.00  0.00     0.001 A 
HETATM    4  C4  UNL     1      22.279   0.532  52.553  1.00  0.00     0.038 A 
HETATM    5  C5  UNL     1      22.960   1.132  51.522  1.00  0.00     0.141 A 
HETATM    6  N2  UNL     1      22.360   1.394  50.347  1.00  0.00    -0.224 NA
HETATM    7  C11 UNL     1      21.074   1.092  50.105  1.00  0.00     0.236 A 
HETATM    8  N3  UNL     1      20.365   0.502  51.086  1.00  0.00    -0.239 NA
HETATM    9  C12 UNL     1      20.948   0.240  52.251  1.00  0.00     0.097 A 
HETATM   10  C13 UNL     1      20.405  -0.333  53.319  1.00  0.00     0.074 A 
ENDROOT
BRANCH   5  11
HETATM   11  N1  UNL     1      24.321   1.510  51.622  1.00  0.00    -0.340 N 
HETATM   12  H6  UNL     1      24.785   2.201  50.996  1.00  0.00     0.167 HD
BRANCH  11  13
HETATM   13  C6  UNL     1      25.357   1.123  52.491  1.00  0.00     0.032 A 
HETATM   14  C7  UNL     1      25.897   1.846  53.487  1.00  0.00     0.009 A 
HETATM   15  C8  UNL     1      26.971   1.096  54.186  1.00  0.00     0.095 A 
HETATM   16  C9  UNL     1      26.973  -0.184  53.438  1.00  0.00     0.067 A 
HETATM   17  C10 UNL     1      26.061  -0.177  52.475  1.00  0.00     0.062 A 
BRANCH  16  18
HETATM   18  O1  UNL     1      27.882  -1.164  53.827  1.00  0.00    -0.275 OA
HETATM   19 BR1  UNL     1      29.722  -0.866  53.575  1.00  0.00     0.105 Br
ENDBRANCH  16  18
ENDBRANCH  11  13
ENDBRANCH   5  11
BRANCH  10  20
HETATM   20  N4  UNL     1      19.059  -0.805  53.480  1.00  0.00    -0.226 N 
HETATM   21  F1  UNL     1      18.572  -2.070  53.512  1.00  0.00    -0.101 F 
HETATM   22  H12 UNL     1      18.437   0.039  53.581  1.00  0.00     0.199 HD
ENDBRANCH  10  20
TORSDOF 4
ENDMDL
MODEL 3
REMARK VINA RESULT:      -7.1      2.308      3.266
REMARK  4 active torsions:
REMARK  status: ('A' for Active; 'I' for Inactive)
REMARK    1  A    between atoms: C5_5  and  N1_6 
REMARK    2  A    between atoms: N1_6  and  C6_7 
REMARK    3  A    between atoms: C9_10  and  O1_11 
REMARK    4  A    between atoms: C13_18  and  N4_19 
ROOT
HETATM    1  C1  UNL     1      27.135  -1.280  52.699  1.00  0.00     0.021 C 
HETATM    2  C2  UNL     1      26.497  -0.008  53.210  1.00  0.00     0.059 A 
HETATM    3  C3  UNL     1      25.977   0.817  52.075  1.00  0.00     0.001 A 
HETATM    4  C4  UNL     1      24.681   0.941  52.222  1.00  0.00     0.038 A 
HETATM    5  C5  UNL     1      23.698   1.576  51.502  1.00  0.00     0.141 A 
HETATM    6  N2  UNL     1      22.412   1.541  51.893  1.00  0.00    -0.224 NA
HETATM    7  C11 UNL     1      22.006   0.894  52.998  1.00  0.00     0.236 A 
HETATM    8  N3  UNL     1      22.934   0.257  53.737  1.00  0.00    -0.239 NA
HETATM    9  C12 UNL     1      24.207   0.286  53.359  1.00  0.00     0.097 A 
HETATM   10  C13 UNL     1      25.245  -0.283  53.962  1.00  0.00     0.074 A 
ENDROOT
BRANCH   5  11
HETATM   11  N1  UNL     1      23.967   2.300  50.315  1.00  0.00    -0.340 N 
HETATM   12  H6  UNL     1      23.472   2.148  49.411  1.00  0.00     0.167 HD
BRANCH  11  13
HETATM   13  C6  UNL     1      24.875   3.330  50.010  1.00  0.00     0.032 A 
HETATM   14  C7  UNL     1      24.686   4.652  50.161  1.00  0.00     0.009 A 
HETATM   15  C8  UNL     1      25.878   5.426  49.730  1.00  0.00     0.095 A 
HETATM   16  C9  UNL     1      26.796   4.343  49.302  1.00  0.00     0.067 A 
HETATM   17  C10 UNL     1      26.235   3.152  49.458  1.00  0.00     0.062 A 
BRANCH  16  18
HETATM   18  O1  UNL     1      28.051   4.705  48.822  1.00  0.00    -0.275 OA
HETATM   19 BR1  UNL     1      28.311   6.438  48.140  1.00  0.00     0.105 Br
ENDBRANCH  16  18
ENDBRANCH  11  13
ENDBRANCH   5  11
BRANCH  10  20
HETATM   20  N4  UNL     1      25.248  -1.064  55.167  1.00  0.00    -0.226 N 
HETATM   21  F1  UNL     1      25.418  -0.683  56.457  1.00  0.00    -0.101 F 
HETATM   22  H12 UNL     1      25.085  -2.068  54.894  1.00  0.00     0.199 HD
ENDBRANCH  10  20
TORSDOF 4
ENDMDL
MODEL 4
REMARK VINA RESULT:      -7.0      4.849      6.535
REMARK  4 active torsions:
REMARK  status: ('A' for Active; 'I' for Inactive)
REMARK    1  A    between atoms: C5_5  and  N1_6 
REMARK    2  A    between atoms: N1_6  and  C6_7 
REMARK    3  A    between atoms: C9_10  and  O1_11 
REMARK    4  A    between atoms: C13_18  and  N4_19 
ROOT
HETATM    1  C1  UNL     1      18.981   1.556  51.911  1.00  0.00     0.021 C 
HETATM    2  C2  UNL     1      19.727   0.244  51.843  1.00  0.00     0.059 A 
HETATM    3  C3  UNL     1      21.204   0.477  51.787  1.00  0.00     0.001 A 
HETATM    4  C4  UNL     1      21.744  -0.079  52.844  1.00  0.00     0.038 A 
HETATM    5  C5  UNL     1      23.032  -0.183  53.312  1.00  0.00     0.141 A 
HETATM    6  N2  UNL     1      23.309  -0.828  54.459  1.00  0.00    -0.224 NA
HETATM    7  C11 UNL     1      22.361  -1.407  55.214  1.00  0.00     0.236 A 
HETATM    8  N3  UNL     1      21.083  -1.331  54.796  1.00  0.00    -0.239 NA
HETATM    9  C12 UNL     1      20.799  -0.697  53.664  1.00  0.00     0.097 A 
HETATM   10  C13 UNL     1      19.605  -0.527  53.108  1.00  0.00     0.074 A 
ENDROOT
BRANCH   5  11
HETATM   11  N1  UNL     1      24.140   0.375  52.630  1.00  0.00    -0.340 N 
HETATM   12  H6  UNL     1      24.064   1.029  51.823  1.00  0.00     0.167 HD
BRANCH  11  13
HETATM   13  C6  UNL     1      25.531   0.242  52.801  1.00  0.00     0.032 A 
HETATM   14  C7  UNL     1      26.444   1.227  52.830  1.00  0.00     0.009 A 
HETATM   15  C8  UNL     1      27.815   0.694  53.031  1.00  0.00     0.095 A 
HETATM   16  C9  UNL     1      27.557  -0.764  53.115  1.00  0.00     0.067 A 
HETATM   17  C10 UNL     1      26.264  -1.028  52.986  1.00  0.00     0.062 A 
BRANCH  16  18
HETATM   18  O1  UNL     1      28.647  -1.608  53.307  1.00  0.00    -0.275 OA
HETATM   19 BR1  UNL     1      30.324  -0.867  53.724  1.00  0.00     0.105 Br
ENDBRANCH  16  18
ENDBRANCH  11  13
ENDBRANCH   5  11
BRANCH  10  20
HETATM   20  N4  UNL     1      18.332  -0.987  53.588  1.00  0.00    -0.226 N 
HETATM   21  F1  UNL     1      17.967  -2.194  54.084  1.00  0.00    -0.101 F 
HETATM   22  H12 UNL     1      17.652  -0.188  53.496  1.00  0.00     0.199 HD
ENDBRANCH  10  20
TORSDOF 4
ENDMDL
MODEL 5
REMARK VINA RESULT:      -6.9      4.048      5.672
REMARK  4 active torsions:
REMARK  status: ('A' for Active; 'I' for Inactive)
REMARK    1  A    between atoms: C5_5  and  N1_6 
REMARK    2  A    between atoms: N1_6  and  C6_7 
REMARK    3  A    between atoms: C9_10  and  O1_11 
REMARK    4  A    between atoms: C13_18  and  N4_19 
ROOT
HETATM    1  C1  UNL     1      26.808   0.007  52.165  1.00  0.00     0.021 C 
HETATM    2  C2  UNL     1      25.742   0.658  53.018  1.00  0.00     0.059 A 
HETATM    3  C3  UNL     1      24.417   0.626  52.324  1.00  0.00     0.001 A 
HETATM    4  C4  UNL     1      23.588  -0.070  53.062  1.00  0.00     0.038 A 
HETATM    5  C5  UNL     1      22.266  -0.424  52.933  1.00  0.00     0.141 A 
HETATM    6  N2  UNL     1      21.647  -1.166  53.868  1.00  0.00    -0.224 NA
HETATM    7  C11 UNL     1      22.267  -1.603  54.977  1.00  0.00     0.236 A 
HETATM    8  N3  UNL     1      23.563  -1.280  55.148  1.00  0.00    -0.239 NA
HETATM    9  C12 UNL     1      24.184  -0.548  54.230  1.00  0.00     0.097 A 
HETATM   10  C13 UNL     1      25.448  -0.141  54.236  1.00  0.00     0.074 A 
ENDROOT
BRANCH   5  11
HETATM   11  N1  UNL     1      21.477  -0.041  51.821  1.00  0.00    -0.340 N 
HETATM   12  H6  UNL     1      21.673  -0.322  50.838  1.00  0.00     0.167 HD
BRANCH  11  13
HETATM   13  C6  UNL     1      20.316   0.744  51.701  1.00  0.00     0.032 A 
HETATM   14  C7  UNL     1      19.121   0.362  51.220  1.00  0.00     0.009 A 
HETATM   15  C8  UNL     1      18.138   1.474  51.254  1.00  0.00     0.095 A 
HETATM   16  C9  UNL     1      18.951   2.571  51.832  1.00  0.00     0.067 A 
HETATM   17  C10 UNL     1      20.187   2.165  52.089  1.00  0.00     0.062 A 
BRANCH  16  18
HETATM   18  O1  UNL     1      18.340   3.808  52.017  1.00  0.00    -0.275 OA
HETATM   19 BR1  UNL     1      16.587   4.071  51.388  1.00  0.00     0.105 Br
ENDBRANCH  16  18
ENDBRANCH  11  13
ENDBRANCH   5  11
BRANCH  10  20
HETATM   20  N4  UNL     1      26.451  -0.388  55.234  1.00  0.00    -0.226 N 
HETATM   21  F1  UNL     1      27.727   0.061  55.322  1.00  0.00    -0.101 F 
HETATM   22  H12 UNL     1      26.028  -1.024  55.958  1.00  0.00     0.199 HD
ENDBRANCH  10  20
TORSDOF 4
ENDMDL
MODEL 6
REMARK VINA RESULT:      -6.8      3.085      4.381
REMARK  4 active torsions:
REMARK  status: ('A' for Active; 'I' for Inactive)
REMARK    1  A    between atoms: C5_5  and  N1_6 
REMARK    2  A    between atoms: N1_6  and  C6_7 
REMARK    3  A    between atoms: C9_10  and  O1_11 
REMARK    4  A    between atoms: C13_18  and  N4_19 
ROOT
HETATM    1  C1  UNL     1      26.304  -0.982  53.274  1.00  0.00     0.021 C 
HETATM    2  C2  UNL     1      25.244  -0.110  53.908  1.00  0.00     0.059 A 
HETATM    3  C3  UNL     1      24.251   0.345  52.885  1.00  0.00     0.001 A 
HETATM    4  C4  UNL     1      23.074  -0.118  53.226  1.00  0.00     0.038 A 
HETATM    5  C5  UNL     1      21.818  -0.022  52.676  1.00  0.00     0.141 A 
HETATM    6  N2  UNL     1      20.757  -0.613  53.252  1.00  0.00    -0.224 NA
HETATM    7  C11 UNL     1      20.849  -1.325  54.388  1.00  0.00     0.236 A 
HETATM    8  N3  UNL     1      22.060  -1.447  54.964  1.00  0.00    -0.239 NA
HETATM    9  C12 UNL     1      23.115  -0.867  54.403  1.00  0.00     0.097 A 
HETATM   10  C13 UNL     1      24.372  -0.884  54.830  1.00  0.00     0.074 A 
ENDROOT
BRANCH   5  11
HETATM   11  N1  UNL     1      21.558   0.693  51.482  1.00  0.00    -0.340 N 
HETATM   12  H6  UNL     1      20.976   0.333  50.698  1.00  0.00     0.167 HD
BRANCH  11  13
HETATM   13  C6  UNL     1      21.954   1.964  51.026  1.00  0.00     0.032 A 
HETATM   14  C7  UNL     1      21.538   3.158  51.482  1.00  0.00     0.009 A 
HETATM   15  C8  UNL     1      22.184   4.276  50.749  1.00  0.00     0.095 A 
HETATM   16  C9  UNL     1      23.045   3.544  49.789  1.00  0.00     0.067 A 
HETATM   17  C10 UNL     1      22.921   2.232  49.940  1.00  0.00     0.062 A 
BRANCH  16  18
HETATM   18  O1  UNL     1      23.822   4.292  48.910  1.00  0.00    -0.275 OA
HETATM   19 BR1  UNL     1      25.560   4.800  49.420  1.00  0.00     0.105 Br
ENDBRANCH  16  18
ENDBRANCH  11  13
ENDBRANCH   5  11
BRANCH  10  20
HETATM   20  N4  UNL     1      24.900  -1.528  56.000  1.00  0.00    -0.226 N 
HETATM   21  F1  UNL     1      25.228  -1.013  57.210  1.00  0.00    -0.101 F 
HETATM   22  H12 UNL     1      25.009  -2.551  55.776  1.00  0.00     0.199 HD
ENDBRANCH  10  20
TORSDOF 4
ENDMDL
MODEL 7
REMARK VINA RESULT:      -6.7      3.435      4.731
REMARK  4 active torsions:
REMARK  status: ('A' for Active; 'I' for Inactive)
REMARK    1  A    between atoms: C5_5  and  N1_6 
REMARK    2  A    between atoms: N1_6  and  C6_7 
REMARK    3  A    between atoms: C9_10  and  O1_11 
REMARK    4  A    between atoms: C13_18  and  N4_19 
ROOT
HETATM    1  C1  UNL     1      27.097   0.135  51.944  1.00  0.00     0.021 C 
HETATM    2  C2  UNL     1      26.203   0.747  52.999  1.00  0.00     0.059 A 
HETATM    3  C3  UNL     1      24.764   0.624  52.610  1.00  0.00     0.001 A 
HETATM    4  C4  UNL     1      24.156  -0.098  53.519  1.00  0.00     0.038 A 
HETATM    5  C5  UNL     1      22.862  -0.529  53.684  1.00  0.00     0.141 A 
HETATM    6  N2  UNL     1      22.504  -1.280  54.740  1.00  0.00    -0.224 NA
HETATM    7  C11 UNL     1      23.374  -1.654  55.693  1.00  0.00     0.236 A 
HETATM    8  N3  UNL     1      24.655  -1.255  55.575  1.00  0.00    -0.239 NA
HETATM    9  C12 UNL     1      25.018  -0.513  54.535  1.00  0.00     0.097 A 
HETATM   10  C13 UNL     1      26.227  -0.036  54.263  1.00  0.00     0.074 A 
ENDROOT
BRANCH   5  11
HETATM   11  N1  UNL     1      21.830  -0.218  52.765  1.00  0.00    -0.340 N 
HETATM   12  H6  UNL     1      21.190  -0.922  52.341  1.00  0.00     0.167 HD
BRANCH  11  13
HETATM   13  C6  UNL     1      21.390   0.993  52.199  1.00  0.00     0.032 A 
HETATM   14  C7  UNL     1      20.642   1.941  52.787  1.00  0.00     0.009 A 
HETATM   15  C8  UNL     1      20.381   3.078  51.868  1.00  0.00     0.095 A 
HETATM   16  C9  UNL     1      21.097   2.641  50.645  1.00  0.00     0.067 A 
HETATM   17  C10 UNL     1      21.672   1.460  50.825  1.00  0.00     0.062 A 
BRANCH  16  18
HETATM   18  O1  UNL     1      21.070   3.484  49.538  1.00  0.00    -0.275 OA
HETATM   19 BR1  UNL     1      22.574   3.577  48.413  1.00  0.00     0.105 Br
ENDBRANCH  16  18
ENDBRANCH  11  13
ENDBRANCH   5  11
BRANCH  10  20
HETATM   20  N4  UNL     1      27.435  -0.202  55.021  1.00  0.00    -0.226 N 
HETATM   21  F1  UNL     1      28.560   0.553  55.053  1.00  0.00    -0.101 F 
HETATM   22  H12 UNL     1      27.324  -1.071  55.607  1.00  0.00     0.199 HD
ENDBRANCH  10  20
TORSDOF 4
ENDMDL
MODEL 8
REMARK VINA RESULT:      -6.6      2.406      3.553
REMARK  4 active torsions:
REMARK  status: ('A' for Active; 'I' for Inactive)
REMARK    1  A    between atoms: C5_5  and  N1_6 
REMARK    2  A    between atoms: N1_6  and  C6_7 
REMARK    3  A    between atoms: C9_10  and  O1_11 
REMARK    4  A    between atoms: C13_18  and  N4_19 
ROOT
HETATM    1  C1  UNL     1      27.815   1.911  52.867  1.00  0.00     0.021 C 
HETATM    2  C2  UNL     1      26.615   1.935  53.787  1.00  0.00     0.059 A 
HETATM    3  C3  UNL     1      25.400   2.421  53.060  1.00  0.00     0.001 A 
HETATM    4  C4  UNL     1      24.508   1.462  53.074  1.00  0.00     0.038 A 
HETATM    5  C5  UNL     1      23.233   1.341  52.575  1.00  0.00     0.141 A 
HETATM    6  N2  UNL     1      22.522   0.212  52.738  1.00  0.00    -0.224 NA
HETATM    7  C11 UNL     1      23.001  -0.860  53.392  1.00  0.00     0.236 A 
HETATM    8  N3  UNL     1      24.246  -0.789  53.900  1.00  0.00    -0.239 NA
HETATM    9  C12 UNL     1      24.957   0.323  53.744  1.00  0.00     0.097 A 
HETATM   10  C13 UNL     1      26.189   0.565  54.174  1.00  0.00     0.074 A 
ENDROOT
BRANCH   5  11
HETATM   11  N1  UNL     1      22.589   2.382  51.862  1.00  0.00    -0.340 N 
HETATM   12  H6  UNL     1      21.737   2.880  52.193  1.00  0.00     0.167 HD
BRANCH  11  13
HETATM   13  C6  UNL     1      22.860   3.003  50.628  1.00  0.00     0.032 A 
HETATM   14  C7  UNL     1      22.540   2.553  49.403  1.00  0.00     0.009 A 
HETATM   15  C8  UNL     1      22.994   3.489  48.343  1.00  0.00     0.095 A 
HETATM   16  C9  UNL     1      23.632   4.559  49.146  1.00  0.00     0.067 A 
HETATM   17  C10 UNL     1      23.561   4.292  50.443  1.00  0.00     0.062 A 
BRANCH  16  18
HETATM   18  O1  UNL     1      24.189   5.639  48.466  1.00  0.00    -0.275 OA
HETATM   19 BR1  UNL     1      25.985   6.097  48.778  1.00  0.00     0.105 Br
ENDBRANCH  16  18
ENDBRANCH  11  13
ENDBRANCH   5  11
BRANCH  10  20
HETATM   20  N4  UNL     1      27.055  -0.310  54.914  1.00  0.00    -0.226 N 
HETATM   21  F1  UNL     1      28.342  -0.144  55.304  1.00  0.00    -0.101 F 
HETATM   22  H12 UNL     1      26.508  -1.182  55.138  1.00  0.00     0.199 HD
ENDBRANCH  10  20
TORSDOF 4
ENDMDL
MODEL 9
REMARK VINA RESULT:      -6.6      5.432      6.957
REMARK  4 active torsions:
REMARK  status: ('A' for Active; 'I' for Inactive)
REMARK    1  A    between atoms: C5_5  and  N1_6 
REMARK    2  A    between atoms: N1_6  and  C6_7 
REMARK    3  A    between atoms: C9_10  and  O1_11 
REMARK    4  A    between atoms: C13_18  and  N4_19 
ROOT
HETATM    1  C1  UNL     1      20.284   2.968  48.549  1.00  0.00     0.021 C 
HETATM    2  C2  UNL     1      20.735   1.580  48.944  1.00  0.00     0.059 A 
HETATM    3  C3  UNL     1      22.068   1.629  49.623  1.00  0.00     0.001 A 
HETATM    4  C4  UNL     1      21.922   1.164  50.839  1.00  0.00     0.038 A 
HETATM    5  C5  UNL     1      22.781   0.974  51.895  1.00  0.00     0.141 A 
HETATM    6  N2  UNL     1      22.352   0.465  53.063  1.00  0.00    -0.224 NA
HETATM    7  C11 UNL     1      21.073   0.109  53.274  1.00  0.00     0.236 A 
HETATM    8  N3  UNL     1      20.194   0.276  52.268  1.00  0.00    -0.239 NA
HETATM    9  C12 UNL     1      20.608   0.779  51.110  1.00  0.00     0.097 A 
HETATM   10  C13 UNL     1      19.885   1.010  50.022  1.00  0.00     0.074 A 
ENDROOT
BRANCH   5  11
HETATM   11  N1  UNL     1      24.157   1.300  51.829  1.00  0.00    -0.340 N 
HETATM   12  H6  UNL     1      24.574   1.944  51.125  1.00  0.00     0.167 HD
BRANCH  11  13
HETATM   13  C6  UNL     1      25.269   0.908  52.598  1.00  0.00     0.032 A 
HETATM   14  C7  UNL     1      25.857   1.599  53.589  1.00  0.00     0.009 A 
HETATM   15  C8  UNL     1      27.005   0.855  54.166  1.00  0.00     0.095 A 
HETATM   16  C9  UNL     1      26.995  -0.384  53.350  1.00  0.00     0.067 A 
HETATM   17  C10 UNL     1      26.013  -0.362  52.459  1.00  0.00     0.062 A 
BRANCH  16  18
HETATM   18  O1  UNL     1      27.964  -1.347  53.618  1.00  0.00    -0.275 OA
HETATM   19 BR1  UNL     1      29.777  -0.847  53.643  1.00  0.00     0.105 Br
ENDBRANCH  16  18
ENDBRANCH  11  13
ENDBRANCH   5  11
BRANCH  10  20
HETATM   20  N4  UNL     1      18.482   0.772  49.825  1.00  0.00    -0.226 N 
HETATM   21  F1  UNL     1      17.789  -0.392  49.777  1.00  0.00    -0.101 F 
HETATM   22  H12 UNL     1      18.015   1.709  49.712  1.00  0.00     0.199 HD
ENDBRANCH  10  20
TORSDOF 4
ENDMDL
