MODEL 1
REMARK VINA RESULT:      -7.8      0.000      0.000
REMARK  7 active torsions:
REMARK  status: ('A' for Active; 'I' for Inactive)
REMARK    1  A    between atoms: C2_2  and  O1_3 
REMARK    2  A    between atoms: O1_3  and  C3_4 
REMARK    3  A    between atoms: C3_4  and  O2_6 
REMARK    4  A    between atoms: O2_6  and  C5_7 
REMARK    5  A    between atoms: N2_12  and  C9_13 
REMARK    6  A    between atoms: C9_13  and  N3_14 
REMARK    7  A    between atoms: N3_14  and  C10_15 
ROOT
HETATM    1  C10 UNL     1      24.358   2.888  53.118  1.00  0.00     0.030 A 
HETATM    2  C11 UNL     1      23.469   2.059  52.467  1.00  0.00     0.032 A 
HETATM    3  C12 UNL     1      23.698   0.683  52.430  1.00  0.00     0.046 A 
HETATM    4  C13 UNL     1      24.824   0.130  53.046  1.00  0.00     0.137 A 
HETATM    5  F1  UNL     1      25.035  -1.222  53.001  1.00  0.00    -0.204 F 
HETATM    6  C14 UNL     1      25.718   0.974  53.702  1.00  0.00     0.085 A 
HETATM    7  C15 UNL     1      26.891   0.425  54.349  1.00  0.00     0.102 C 
HETATM    8  N4  UNL     1      27.824  -0.033  54.864  1.00  0.00    -0.191 NA
HETATM    9  C16 UNL     1      25.470   2.333  53.726  1.00  0.00     0.055 A 
ENDROOT
BRANCH   1  10
HETATM   10  N3  UNL     1      24.098   4.296  53.141  1.00  0.00    -0.372 N 
HETATM   11  H14 UNL     1      24.455   4.851  53.973  1.00  0.00     0.161 HD
BRANCH  10  12
HETATM   12  C9  UNL     1      23.362   4.844  52.017  1.00  0.00     0.272 C 
BRANCH  12  13
HETATM   13  N2  UNL     1      24.250   5.824  51.385  1.00  0.00    -0.255 NA
HETATM   14  C8  UNL     1      24.943   5.369  50.370  1.00  0.00     0.124 C 
HETATM   15  N1  UNL     1      25.816   6.238  49.709  1.00  0.00    -0.246 NA
HETATM   16  C17 UNL     1      25.185   4.151  49.564  1.00  0.00     0.106 C 
HETATM   17  C7  UNL     1      25.743   7.492  49.534  1.00  0.00     0.121 C 
HETATM   18  C6  UNL     1      26.802   8.160  48.802  1.00  0.00     0.056 C 
HETATM   19  C5  UNL     1      27.910   7.743  48.217  1.00  0.00     0.075 C 
HETATM   20  C20 UNL     1      28.231   6.355  48.246  1.00  0.00     0.061 C 
HETATM   21  C19 UNL     1      28.460   5.075  48.310  1.00  0.00     0.137 C 
HETATM   22  O3  UNL     1      27.289   4.979  48.986  1.00  0.00    -0.363 OA
HETATM   23  C18 UNL     1      26.693   3.850  49.551  1.00  0.00     0.182 C 
BRANCH  19  24
HETATM   24  O2  UNL     1      28.598   8.801  47.645  1.00  0.00    -0.321 OA
BRANCH  24  25
HETATM   25  C3  UNL     1      29.881   9.241  47.935  1.00  0.00     0.262 C 
HETATM   26  C4  UNL     1      30.128  10.703  47.666  1.00  0.00     0.071 C 
BRANCH  25  27
HETATM   27  O1  UNL     1      30.143   9.027  49.292  1.00  0.00    -0.362 OA
BRANCH  27  28
HETATM   28  C2  UNL     1      31.448   8.599  49.418  1.00  0.00     0.166 C 
HETATM   29  C1  UNL     1      31.704   7.443  48.487  1.00  0.00     0.033 C 
ENDBRANCH  27  28
ENDBRANCH  25  27
ENDBRANCH  24  25
ENDBRANCH  19  24
ENDBRANCH  12  13
ENDBRANCH  10  12
ENDBRANCH   1  10
TORSDOF 7
ENDMDL
MODEL 2
REMARK VINA RESULT:      -7.5      2.139      3.329
REMARK  7 active torsions:
REMARK  status: ('A' for Active; 'I' for Inactive)
REMARK    1  A    between atoms: C2_2  and  O1_3 
REMARK    2  A    between atoms: O1_3  and  C3_4 
REMARK    3  A    between atoms: C3_4  and  O2_6 
REMARK    4  A    between atoms: O2_6  and  C5_7 
REMARK    5  A    between atoms: N2_12  and  C9_13 
REMARK    6  A    between atoms: C9_13  and  N3_14 
REMARK    7  A    between atoms: N3_14  and  C10_15 
ROOT
HETATM    1  C10 UNL     1      21.993   0.236  52.615  1.00  0.00     0.030 A 
HETATM    2  C11 UNL     1      21.074  -0.374  53.443  1.00  0.00     0.032 A 
HETATM    3  C12 UNL     1      21.509  -1.075  54.568  1.00  0.00     0.046 A 
HETATM    4  C13 UNL     1      22.870  -1.169  54.870  1.00  0.00     0.137 A 
HETATM    5  F1  UNL     1      23.280  -1.860  55.978  1.00  0.00    -0.204 F 
HETATM    6  C14 UNL     1      23.792  -0.549  54.028  1.00  0.00     0.085 A 
HETATM    7  C15 UNL     1      25.208  -0.631  54.320  1.00  0.00     0.102 C 
HETATM    8  N4  UNL     1      26.338  -0.704  54.571  1.00  0.00    -0.191 NA
HETATM    9  C16 UNL     1      23.338   0.140  52.920  1.00  0.00     0.055 A 
ENDROOT
BRANCH   1  10
HETATM   10  N3  UNL     1      21.519   0.950  51.467  1.00  0.00    -0.372 N 
HETATM   11  H14 UNL     1      21.048   0.391  50.697  1.00  0.00     0.161 HD
BRANCH  10  12
HETATM   12  C9  UNL     1      21.727   2.386  51.456  1.00  0.00     0.272 C 
BRANCH  12  13
HETATM   13  N2  UNL     1      22.960   2.615  50.696  1.00  0.00    -0.255 NA
HETATM   14  C8  UNL     1      23.594   3.723  50.991  1.00  0.00     0.124 C 
HETATM   15  N1  UNL     1      24.779   4.020  50.313  1.00  0.00    -0.246 NA
HETATM   16  C17 UNL     1      23.531   4.917  51.865  1.00  0.00     0.106 C 
HETATM   17  C7  UNL     1      25.659   3.244  49.829  1.00  0.00     0.121 C 
HETATM   18  C6  UNL     1      26.811   3.821  49.161  1.00  0.00     0.056 C 
HETATM   19  C5  UNL     1      27.202   5.060  48.925  1.00  0.00     0.075 C 
HETATM   20  C20 UNL     1      26.398   6.142  49.385  1.00  0.00     0.061 C 
HETATM   21  C19 UNL     1      25.615   7.081  49.834  1.00  0.00     0.137 C 
HETATM   22  O3  UNL     1      24.834   6.087  50.322  1.00  0.00    -0.363 OA
HETATM   23  C18 UNL     1      23.613   6.181  50.992  1.00  0.00     0.182 C 
BRANCH  19  24
HETATM   24  O2  UNL     1      28.401   5.078  48.231  1.00  0.00    -0.321 OA
BRANCH  24  25
HETATM   25  C3  UNL     1      29.372   6.068  48.231  1.00  0.00     0.262 C 
HETATM   26  C4  UNL     1      30.758   5.599  47.872  1.00  0.00     0.071 C 
BRANCH  25  27
HETATM   27  O1  UNL     1      29.023   7.053  47.303  1.00  0.00    -0.362 OA
BRANCH  27  28
HETATM   28  C2  UNL     1      29.631   8.233  47.676  1.00  0.00     0.166 C 
HETATM   29  C1  UNL     1      29.027   8.744  48.958  1.00  0.00     0.033 C 
ENDBRANCH  27  28
ENDBRANCH  25  27
ENDBRANCH  24  25
ENDBRANCH  19  24
ENDBRANCH  12  13
ENDBRANCH  10  12
ENDBRANCH   1  10
TORSDOF 7
ENDMDL
MODEL 3
REMARK VINA RESULT:      -7.4      7.564     10.203
REMARK  7 active torsions:
REMARK  status: ('A' for Active; 'I' for Inactive)
REMARK    1  A    between atoms: C2_2  and  O1_3 
REMARK    2  A    between atoms: O1_3  and  C3_4 
REMARK    3  A    between atoms: C3_4  and  O2_6 
REMARK    4  A    between atoms: O2_6  and  C5_7 
REMARK    5  A    between atoms: N2_12  and  C9_13 
REMARK    6  A    between atoms: C9_13  and  N3_14 
REMARK    7  A    between atoms: N3_14  and  C10_15 
ROOT
HETATM    1  C10 UNL     1      26.599  -0.813  52.962  1.00  0.00     0.030 A 
HETATM    2  C11 UNL     1      27.334  -1.952  52.703  1.00  0.00     0.032 A 
HETATM    3  C12 UNL     1      28.690  -1.994  53.028  1.00  0.00     0.046 A 
HETATM    4  C13 UNL     1      29.318  -0.892  53.615  1.00  0.00     0.137 A 
HETATM    5  F1  UNL     1      30.650  -0.949  53.929  1.00  0.00    -0.204 F 
HETATM    6  C14 UNL     1      28.569   0.255  53.873  1.00  0.00     0.085 A 
HETATM    7  C15 UNL     1      29.197   1.408  54.482  1.00  0.00     0.102 C 
HETATM    8  N4  UNL     1      29.716   2.322  54.972  1.00  0.00    -0.191 NA
HETATM    9  C16 UNL     1      27.228   0.273  53.543  1.00  0.00     0.055 A 
ENDROOT
BRANCH   1  10
HETATM   10  N3  UNL     1      25.209  -0.798  52.618  1.00  0.00    -0.372 N 
HETATM   11  H14 UNL     1      24.882  -1.455  51.850  1.00  0.00     0.161 HD
BRANCH  10  12
HETATM   12  C9  UNL     1      24.362   0.122  53.354  1.00  0.00     0.272 C 
BRANCH  12  13
HETATM   13  N2  UNL     1      23.139   0.278  52.561  1.00  0.00    -0.255 NA
HETATM   14  C8  UNL     1      22.025   0.059  53.213  1.00  0.00     0.124 C 
HETATM   15  N1  UNL     1      20.811   0.185  52.531  1.00  0.00    -0.246 NA
HETATM   16  C17 UNL     1      21.496  -0.313  54.545  1.00  0.00     0.106 C 
HETATM   17  C7  UNL     1      20.494   0.939  51.562  1.00  0.00     0.121 C 
HETATM   18  C6  UNL     1      19.145   0.869  51.032  1.00  0.00     0.056 C 
HETATM   19  C5  UNL     1      18.078   0.159  51.346  1.00  0.00     0.075 C 
HETATM   20  C20 UNL     1      18.152  -0.765  52.427  1.00  0.00     0.061 C 
HETATM   21  C19 UNL     1      18.292  -1.590  53.425  1.00  0.00     0.137 C 
HETATM   22  O3  UNL     1      19.563  -1.131  53.524  1.00  0.00    -0.363 OA
HETATM   23  C18 UNL     1      20.576  -1.536  54.396  1.00  0.00     0.182 C 
BRANCH  19  24
HETATM   24  O2  UNL     1      17.014   0.467  50.513  1.00  0.00    -0.321 OA
BRANCH  24  25
HETATM   25  C3  UNL     1      16.330   1.669  50.414  1.00  0.00     0.262 C 
HETATM   26  C4  UNL     1      15.237   1.695  49.378  1.00  0.00     0.071 C 
BRANCH  25  27
HETATM   27  O1  UNL     1      15.731   1.959  51.644  1.00  0.00    -0.362 OA
BRANCH  27  28
HETATM   28  C2  UNL     1      15.254   3.252  51.599  1.00  0.00     0.166 C 
HETATM   29  C1  UNL     1      16.353   4.221  51.946  1.00  0.00     0.033 C 
ENDBRANCH  27  28
ENDBRANCH  25  27
ENDBRANCH  24  25
ENDBRANCH  19  24
ENDBRANCH  12  13
ENDBRANCH  10  12
ENDBRANCH   1  10
TORSDOF 7
ENDMDL
MODEL 4
REMARK VINA RESULT:      -7.4      1.358      2.013
REMARK  7 active torsions:
REMARK  status: ('A' for Active; 'I' for Inactive)
REMARK    1  A    between atoms: C2_2  and  O1_3 
REMARK    2  A    between atoms: O1_3  and  C3_4 
REMARK    3  A    between atoms: C3_4  and  O2_6 
REMARK    4  A    between atoms: O2_6  and  C5_7 
REMARK    5  A    between atoms: N2_12  and  C9_13 
REMARK    6  A    between atoms: C9_13  and  N3_14 
REMARK    7  A    between atoms: N3_14  and  C10_15 
ROOT
HETATM    1  C10 UNL     1      24.711   2.400  53.259  1.00  0.00     0.030 A 
HETATM    2  C11 UNL     1      23.927   1.392  52.737  1.00  0.00     0.032 A 
HETATM    3  C12 UNL     1      24.385   0.074  52.752  1.00  0.00     0.046 A 
HETATM    4  C13 UNL     1      25.635  -0.240  53.292  1.00  0.00     0.137 A 
HETATM    5  F1  UNL     1      26.071  -1.539  53.299  1.00  0.00    -0.204 F 
HETATM    6  C14 UNL     1      26.422   0.784  53.817  1.00  0.00     0.085 A 
HETATM    7  C15 UNL     1      27.720   0.482  54.382  1.00  0.00     0.102 C 
HETATM    8  N4  UNL     1      28.756   0.222  54.833  1.00  0.00    -0.191 NA
HETATM    9  C16 UNL     1      25.946   2.081  53.791  1.00  0.00     0.055 A 
ENDROOT
BRANCH   1  10
HETATM   10  N3  UNL     1      24.215   3.743  53.231  1.00  0.00    -0.372 N 
HETATM   11  H14 UNL     1      24.378   4.349  54.087  1.00  0.00     0.161 HD
BRANCH  10  12
HETATM   12  C9  UNL     1      23.526   4.162  52.024  1.00  0.00     0.272 C 
BRANCH  12  13
HETATM   13  N2  UNL     1      24.228   5.357  51.545  1.00  0.00    -0.255 NA
HETATM   14  C8  UNL     1      24.918   5.190  50.445  1.00  0.00     0.124 C 
HETATM   15  N1  UNL     1      25.619   6.279  49.919  1.00  0.00    -0.246 NA
HETATM   16  C17 UNL     1      25.283   4.177  49.428  1.00  0.00     0.106 C 
HETATM   17  C7  UNL     1      25.358   7.520  49.971  1.00  0.00     0.121 C 
HETATM   18  C6  UNL     1      26.267   8.454  49.333  1.00  0.00     0.056 C 
HETATM   19  C5  UNL     1      27.387   8.313  48.649  1.00  0.00     0.075 C 
HETATM   20  C20 UNL     1      27.902   7.005  48.421  1.00  0.00     0.061 C 
HETATM   21  C19 UNL     1      28.315   5.782  48.251  1.00  0.00     0.137 C 
HETATM   22  O3  UNL     1      27.211   5.398  48.937  1.00  0.00    -0.363 OA
HETATM   23  C18 UNL     1      26.816   4.112  49.313  1.00  0.00     0.182 C 
BRANCH  19  24
HETATM   24  O2  UNL     1      27.882   9.544  48.250  1.00  0.00    -0.321 OA
BRANCH  24  25
HETATM   25  C3  UNL     1      28.719  10.396  48.956  1.00  0.00     0.262 C 
HETATM   26  C4  UNL     1      29.927  10.876  48.194  1.00  0.00     0.071 C 
BRANCH  25  27
HETATM   27  O1  UNL     1      28.001  11.533  49.338  1.00  0.00    -0.362 OA
BRANCH  27  28
HETATM   28  C2  UNL     1      27.397  12.060  48.215  1.00  0.00     0.166 C 
HETATM   29  C1  UNL     1      27.385  13.564  48.294  1.00  0.00     0.033 C 
ENDBRANCH  27  28
ENDBRANCH  25  27
ENDBRANCH  24  25
ENDBRANCH  19  24
ENDBRANCH  12  13
ENDBRANCH  10  12
ENDBRANCH   1  10
TORSDOF 7
ENDMDL
MODEL 5
REMARK VINA RESULT:      -7.3      2.119      3.049
REMARK  7 active torsions:
REMARK  status: ('A' for Active; 'I' for Inactive)
REMARK    1  A    between atoms: C2_2  and  O1_3 
REMARK    2  A    between atoms: O1_3  and  C3_4 
REMARK    3  A    between atoms: C3_4  and  O2_6 
REMARK    4  A    between atoms: O2_6  and  C5_7 
REMARK    5  A    between atoms: N2_12  and  C9_13 
REMARK    6  A    between atoms: C9_13  and  N3_14 
REMARK    7  A    between atoms: N3_14  and  C10_15 
ROOT
HETATM    1  C10 UNL     1      26.162   2.160  51.760  1.00  0.00     0.030 A 
HETATM    2  C11 UNL     1      24.957   2.387  52.392  1.00  0.00     0.032 A 
HETATM    3  C12 UNL     1      24.357   1.368  53.133  1.00  0.00     0.046 A 
HETATM    4  C13 UNL     1      24.962   0.114  53.244  1.00  0.00     0.137 A 
HETATM    5  F1  UNL     1      24.361  -0.876  53.975  1.00  0.00    -0.204 F 
HETATM    6  C14 UNL     1      26.180  -0.108  52.601  1.00  0.00     0.085 A 
HETATM    7  C15 UNL     1      26.827  -1.399  52.702  1.00  0.00     0.102 C 
HETATM    8  N4  UNL     1      27.332  -2.438  52.795  1.00  0.00    -0.191 NA
HETATM    9  C16 UNL     1      26.755   0.916  51.874  1.00  0.00     0.055 A 
ENDROOT
BRANCH   1  10
HETATM   10  N3  UNL     1      26.755   3.224  51.007  1.00  0.00    -0.372 N 
HETATM   11  H14 UNL     1      27.483   3.826  51.491  1.00  0.00     0.161 HD
BRANCH  10  12
HETATM   12  C9  UNL     1      26.305   3.386  49.637  1.00  0.00     0.272 C 
BRANCH  12  13
HETATM   13  N2  UNL     1      27.357   4.140  48.947  1.00  0.00    -0.255 NA
HETATM   14  C8  UNL     1      27.117   5.419  48.801  1.00  0.00     0.124 C 
HETATM   15  N1  UNL     1      28.068   6.212  48.154  1.00  0.00    -0.246 NA
HETATM   16  C17 UNL     1      26.111   6.467  49.090  1.00  0.00     0.106 C 
HETATM   17  C7  UNL     1      29.331   6.097  48.106  1.00  0.00     0.121 C 
HETATM   18  C6  UNL     1      30.095   7.071  47.349  1.00  0.00     0.056 C 
HETATM   19  C5  UNL     1      29.768   8.142  46.649  1.00  0.00     0.075 C 
HETATM   20  C20 UNL     1      28.398   8.518  46.553  1.00  0.00     0.061 C 
HETATM   21  C19 UNL     1      27.128   8.803  46.509  1.00  0.00     0.137 C 
HETATM   22  O3  UNL     1      26.938   7.722  47.305  1.00  0.00    -0.363 OA
HETATM   23  C18 UNL     1      25.741   7.183  47.780  1.00  0.00     0.182 C 
BRANCH  19  24
HETATM   24  O2  UNL     1      30.893   8.741  46.105  1.00  0.00    -0.321 OA
BRANCH  24  25
HETATM   25  C3  UNL     1      31.858   9.493  46.757  1.00  0.00     0.262 C 
HETATM   26  C4  UNL     1      33.254   9.349  46.210  1.00  0.00     0.071 C 
BRANCH  25  27
HETATM   27  O1  UNL     1      31.523  10.847  46.666  1.00  0.00    -0.362 OA
BRANCH  27  28
HETATM   28  C2  UNL     1      31.615  11.402  47.925  1.00  0.00     0.166 C 
HETATM   29  C1  UNL     1      30.306  11.247  48.655  1.00  0.00     0.033 C 
ENDBRANCH  27  28
ENDBRANCH  25  27
ENDBRANCH  24  25
ENDBRANCH  19  24
ENDBRANCH  12  13
ENDBRANCH  10  12
ENDBRANCH   1  10
TORSDOF 7
ENDMDL
MODEL 6
REMARK VINA RESULT:      -7.3      2.288      3.320
REMARK  7 active torsions:
REMARK  status: ('A' for Active; 'I' for Inactive)
REMARK    1  A    between atoms: C2_2  and  O1_3 
REMARK    2  A    between atoms: O1_3  and  C3_4 
REMARK    3  A    between atoms: C3_4  and  O2_6 
REMARK    4  A    between atoms: O2_6  and  C5_7 
REMARK    5  A    between atoms: N2_12  and  C9_13 
REMARK    6  A    between atoms: C9_13  and  N3_14 
REMARK    7  A    between atoms: N3_14  and  C10_15 
ROOT
HETATM    1  C10 UNL     1      26.051   2.490  51.737  1.00  0.00     0.030 A 
HETATM    2  C11 UNL     1      24.782   1.965  51.607  1.00  0.00     0.032 A 
HETATM    3  C12 UNL     1      24.418   0.835  52.341  1.00  0.00     0.046 A 
HETATM    4  C13 UNL     1      25.326   0.225  53.210  1.00  0.00     0.137 A 
HETATM    5  F1  UNL     1      24.954  -0.884  53.923  1.00  0.00    -0.204 F 
HETATM    6  C14 UNL     1      26.607   0.761  53.335  1.00  0.00     0.085 A 
HETATM    7  C15 UNL     1      27.565   0.146  54.229  1.00  0.00     0.102 C 
HETATM    8  N4  UNL     1      28.319  -0.357  54.952  1.00  0.00    -0.191 NA
HETATM    9  C16 UNL     1      26.945   1.880  52.598  1.00  0.00     0.055 A 
ENDROOT
BRANCH   1  10
HETATM   10  N3  UNL     1      26.398   3.650  50.972  1.00  0.00    -0.372 N 
HETATM   11  H14 UNL     1      26.790   4.487  51.494  1.00  0.00     0.161 HD
BRANCH  10  12
HETATM   12  C9  UNL     1      26.181   3.579  49.539  1.00  0.00     0.272 C 
BRANCH  12  13
HETATM   13  N2  UNL     1      27.410   4.077  48.913  1.00  0.00    -0.255 NA
HETATM   14  C8  UNL     1      27.451   5.373  48.728  1.00  0.00     0.124 C 
HETATM   15  N1  UNL     1      28.587   5.932  48.137  1.00  0.00    -0.246 NA
HETATM   16  C17 UNL     1      26.667   6.614  48.926  1.00  0.00     0.106 C 
HETATM   17  C7  UNL     1      29.798   5.558  48.181  1.00  0.00     0.121 C 
HETATM   18  C6  UNL     1      30.797   6.329  47.464  1.00  0.00     0.056 C 
HETATM   19  C5  UNL     1      30.746   7.421  46.723  1.00  0.00     0.075 C 
HETATM   20  C20 UNL     1      29.494   8.068  46.523  1.00  0.00     0.061 C 
HETATM   21  C19 UNL     1      28.316   8.607  46.384  1.00  0.00     0.137 C 
HETATM   22  O3  UNL     1      27.854   7.614  47.183  1.00  0.00    -0.363 OA
HETATM   23  C18 UNL     1      26.542   7.348  47.580  1.00  0.00     0.182 C 
BRANCH  19  24
HETATM   24  O2  UNL     1      32.005   7.757  46.251  1.00  0.00    -0.321 OA
BRANCH  24  25
HETATM   25  C3  UNL     1      33.167   7.003  46.308  1.00  0.00     0.262 C 
HETATM   26  C4  UNL     1      33.617   6.428  44.990  1.00  0.00     0.071 C 
BRANCH  25  27
HETATM   27  O1  UNL     1      34.211   7.804  46.780  1.00  0.00    -0.362 OA
BRANCH  27  28
HETATM   28  C2  UNL     1      34.275   7.668  48.151  1.00  0.00     0.166 C 
HETATM   29  C1  UNL     1      34.889   6.340  48.511  1.00  0.00     0.033 C 
ENDBRANCH  27  28
ENDBRANCH  25  27
ENDBRANCH  24  25
ENDBRANCH  19  24
ENDBRANCH  12  13
ENDBRANCH  10  12
ENDBRANCH   1  10
TORSDOF 7
ENDMDL
MODEL 7
REMARK VINA RESULT:      -7.3      4.061      8.894
REMARK  7 active torsions:
REMARK  status: ('A' for Active; 'I' for Inactive)
REMARK    1  A    between atoms: C2_2  and  O1_3 
REMARK    2  A    between atoms: O1_3  and  C3_4 
REMARK    3  A    between atoms: C3_4  and  O2_6 
REMARK    4  A    between atoms: O2_6  and  C5_7 
REMARK    5  A    between atoms: N2_12  and  C9_13 
REMARK    6  A    between atoms: C9_13  and  N3_14 
REMARK    7  A    between atoms: N3_14  and  C10_15 
ROOT
HETATM    1  C10 UNL     1      31.452   6.731  48.790  1.00  0.00     0.030 A 
HETATM    2  C11 UNL     1      32.158   7.909  48.920  1.00  0.00     0.032 A 
HETATM    3  C12 UNL     1      33.542   7.914  48.739  1.00  0.00     0.046 A 
HETATM    4  C13 UNL     1      34.226   6.736  48.427  1.00  0.00     0.137 A 
HETATM    5  F1  UNL     1      35.584   6.757  48.253  1.00  0.00    -0.204 F 
HETATM    6  C14 UNL     1      33.505   5.550  48.298  1.00  0.00     0.085 A 
HETATM    7  C15 UNL     1      34.191   4.317  47.974  1.00  0.00     0.102 C 
HETATM    8  N4  UNL     1      34.756   3.339  47.712  1.00  0.00    -0.191 NA
HETATM    9  C16 UNL     1      32.135   5.570  48.481  1.00  0.00     0.055 A 
ENDROOT
BRANCH   1  10
HETATM   10  N3  UNL     1      30.032   6.755  48.981  1.00  0.00    -0.372 N 
HETATM   11  H14 UNL     1      29.657   7.252  49.841  1.00  0.00     0.161 HD
BRANCH  10  12
HETATM   12  C9  UNL     1      29.225   6.091  47.974  1.00  0.00     0.272 C 
BRANCH  12  13
HETATM   13  N2  UNL     1      28.461   5.057  48.678  1.00  0.00    -0.255 NA
HETATM   14  C8  UNL     1      27.201   5.346  48.890  1.00  0.00     0.124 C 
HETATM   15  N1  UNL     1      26.400   4.415  49.556  1.00  0.00    -0.246 NA
HETATM   16  C17 UNL     1      26.185   6.400  48.670  1.00  0.00     0.106 C 
HETATM   17  C7  UNL     1      26.465   3.148  49.574  1.00  0.00     0.121 C 
HETATM   18  C6  UNL     1      25.495   2.409  50.362  1.00  0.00     0.056 C 
HETATM   19  C5  UNL     1      24.474   2.765  51.119  1.00  0.00     0.075 C 
HETATM   20  C20 UNL     1      24.160   4.147  51.258  1.00  0.00     0.061 C 
HETATM   21  C19 UNL     1      23.932   5.426  51.340  1.00  0.00     0.137 C 
HETATM   22  O3  UNL     1      24.981   5.588  50.497  1.00  0.00    -0.363 OA
HETATM   23  C18 UNL     1      25.547   6.771  50.020  1.00  0.00     0.182 C 
BRANCH  19  24
HETATM   24  O2  UNL     1      23.854   1.654  51.669  1.00  0.00    -0.321 OA
BRANCH  24  25
HETATM   25  C3  UNL     1      23.864   1.242  52.993  1.00  0.00     0.262 C 
HETATM   26  C4  UNL     1      22.639   0.480  53.431  1.00  0.00     0.071 C 
BRANCH  25  27
HETATM   27  O1  UNL     1      24.962   0.401  53.204  1.00  0.00    -0.362 OA
BRANCH  27  28
HETATM   28  C2  UNL     1      25.886   1.081  53.969  1.00  0.00     0.166 C 
HETATM   29  C1  UNL     1      26.876   0.113  54.563  1.00  0.00     0.033 C 
ENDBRANCH  27  28
ENDBRANCH  25  27
ENDBRANCH  24  25
ENDBRANCH  19  24
ENDBRANCH  12  13
ENDBRANCH  10  12
ENDBRANCH   1  10
TORSDOF 7
ENDMDL
MODEL 8
REMARK VINA RESULT:      -7.3      1.624      2.380
REMARK  7 active torsions:
REMARK  status: ('A' for Active; 'I' for Inactive)
REMARK    1  A    between atoms: C2_2  and  O1_3 
REMARK    2  A    between atoms: O1_3  and  C3_4 
REMARK    3  A    between atoms: C3_4  and  O2_6 
REMARK    4  A    between atoms: O2_6  and  C5_7 
REMARK    5  A    between atoms: N2_12  and  C9_13 
REMARK    6  A    between atoms: C9_13  and  N3_14 
REMARK    7  A    between atoms: N3_14  and  C10_15 
ROOT
HETATM    1  C10 UNL     1      23.863   2.320  52.845  1.00  0.00     0.030 A 
HETATM    2  C11 UNL     1      23.169   1.132  52.757  1.00  0.00     0.032 A 
HETATM    3  C12 UNL     1      23.776  -0.060  53.152  1.00  0.00     0.046 A 
HETATM    4  C13 UNL     1      25.086  -0.067  53.638  1.00  0.00     0.137 A 
HETATM    5  F1  UNL     1      25.668  -1.246  54.022  1.00  0.00    -0.204 F 
HETATM    6  C14 UNL     1      25.782   1.138  53.724  1.00  0.00     0.085 A 
HETATM    7  C15 UNL     1      27.140   1.156  54.225  1.00  0.00     0.102 C 
HETATM    8  N4  UNL     1      28.226   1.152  54.631  1.00  0.00    -0.191 NA
HETATM    9  C16 UNL     1      25.159   2.306  53.327  1.00  0.00     0.055 A 
ENDROOT
BRANCH   1  10
HETATM   10  N3  UNL     1      23.215   3.529  52.433  1.00  0.00    -0.372 N 
HETATM   11  H14 UNL     1      23.078   4.290  53.160  1.00  0.00     0.161 HD
BRANCH  10  12
HETATM   12  C9  UNL     1      22.798   3.608  51.045  1.00  0.00     0.272 C 
BRANCH  12  13
HETATM   13  N2  UNL     1      24.020   3.809  50.261  1.00  0.00    -0.255 NA
HETATM   14  C8  UNL     1      24.587   4.981  50.408  1.00  0.00     0.124 C 
HETATM   15  N1  UNL     1      25.757   5.257  49.696  1.00  0.00    -0.246 NA
HETATM   16  C17 UNL     1      24.447   6.273  51.120  1.00  0.00     0.106 C 
HETATM   17  C7  UNL     1      26.684   4.478  49.316  1.00  0.00     0.121 C 
HETATM   18  C6  UNL     1      27.805   5.031  48.579  1.00  0.00     0.056 C 
HETATM   19  C5  UNL     1      28.124   6.249  48.183  1.00  0.00     0.075 C 
HETATM   20  C20 UNL     1      27.255   7.333  48.499  1.00  0.00     0.061 C 
HETATM   21  C19 UNL     1      26.416   8.274  48.823  1.00  0.00     0.137 C 
HETATM   22  O3  UNL     1      25.690   7.307  49.437  1.00  0.00    -0.363 OA
HETATM   23  C18 UNL     1      24.461   7.416  50.091  1.00  0.00     0.182 C 
BRANCH  19  24
HETATM   24  O2  UNL     1      29.325   6.247  47.492  1.00  0.00    -0.321 OA
BRANCH  24  25
HETATM   25  C3  UNL     1      30.598   6.468  47.995  1.00  0.00     0.262 C 
HETATM   26  C4  UNL     1      30.750   7.724  48.814  1.00  0.00     0.071 C 
BRANCH  25  27
HETATM   27  O1  UNL     1      30.957   5.398  48.821  1.00  0.00    -0.362 OA
BRANCH  27  28
HETATM   28  C2  UNL     1      32.187   4.929  48.413  1.00  0.00     0.166 C 
HETATM   29  C1  UNL     1      32.090   4.375  47.015  1.00  0.00     0.033 C 
ENDBRANCH  27  28
ENDBRANCH  25  27
ENDBRANCH  24  25
ENDBRANCH  19  24
ENDBRANCH  12  13
ENDBRANCH  10  12
ENDBRANCH   1  10
TORSDOF 7
ENDMDL
MODEL 9
REMARK VINA RESULT:      -7.2      6.420     11.148
REMARK  7 active torsions:
REMARK  status: ('A' for Active; 'I' for Inactive)
REMARK    1  A    between atoms: C2_2  and  O1_3 
REMARK    2  A    between atoms: O1_3  and  C3_4 
REMARK    3  A    between atoms: C3_4  and  O2_6 
REMARK    4  A    between atoms: O2_6  and  C5_7 
REMARK    5  A    between atoms: N2_12  and  C9_13 
REMARK    6  A    between atoms: C9_13  and  N3_14 
REMARK    7  A    between atoms: N3_14  and  C10_15 
ROOT
HETATM    1  C10 UNL     1      26.040   0.965  52.445  1.00  0.00     0.030 A 
HETATM    2  C11 UNL     1      26.700   2.114  52.830  1.00  0.00     0.032 A 
HETATM    3  C12 UNL     1      27.990   2.034  53.355  1.00  0.00     0.046 A 
HETATM    4  C13 UNL     1      28.627   0.798  53.498  1.00  0.00     0.137 A 
HETATM    5  F1  UNL     1      29.894   0.736  54.015  1.00  0.00    -0.204 F 
HETATM    6  C14 UNL     1      27.954  -0.358  53.107  1.00  0.00     0.085 A 
HETATM    7  C15 UNL     1      28.594  -1.650  53.244  1.00  0.00     0.102 C 
HETATM    8  N4  UNL     1      29.122  -2.675  53.358  1.00  0.00    -0.191 NA
HETATM    9  C16 UNL     1      26.677  -0.254  52.589  1.00  0.00     0.055 A 
ENDROOT
BRANCH   1  10
HETATM   10  N3  UNL     1      24.717   1.077  51.908  1.00  0.00    -0.372 N 
HETATM   11  H14 UNL     1      24.446   0.420  51.120  1.00  0.00     0.161 HD
BRANCH  10  12
HETATM   12  C9  UNL     1      23.857   2.089  52.493  1.00  0.00     0.272 C 
BRANCH  12  13
HETATM   13  N2  UNL     1      22.642   1.392  52.928  1.00  0.00    -0.255 NA
HETATM   14  C8  UNL     1      21.863   0.980  51.958  1.00  0.00     0.124 C 
HETATM   15  N1  UNL     1      20.683   0.306  52.284  1.00  0.00    -0.246 NA
HETATM   16  C17 UNL     1      21.738   0.952  50.483  1.00  0.00     0.106 C 
HETATM   17  C7  UNL     1      20.417  -0.442  53.273  1.00  0.00     0.121 C 
HETATM   18  C6  UNL     1      19.092  -1.025  53.374  1.00  0.00     0.056 C 
HETATM   19  C5  UNL     1      18.010  -0.966  52.619  1.00  0.00     0.075 C 
HETATM   20  C20 UNL     1      18.041  -0.200  51.419  1.00  0.00     0.061 C 
HETATM   21  C19 UNL     1      18.140   0.518  50.337  1.00  0.00     0.137 C 
HETATM   22  O3  UNL     1      19.424   0.753  50.706  1.00  0.00    -0.363 OA
HETATM   23  C18 UNL     1      20.381   1.556  50.083  1.00  0.00     0.182 C 
BRANCH  19  24
HETATM   24  O2  UNL     1      16.981  -1.713  53.169  1.00  0.00    -0.321 OA
BRANCH  24  25
HETATM   25  C3  UNL     1      16.541  -2.971  52.785  1.00  0.00     0.262 C 
HETATM   26  C4  UNL     1      16.900  -4.087  53.733  1.00  0.00     0.071 C 
BRANCH  25  27
HETATM   27  O1  UNL     1      15.147  -2.958  52.683  1.00  0.00    -0.362 OA
BRANCH  27  28
HETATM   28  C2  UNL     1      14.811  -3.016  51.347  1.00  0.00     0.166 C 
HETATM   29  C1  UNL     1      13.722  -4.034  51.131  1.00  0.00     0.033 C 
ENDBRANCH  27  28
ENDBRANCH  25  27
ENDBRANCH  24  25
ENDBRANCH  19  24
ENDBRANCH  12  13
ENDBRANCH  10  12
ENDBRANCH   1  10
TORSDOF 7
ENDMDL
