MODEL 1
REMARK VINA RESULT:      -8.1      0.000      0.000
REMARK  3 active torsions:
REMARK  status: ('A' for Active; 'I' for Inactive)
REMARK       I    between atoms: C2_2  and  N1_4 
REMARK    1  A    between atoms: N2_7  and  C5_8 
REMARK    2  A    between atoms: C9_13  and  C10_14 
REMARK    3  A    between atoms: C12_17  and  N4_18 
ROOT
HETATM    1  C5  UNL     1      24.686   1.705  52.238  1.00  0.00     0.228 C 
HETATM    2  C6  UNL     1      25.484   2.114  53.459  1.00  0.00     0.084 C 
HETATM    3  C7  UNL     1      26.718   1.676  52.698  1.00  0.00     0.207 C 
HETATM    4  C8  UNL     1      25.938   2.080  51.440  1.00  0.00     0.084 C 
HETATM    5  N3  UNL     1      27.921   2.420  52.924  1.00  0.00     0.111 N 
HETATM    6  C9  UNL     1      28.913   1.498  53.443  1.00  0.00     0.289 C 
HETATM    7  C11 UNL     1      28.350   0.158  53.214  1.00  0.00     0.050 A 
HETATM    8  C12 UNL     1      28.848  -1.118  53.351  1.00  0.00     0.133 A 
HETATM    9  N5  UNL     1      28.101  -2.214  53.065  1.00  0.00    -0.224 NA
HETATM   10  C13 UNL     1      26.817  -2.092  52.630  1.00  0.00     0.235 A 
HETATM   11  N6  UNL     1      26.311  -0.833  52.490  1.00  0.00    -0.243 NA
HETATM   12  C14 UNL     1      27.047   0.248  52.772  1.00  0.00     0.087 A 
HETATM   13  H13 UNL     1      28.291   2.879  52.069  1.00  0.00     0.318 HD
ENDROOT
BRANCH   1  14
HETATM   14  N2  UNL     1      23.587   2.547  51.869  1.00  0.00     0.096 N 
HETATM   15  C4  UNL     1      23.752   3.890  52.378  1.00  0.00     0.292 C 
HETATM   16  C3  UNL     1      23.602   4.945  51.304  1.00  0.00     0.156 C 
HETATM   17  N1  UNL     1      22.263   4.731  50.741  1.00  0.00    -0.349 N 
HETATM   18  C2  UNL     1      21.278   5.730  50.516  1.00  0.00     0.215 C 
HETATM   19  C16 UNL     1      21.933   3.360  50.387  1.00  0.00     0.156 C 
HETATM   20  C1  UNL     1      21.705   7.098  50.908  1.00  0.00     0.117 C 
HETATM   21  O1  UNL     1      20.138   5.478  50.025  1.00  0.00    -0.274 OA
HETATM   22  C15 UNL     1      23.180   2.482  50.505  1.00  0.00     0.292 C 
ENDBRANCH   1  14
BRANCH   6  23
HETATM   23  C10 UNL     1      29.079   1.814  54.916  1.00  0.00     0.262 C 
HETATM   24  F1  UNL     1      30.215   2.589  55.077  1.00  0.00    -0.253 F 
ENDBRANCH   6  23
BRANCH   8  25
HETATM   25  N4  UNL     1      30.205  -1.250  53.811  1.00  0.00    -0.383 N 
HETATM   26  H17 UNL     1      30.717  -2.131  53.705  1.00  0.00     0.157 HD
HETATM   27  H18 UNL     1      30.648  -0.412  54.260  1.00  0.00     0.157 HD
ENDBRANCH   8  25
TORSDOF 3
ENDMDL
MODEL 2
REMARK VINA RESULT:      -7.7      3.532      7.767
REMARK  3 active torsions:
REMARK  status: ('A' for Active; 'I' for Inactive)
REMARK       I    between atoms: C2_2  and  N1_4 
REMARK    1  A    between atoms: N2_7  and  C5_8 
REMARK    2  A    between atoms: C9_13  and  C10_14 
REMARK    3  A    between atoms: C12_17  and  N4_18 
ROOT
HETATM    1  C5  UNL     1      24.602   1.715  51.605  1.00  0.00     0.228 C 
HETATM    2  C6  UNL     1      24.908   2.676  50.475  1.00  0.00     0.084 C 
HETATM    3  C7  UNL     1      24.312   3.761  51.347  1.00  0.00     0.207 C 
HETATM    4  C8  UNL     1      24.811   2.918  52.528  1.00  0.00     0.084 C 
HETATM    5  N3  UNL     1      24.895   5.066  51.252  1.00  0.00     0.111 N 
HETATM    6  C9  UNL     1      23.854   5.979  50.819  1.00  0.00     0.289 C 
HETATM    7  C11 UNL     1      22.598   5.229  50.971  1.00  0.00     0.050 A 
HETATM    8  C12 UNL     1      21.269   5.570  50.865  1.00  0.00     0.133 A 
HETATM    9  N5  UNL     1      20.278   4.664  51.058  1.00  0.00    -0.224 NA
HETATM   10  C13 UNL     1      20.563   3.369  51.367  1.00  0.00     0.235 A 
HETATM   11  N6  UNL     1      21.876   3.017  51.475  1.00  0.00    -0.243 NA
HETATM   12  C14 UNL     1      22.854   3.910  51.284  1.00  0.00     0.087 A 
HETATM   13  H13 UNL     1      25.301   5.405  52.146  1.00  0.00     0.318 HD
ENDROOT
BRANCH   1  14
HETATM   14  N2  UNL     1      25.579   0.701  51.876  1.00  0.00     0.096 N 
HETATM   15  C4  UNL     1      26.921   1.239  51.865  1.00  0.00     0.292 C 
HETATM   16  C3  UNL     1      27.699   0.893  53.115  1.00  0.00     0.156 C 
HETATM   17  N1  UNL     1      27.695  -0.574  53.176  1.00  0.00    -0.349 N 
HETATM   18  C2  UNL     1      28.823  -1.408  53.397  1.00  0.00     0.215 C 
HETATM   19  C16 UNL     1      26.403  -1.215  52.991  1.00  0.00     0.156 C 
HETATM   20  C1  UNL     1      30.097  -0.665  53.576  1.00  0.00     0.117 C 
HETATM   21  O1  UNL     1      28.751  -2.671  53.439  1.00  0.00    -0.274 OA
HETATM   22  C15 UNL     1      25.298  -0.157  52.980  1.00  0.00     0.292 C 
ENDBRANCH   1  14
BRANCH   6  23
HETATM   23  C10 UNL     1      24.150   6.330  49.374  1.00  0.00     0.262 C 
HETATM   24  F1  UNL     1      23.679   5.308  48.566  1.00  0.00    -0.253 F 
ENDBRANCH   6  23
BRANCH   8  25
HETATM   25  N4  UNL     1      20.963   6.938  50.538  1.00  0.00    -0.383 N 
HETATM   26  H17 UNL     1      20.014   7.308  50.641  1.00  0.00     0.157 HD
HETATM   27  H18 UNL     1      21.749   7.539  50.190  1.00  0.00     0.157 HD
ENDBRANCH   8  25
TORSDOF 3
ENDMDL
MODEL 3
REMARK VINA RESULT:      -7.6      4.575      6.377
REMARK  3 active torsions:
REMARK  status: ('A' for Active; 'I' for Inactive)
REMARK       I    between atoms: C2_2  and  N1_4 
REMARK    1  A    between atoms: N2_7  and  C5_8 
REMARK    2  A    between atoms: C9_13  and  C10_14 
REMARK    3  A    between atoms: C12_17  and  N4_18 
ROOT
HETATM    1  C5  UNL     1      24.058   2.690  51.603  1.00  0.00     0.228 C 
HETATM    2  C6  UNL     1      22.946   2.080  50.773  1.00  0.00     0.084 C 
HETATM    3  C7  UNL     1      22.137   2.021  52.053  1.00  0.00     0.207 C 
HETATM    4  C8  UNL     1      22.936   3.262  52.472  1.00  0.00     0.084 C 
HETATM    5  N3  UNL     1      20.724   2.225  51.939  1.00  0.00     0.111 N 
HETATM    6  C9  UNL     1      20.069   1.030  52.433  1.00  0.00     0.289 C 
HETATM    7  C11 UNL     1      21.125   0.268  53.118  1.00  0.00     0.050 A 
HETATM    8  C12 UNL     1      21.124  -0.863  53.902  1.00  0.00     0.133 A 
HETATM    9  N5  UNL     1      22.267  -1.374  54.426  1.00  0.00    -0.224 NA
HETATM   10  C13 UNL     1      23.470  -0.781  54.193  1.00  0.00     0.235 A 
HETATM   11  N6  UNL     1      23.485   0.341  53.418  1.00  0.00    -0.243 NA
HETATM   12  C14 UNL     1      22.359   0.845  52.901  1.00  0.00     0.087 A 
HETATM   13  H13 UNL     1      20.381   3.051  52.469  1.00  0.00     0.318 HD
ENDROOT
BRANCH   1  14
HETATM   14  N2  UNL     1      24.811   3.749  50.997  1.00  0.00     0.096 N 
HETATM   15  C4  UNL     1      26.196   3.376  50.809  1.00  0.00     0.292 C 
HETATM   16  C3  UNL     1      26.671   3.595  49.390  1.00  0.00     0.156 C 
HETATM   17  N1  UNL     1      26.445   5.021  49.125  1.00  0.00    -0.349 N 
HETATM   18  C2  UNL     1      27.381   5.929  48.562  1.00  0.00     0.215 C 
HETATM   19  C16 UNL     1      25.131   5.533  49.479  1.00  0.00     0.156 C 
HETATM   20  C1  UNL     1      28.694   5.316  48.232  1.00  0.00     0.117 C 
HETATM   21  O1  UNL     1      27.121   7.152  48.358  1.00  0.00    -0.274 OA
HETATM   22  C15 UNL     1      24.212   4.373  49.865  1.00  0.00     0.292 C 
ENDBRANCH   1  14
BRANCH   6  23
HETATM   23  C10 UNL     1      19.517   0.299  51.225  1.00  0.00     0.262 C 
HETATM   24  F1  UNL     1      18.384  -0.399  51.610  1.00  0.00    -0.253 F 
ENDBRANCH   6  23
BRANCH   8  25
HETATM   25  N4  UNL     1      19.854  -1.493  54.150  1.00  0.00    -0.383 N 
HETATM   26  H17 UNL     1      19.080  -1.403  53.486  1.00  0.00     0.157 HD
HETATM   27  H18 UNL     1      19.752  -2.046  55.035  1.00  0.00     0.157 HD
ENDBRANCH   8  25
TORSDOF 3
ENDMDL
MODEL 4
REMARK VINA RESULT:      -7.6      3.877      5.060
REMARK  3 active torsions:
REMARK  status: ('A' for Active; 'I' for Inactive)
REMARK       I    between atoms: C2_2  and  N1_4 
REMARK    1  A    between atoms: N2_7  and  C5_8 
REMARK    2  A    between atoms: C9_13  and  C10_14 
REMARK    3  A    between atoms: C12_17  and  N4_18 
ROOT
HETATM    1  C5  UNL     1      22.514   1.499  50.899  1.00  0.00     0.228 C 
HETATM    2  C6  UNL     1      21.815   0.260  51.420  1.00  0.00     0.084 C 
HETATM    3  C7  UNL     1      22.311   0.660  52.794  1.00  0.00     0.207 C 
HETATM    4  C8  UNL     1      22.220   2.101  52.275  1.00  0.00     0.084 C 
HETATM    5  N3  UNL     1      21.456   0.366  53.905  1.00  0.00     0.111 N 
HETATM    6  C9  UNL     1      22.185  -0.517  54.796  1.00  0.00     0.289 C 
HETATM    7  C11 UNL     1      23.579  -0.469  54.327  1.00  0.00     0.050 A 
HETATM    8  C12 UNL     1      24.765  -0.962  54.822  1.00  0.00     0.133 A 
HETATM    9  N5  UNL     1      25.944  -0.774  54.179  1.00  0.00    -0.224 NA
HETATM   10  C13 UNL     1      26.001  -0.082  53.007  1.00  0.00     0.235 A 
HETATM   11  N6  UNL     1      24.833   0.412  52.506  1.00  0.00    -0.243 NA
HETATM   12  C14 UNL     1      23.669   0.226  53.139  1.00  0.00     0.087 A 
HETATM   13  H13 UNL     1      21.152   1.210  54.429  1.00  0.00     0.318 HD
ENDROOT
BRANCH   1  14
HETATM   14  N2  UNL     1      21.839   2.241  49.874  1.00  0.00     0.096 N 
HETATM   15  C4  UNL     1      22.770   2.782  48.909  1.00  0.00     0.292 C 
HETATM   16  C3  UNL     1      22.402   2.433  47.484  1.00  0.00     0.156 C 
HETATM   17  N1  UNL     1      21.046   2.963  47.296  1.00  0.00    -0.349 N 
HETATM   18  C2  UNL     1      20.597   3.754  46.206  1.00  0.00     0.215 C 
HETATM   19  C16 UNL     1      20.085   2.634  48.337  1.00  0.00     0.156 C 
HETATM   20  C1  UNL     1      21.647   4.038  45.193  1.00  0.00     0.117 C 
HETATM   21  O1  UNL     1      19.409   4.180  46.104  1.00  0.00    -0.274 OA
HETATM   22  C15 UNL     1      20.696   1.614  49.300  1.00  0.00     0.292 C 
ENDBRANCH   1  14
BRANCH   6  23
HETATM   23  C10 UNL     1      21.571  -1.895  54.649  1.00  0.00     0.262 C 
HETATM   24  F1  UNL     1      20.345  -1.768  54.019  1.00  0.00    -0.253 F 
ENDBRANCH   6  23
BRANCH   8  25
HETATM   25  N4  UNL     1      24.709  -1.694  56.060  1.00  0.00    -0.383 N 
HETATM   26  H17 UNL     1      24.890  -2.702  56.088  1.00  0.00     0.157 HD
HETATM   27  H18 UNL     1      24.477  -1.157  56.930  1.00  0.00     0.157 HD
ENDBRANCH   8  25
TORSDOF 3
ENDMDL
MODEL 5
REMARK VINA RESULT:      -7.5      3.080      4.191
REMARK  3 active torsions:
REMARK  status: ('A' for Active; 'I' for Inactive)
REMARK       I    between atoms: C2_2  and  N1_4 
REMARK    1  A    between atoms: N2_7  and  C5_8 
REMARK    2  A    between atoms: C9_13  and  C10_14 
REMARK    3  A    between atoms: C12_17  and  N4_18 
ROOT
HETATM    1  C5  UNL     1      23.029   2.889  51.673  1.00  0.00     0.228 C 
HETATM    2  C6  UNL     1      24.170   2.753  52.661  1.00  0.00     0.084 C 
HETATM    3  C7  UNL     1      24.015   1.254  52.506  1.00  0.00     0.207 C 
HETATM    4  C8  UNL     1      23.538   1.572  51.083  1.00  0.00     0.084 C 
HETATM    5  N3  UNL     1      25.208   0.465  52.578  1.00  0.00     0.111 N 
HETATM    6  C9  UNL     1      25.056  -0.456  53.688  1.00  0.00     0.289 C 
HETATM    7  C11 UNL     1      23.632  -0.390  54.050  1.00  0.00     0.050 A 
HETATM    8  C12 UNL     1      22.835  -1.111  54.911  1.00  0.00     0.133 A 
HETATM    9  N5  UNL     1      21.515  -0.840  55.063  1.00  0.00    -0.224 NA
HETATM   10  C13 UNL     1      20.920   0.165  54.364  1.00  0.00     0.235 A 
HETATM   11  N6  UNL     1      21.698   0.886  53.506  1.00  0.00    -0.243 NA
HETATM   12  C14 UNL     1      23.000   0.621  53.356  1.00  0.00     0.087 A 
HETATM   13  H13 UNL     1      25.404  -0.071  51.710  1.00  0.00     0.318 HD
ENDROOT
BRANCH   1  14
HETATM   14  N2  UNL     1      23.131   3.943  50.707  1.00  0.00     0.096 N 
HETATM   15  C4  UNL     1      24.179   4.879  51.049  1.00  0.00     0.292 C 
HETATM   16  C3  UNL     1      25.145   5.116  49.910  1.00  0.00     0.156 C 
HETATM   17  N1  UNL     1      24.318   5.600  48.798  1.00  0.00    -0.349 N 
HETATM   18  C2  UNL     1      24.580   6.739  47.991  1.00  0.00     0.215 C 
HETATM   19  C16 UNL     1      23.120   4.826  48.513  1.00  0.00     0.156 C 
HETATM   20  C1  UNL     1      25.823   7.465  48.357  1.00  0.00     0.117 C 
HETATM   21  O1  UNL     1      23.822   7.103  47.044  1.00  0.00    -0.274 OA
HETATM   22  C15 UNL     1      23.128   3.539  49.340  1.00  0.00     0.292 C 
ENDBRANCH   1  14
BRANCH   6  23
HETATM   23  C10 UNL     1      25.960   0.040  54.799  1.00  0.00     0.262 C 
HETATM   24  F1  UNL     1      26.548   1.226  54.394  1.00  0.00    -0.253 F 
ENDBRANCH   6  23
BRANCH   8  25
HETATM   25  N4  UNL     1      23.460  -2.174  55.653  1.00  0.00    -0.383 N 
HETATM   26  H17 UNL     1      24.444  -2.418  55.502  1.00  0.00     0.157 HD
HETATM   27  H18 UNL     1      22.871  -2.688  56.352  1.00  0.00     0.157 HD
ENDBRANCH   8  25
TORSDOF 3
ENDMDL
MODEL 6
REMARK VINA RESULT:      -7.4      3.567      8.112
REMARK  3 active torsions:
REMARK  status: ('A' for Active; 'I' for Inactive)
REMARK       I    between atoms: C2_2  and  N1_4 
REMARK    1  A    between atoms: N2_7  and  C5_8 
REMARK    2  A    between atoms: C9_13  and  C10_14 
REMARK    3  A    between atoms: C12_17  and  N4_18 
ROOT
HETATM    1  C5  UNL     1      24.924   2.631  51.650  1.00  0.00     0.228 C 
HETATM    2  C6  UNL     1      23.524   2.607  52.229  1.00  0.00     0.084 C 
HETATM    3  C7  UNL     1      23.077   3.301  50.959  1.00  0.00     0.207 C 
HETATM    4  C8  UNL     1      24.235   2.552  50.286  1.00  0.00     0.084 C 
HETATM    5  N3  UNL     1      21.776   2.970  50.460  1.00  0.00     0.111 N 
HETATM    6  C9  UNL     1      20.995   4.191  50.431  1.00  0.00     0.289 C 
HETATM    7  C11 UNL     1      21.970   5.275  50.628  1.00  0.00     0.050 A 
HETATM    8  C12 UNL     1      21.891   6.648  50.564  1.00  0.00     0.133 A 
HETATM    9  N5  UNL     1      22.967   7.441  50.794  1.00  0.00    -0.224 NA
HETATM   10  C13 UNL     1      24.179   6.903  51.102  1.00  0.00     0.235 A 
HETATM   11  N6  UNL     1      24.272   5.544  51.169  1.00  0.00    -0.243 NA
HETATM   12  C14 UNL     1      23.211   4.762  50.942  1.00  0.00     0.087 A 
HETATM   13  H13 UNL     1      21.792   2.549  49.510  1.00  0.00     0.318 HD
ENDROOT
BRANCH   1  14
HETATM   14  N2  UNL     1      25.735   1.469  51.869  1.00  0.00     0.096 N 
HETATM   15  C4  UNL     1      27.137   1.811  51.969  1.00  0.00     0.292 C 
HETATM   16  C3  UNL     1      27.786   1.251  53.215  1.00  0.00     0.156 C 
HETATM   17  N1  UNL     1      27.578  -0.201  53.138  1.00  0.00    -0.349 N 
HETATM   18  C2  UNL     1      28.567  -1.201  53.331  1.00  0.00     0.215 C 
HETATM   19  C16 UNL     1      26.224  -0.633  52.835  1.00  0.00     0.156 C 
HETATM   20  C1  UNL     1      29.918  -0.665  53.636  1.00  0.00     0.117 C 
HETATM   21  O1  UNL     1      28.320  -2.441  53.250  1.00  0.00    -0.274 OA
HETATM   22  C15 UNL     1      25.277   0.568  52.873  1.00  0.00     0.292 C 
ENDBRANCH   1  14
BRANCH   6  23
HETATM   23  C10 UNL     1      19.993   4.099  51.565  1.00  0.00     0.262 C 
HETATM   24  F1  UNL     1      20.255   2.951  52.295  1.00  0.00    -0.253 F 
ENDBRANCH   6  23
BRANCH   8  25
HETATM   25  N4  UNL     1      20.610   7.220  50.239  1.00  0.00    -0.383 N 
HETATM   26  H17 UNL     1      19.979   7.556  50.972  1.00  0.00     0.157 HD
HETATM   27  H18 UNL     1      20.349   7.278  49.225  1.00  0.00     0.157 HD
ENDBRANCH   8  25
TORSDOF 3
ENDMDL
MODEL 7
REMARK VINA RESULT:      -7.3      3.197      4.269
REMARK  3 active torsions:
REMARK  status: ('A' for Active; 'I' for Inactive)
REMARK       I    between atoms: C2_2  and  N1_4 
REMARK    1  A    between atoms: N2_7  and  C5_8 
REMARK    2  A    between atoms: C9_13  and  C10_14 
REMARK    3  A    between atoms: C12_17  and  N4_18 
ROOT
HETATM    1  C5  UNL     1      24.689   2.975  51.329  1.00  0.00     0.228 C 
HETATM    2  C6  UNL     1      23.877   1.710  51.137  1.00  0.00     0.084 C 
HETATM    3  C7  UNL     1      23.773   1.648  52.647  1.00  0.00     0.207 C 
HETATM    4  C8  UNL     1      23.854   3.179  52.595  1.00  0.00     0.084 C 
HETATM    5  N3  UNL     1      22.556   1.128  53.195  1.00  0.00     0.111 N 
HETATM    6  C9  UNL     1      22.896  -0.039  53.986  1.00  0.00     0.289 C 
HETATM    7  C11 UNL     1      24.359   0.010  54.133  1.00  0.00     0.050 A 
HETATM    8  C12 UNL     1      25.265  -0.715  54.874  1.00  0.00     0.133 A 
HETATM    9  N5  UNL     1      26.596  -0.462  54.828  1.00  0.00    -0.224 NA
HETATM   10  C13 UNL     1      27.094   0.529  54.038  1.00  0.00     0.235 A 
HETATM   11  N6  UNL     1      26.208   1.256  53.299  1.00  0.00    -0.243 NA
HETATM   12  C14 UNL     1      24.894   1.007  53.343  1.00  0.00     0.087 A 
HETATM   13  H13 UNL     1      22.044   1.810  53.789  1.00  0.00     0.318 HD
ENDROOT
BRANCH   1  14
HETATM   14  N2  UNL     1      24.456   4.041  50.399  1.00  0.00     0.096 N 
HETATM   15  C4  UNL     1      23.331   4.858  50.797  1.00  0.00     0.292 C 
HETATM   16  C3  UNL     1      23.668   6.332  50.845  1.00  0.00     0.156 C 
HETATM   17  N1  UNL     1      24.136   6.663  49.493  1.00  0.00    -0.349 N 
HETATM   18  C2  UNL     1      23.710   7.764  48.704  1.00  0.00     0.215 C 
HETATM   19  C16 UNL     1      25.130   5.765  48.927  1.00  0.00     0.156 C 
HETATM   20  C1  UNL     1      22.695   8.624  49.364  1.00  0.00     0.117 C 
HETATM   21  O1  UNL     1      24.156   7.994  47.541  1.00  0.00    -0.274 OA
HETATM   22  C15 UNL     1      25.606   4.781  49.997  1.00  0.00     0.292 C 
ENDBRANCH   1  14
BRANCH   6  23
HETATM   23  C10 UNL     1      22.431  -1.251  53.205  1.00  0.00     0.262 C 
HETATM   24  F1  UNL     1      21.745  -2.094  54.063  1.00  0.00    -0.253 F 
ENDBRANCH   6  23
BRANCH   8  25
HETATM   25  N4  UNL     1      24.742  -1.764  55.709  1.00  0.00    -0.383 N 
HETATM   26  H17 UNL     1      24.148  -2.503  55.323  1.00  0.00     0.157 HD
HETATM   27  H18 UNL     1      24.994  -1.743  56.728  1.00  0.00     0.157 HD
ENDBRANCH   8  25
TORSDOF 3
ENDMDL
MODEL 8
REMARK VINA RESULT:      -7.3      4.350      5.922
REMARK  3 active torsions:
REMARK  status: ('A' for Active; 'I' for Inactive)
REMARK       I    between atoms: C2_2  and  N1_4 
REMARK    1  A    between atoms: N2_7  and  C5_8 
REMARK    2  A    between atoms: C9_13  and  C10_14 
REMARK    3  A    between atoms: C12_17  and  N4_18 
ROOT
HETATM    1  C5  UNL     1      24.462   2.717  50.761  1.00  0.00     0.228 C 
HETATM    2  C6  UNL     1      23.090   2.246  50.324  1.00  0.00     0.084 C 
HETATM    3  C7  UNL     1      22.680   2.355  51.778  1.00  0.00     0.207 C 
HETATM    4  C8  UNL     1      23.719   3.481  51.861  1.00  0.00     0.084 C 
HETATM    5  N3  UNL     1      21.332   2.759  52.045  1.00  0.00     0.111 N 
HETATM    6  C9  UNL     1      20.696   1.692  52.794  1.00  0.00     0.289 C 
HETATM    7  C11 UNL     1      21.796   0.811  53.216  1.00  0.00     0.050 A 
HETATM    8  C12 UNL     1      21.872  -0.277  54.055  1.00  0.00     0.133 A 
HETATM    9  N5  UNL     1      23.040  -0.930  54.279  1.00  0.00    -0.224 NA
HETATM   10  C13 UNL     1      24.193  -0.529  53.677  1.00  0.00     0.235 A 
HETATM   11  N6  UNL     1      24.132   0.548  52.843  1.00  0.00    -0.243 NA
HETATM   12  C14 UNL     1      22.980   1.192  52.620  1.00  0.00     0.087 A 
HETATM   13  H13 UNL     1      21.265   3.646  52.583  1.00  0.00     0.318 HD
ENDROOT
BRANCH   1  14
HETATM   14  N2  UNL     1      25.141   3.630  49.890  1.00  0.00     0.096 N 
HETATM   15  C4  UNL     1      24.473   4.911  49.837  1.00  0.00     0.292 C 
HETATM   16  C3  UNL     1      25.406   6.069  50.114  1.00  0.00     0.156 C 
HETATM   17  N1  UNL     1      26.466   5.959  49.104  1.00  0.00    -0.349 N 
HETATM   18  C2  UNL     1      26.954   7.009  48.282  1.00  0.00     0.215 C 
HETATM   19  C16 UNL     1      27.060   4.641  48.946  1.00  0.00     0.156 C 
HETATM   20  C1  UNL     1      26.289   8.317  48.515  1.00  0.00     0.117 C 
HETATM   21  O1  UNL     1      27.875   6.847  47.427  1.00  0.00    -0.274 OA
HETATM   22  C15 UNL     1      26.555   3.712  50.051  1.00  0.00     0.292 C 
ENDBRANCH   1  14
BRANCH   6  23
HETATM   23  C10 UNL     1      19.732   1.005  51.847  1.00  0.00     0.262 C 
HETATM   24  F1  UNL     1      20.444   0.114  51.061  1.00  0.00    -0.253 F 
ENDBRANCH   6  23
BRANCH   8  25
HETATM   25  N4  UNL     1      20.655  -0.704  54.694  1.00  0.00    -0.383 N 
HETATM   26  H17 UNL     1      19.788  -0.816  54.161  1.00  0.00     0.157 HD
HETATM   27  H18 UNL     1      20.691  -0.896  55.725  1.00  0.00     0.157 HD
ENDBRANCH   8  25
TORSDOF 3
ENDMDL
MODEL 9
REMARK VINA RESULT:      -7.3      3.939      7.765
REMARK  3 active torsions:
REMARK  status: ('A' for Active; 'I' for Inactive)
REMARK       I    between atoms: C2_2  and  N1_4 
REMARK    1  A    between atoms: N2_7  and  C5_8 
REMARK    2  A    between atoms: C9_13  and  C10_14 
REMARK    3  A    between atoms: C12_17  and  N4_18 
ROOT
HETATM    1  C5  UNL     1      24.854   3.283  50.474  1.00  0.00     0.228 C 
HETATM    2  C6  UNL     1      26.017   4.092  49.936  1.00  0.00     0.084 C 
HETATM    3  C7  UNL     1      25.115   5.304  50.042  1.00  0.00     0.207 C 
HETATM    4  C8  UNL     1      24.458   4.563  51.214  1.00  0.00     0.084 C 
HETATM    5  N3  UNL     1      25.734   6.548  50.388  1.00  0.00     0.111 N 
HETATM    6  C9  UNL     1      25.487   7.477  49.301  1.00  0.00     0.289 C 
HETATM    7  C11 UNL     1      24.454   6.834  48.475  1.00  0.00     0.050 A 
HETATM    8  C12 UNL     1      23.702   7.251  47.399  1.00  0.00     0.133 A 
HETATM    9  N5  UNL     1      22.792   6.441  46.803  1.00  0.00    -0.224 NA
HETATM   10  C13 UNL     1      22.586   5.171  47.249  1.00  0.00     0.235 A 
HETATM   11  N6  UNL     1      23.324   4.745  48.314  1.00  0.00    -0.243 NA
HETATM   12  C14 UNL     1      24.222   5.544  48.902  1.00  0.00     0.087 A 
HETATM   13  H13 UNL     1      25.379   6.955  51.276  1.00  0.00     0.318 HD
ENDROOT
BRANCH   1  14
HETATM   14  N2  UNL     1      25.166   2.242  51.408  1.00  0.00     0.096 N 
HETATM   15  C4  UNL     1      26.594   2.060  51.543  1.00  0.00     0.292 C 
HETATM   16  C3  UNL     1      27.053   2.097  52.984  1.00  0.00     0.156 C 
HETATM   17  N1  UNL     1      26.297   1.034  53.657  1.00  0.00    -0.349 N 
HETATM   18  C2  UNL     1      26.833   0.036  54.513  1.00  0.00     0.215 C 
HETATM   19  C16 UNL     1      24.864   1.018  53.409  1.00  0.00     0.156 C 
HETATM   20  C1  UNL     1      28.303   0.132  54.707  1.00  0.00     0.117 C 
HETATM   21  O1  UNL     1      26.123  -0.856  55.064  1.00  0.00    -0.274 OA
HETATM   22  C15 UNL     1      24.458   2.279  52.644  1.00  0.00     0.292 C 
ENDBRANCH   1  14
BRANCH   6  23
HETATM   23  C10 UNL     1      26.799   7.647  48.561  1.00  0.00     0.262 C 
HETATM   24  F1  UNL     1      26.985   6.552  47.734  1.00  0.00    -0.253 F 
ENDBRANCH   6  23
BRANCH   8  25
HETATM   25  N4  UNL     1      23.918   8.592  46.925  1.00  0.00    -0.383 N 
HETATM   26  H17 UNL     1      23.193   9.310  47.018  1.00  0.00     0.157 HD
HETATM   27  H18 UNL     1      24.843   8.806  46.480  1.00  0.00     0.157 HD
ENDBRANCH   8  25
TORSDOF 3
ENDMDL
