MODEL 1
REMARK VINA RESULT:      -8.3      0.000      0.000
REMARK  7 active torsions:
REMARK  status: ('A' for Active; 'I' for Inactive)
REMARK    1  A    between atoms: O1_1  and  C1_2 
REMARK    2  A    between atoms: C1_2  and  N1_3 
REMARK    3  A    between atoms: C2_5  and  O2_6 
REMARK    4  A    between atoms: O2_6  and  C3_7 
REMARK    5  A    between atoms: C6_10  and  O3_11 
REMARK    6  A    between atoms: C10_15  and  C11_16 
REMARK    7  A    between atoms: C14_19  and  C15_20 
ROOT
HETATM    1  N1  UNL     1      23.401   2.791  51.977  1.00  0.00    -0.271 N 
HETATM    2  N2  UNL     1      24.818   2.860  52.014  1.00  0.00    -0.153 NA
HETATM    3  C2  UNL     1      25.342   1.827  52.577  1.00  0.00     0.167 C 
HETATM    4  C9  UNL     1      24.193   0.939  52.982  1.00  0.00     0.120 C 
HETATM    5  C10 UNL     1      23.238   1.364  51.875  1.00  0.00     0.147 C 
ENDROOT
BRANCH   3   6
HETATM    6  O2  UNL     1      26.730   1.706  52.711  1.00  0.00    -0.294 OA
BRANCH   6   7
HETATM    7  C3  UNL     1      27.341   0.475  52.911  1.00  0.00     0.077 A 
HETATM    8  C4  UNL     1      28.558   0.156  53.479  1.00  0.00     0.040 A 
HETATM    9  C5  UNL     1      28.947  -1.160  53.564  1.00  0.00     0.039 A 
HETATM   10  C6  UNL     1      28.139  -2.187  53.089  1.00  0.00     0.065 A 
HETATM   11  C7  UNL     1      26.926  -1.876  52.523  1.00  0.00     0.039 A 
HETATM   12  C8  UNL     1      26.541  -0.548  52.440  1.00  0.00     0.040 A 
BRANCH  10  13
HETATM   13  O3  UNL     1      28.638  -3.475  53.231  1.00  0.00    -0.361 OA
HETATM   14  H6  UNL     1      28.978  -3.773  54.152  1.00  0.00     0.217 HD
ENDBRANCH  10  13
ENDBRANCH   6   7
ENDBRANCH   3   6
BRANCH   1  15
HETATM   15  C1  UNL     1      22.630   4.024  52.040  1.00  0.00     0.310 C 
BRANCH  15  16
HETATM   16  O1  UNL     1      23.205   4.946  52.905  1.00  0.00    -0.381 OA
HETATM   17  H1  UNL     1      24.005   5.381  52.512  1.00  0.00     0.211 HD
ENDBRANCH  15  16
ENDBRANCH   1  15
BRANCH   5  18
HETATM   18  C11 UNL     1      21.902   0.837  52.077  1.00  0.00    -0.033 A 
HETATM   19  C12 UNL     1      21.599   0.348  53.356  1.00  0.00     0.010 A 
HETATM   20  C13 UNL     1      20.376  -0.187  53.683  1.00  0.00     0.009 A 
HETATM   21  C14 UNL     1      19.384  -0.265  52.749  1.00  0.00    -0.044 A 
HETATM   22  C16 UNL     1      19.626   0.195  51.492  1.00  0.00     0.009 A 
HETATM   23  C17 UNL     1      20.861   0.728  51.187  1.00  0.00     0.010 A 
BRANCH  21  24
HETATM   24  C15 UNL     1      18.028  -0.824  52.992  1.00  0.00     0.153 C 
HETATM   25 CL1  UNL     1      18.262  -2.435  53.729  1.00  0.00    -0.126 Cl
ENDBRANCH  21  24
ENDBRANCH   5  18
TORSDOF 7
ENDMDL
MODEL 2
REMARK VINA RESULT:      -8.2      5.031      7.268
REMARK  7 active torsions:
REMARK  status: ('A' for Active; 'I' for Inactive)
REMARK    1  A    between atoms: O1_1  and  C1_2 
REMARK    2  A    between atoms: C1_2  and  N1_3 
REMARK    3  A    between atoms: C2_5  and  O2_6 
REMARK    4  A    between atoms: O2_6  and  C3_7 
REMARK    5  A    between atoms: C6_10  and  O3_11 
REMARK    6  A    between atoms: C10_15  and  C11_16 
REMARK    7  A    between atoms: C14_19  and  C15_20 
ROOT
HETATM    1  N1  UNL     1      23.896   4.613  51.356  1.00  0.00    -0.271 N 
HETATM    2  N2  UNL     1      23.166   3.473  51.780  1.00  0.00    -0.153 NA
HETATM    3  C2  UNL     1      23.261   2.495  50.948  1.00  0.00     0.167 C 
HETATM    4  C9  UNL     1      24.141   2.982  49.824  1.00  0.00     0.120 C 
HETATM    5  C10 UNL     1      24.968   3.957  50.651  1.00  0.00     0.147 C 
ENDROOT
BRANCH   3   6
HETATM    6  O2  UNL     1      22.610   1.279  51.187  1.00  0.00    -0.294 OA
BRANCH   6   7
HETATM    7  C3  UNL     1      22.861   0.528  52.328  1.00  0.00     0.077 A 
HETATM    8  C4  UNL     1      24.051   0.195  52.943  1.00  0.00     0.040 A 
HETATM    9  C5  UNL     1      24.037  -0.573  54.082  1.00  0.00     0.039 A 
HETATM   10  C6  UNL     1      22.847  -1.027  54.638  1.00  0.00     0.065 A 
HETATM   11  C7  UNL     1      21.658  -0.698  54.031  1.00  0.00     0.039 A 
HETATM   12  C8  UNL     1      21.679   0.076  52.882  1.00  0.00     0.040 A 
BRANCH  10  13
HETATM   13  O3  UNL     1      22.960  -1.794  55.790  1.00  0.00    -0.361 OA
HETATM   14  H6  UNL     1      22.906  -2.815  55.710  1.00  0.00     0.217 HD
ENDBRANCH  10  13
ENDBRANCH   6   7
ENDBRANCH   3   6
BRANCH   1  15
HETATM   15  C1  UNL     1      23.414   5.939  51.715  1.00  0.00     0.310 C 
BRANCH  15  16
HETATM   16  O1  UNL     1      24.310   6.604  52.541  1.00  0.00    -0.381 OA
HETATM   17  H1  UNL     1      24.337   7.579  52.360  1.00  0.00     0.211 HD
ENDBRANCH  15  16
ENDBRANCH   1  15
BRANCH   5  18
HETATM   18  C11 UNL     1      25.819   4.788  49.822  1.00  0.00    -0.033 A 
HETATM   19  C12 UNL     1      27.013   4.215  49.363  1.00  0.00     0.010 A 
HETATM   20  C13 UNL     1      27.916   4.893  48.578  1.00  0.00     0.009 A 
HETATM   21  C14 UNL     1      27.676   6.184  48.207  1.00  0.00    -0.044 A 
HETATM   22  C16 UNL     1      26.532   6.788  48.627  1.00  0.00     0.009 A 
HETATM   23  C17 UNL     1      25.641   6.088  49.414  1.00  0.00     0.010 A 
BRANCH  21  24
HETATM   24  C15 UNL     1      28.581   7.009  47.364  1.00  0.00     0.153 C 
HETATM   25 CL1  UNL     1      30.222   6.325  47.552  1.00  0.00    -0.126 Cl
ENDBRANCH  21  24
ENDBRANCH   5  18
TORSDOF 7
ENDMDL
MODEL 3
REMARK VINA RESULT:      -8.0      2.882      3.084
REMARK  7 active torsions:
REMARK  status: ('A' for Active; 'I' for Inactive)
REMARK    1  A    between atoms: O1_1  and  C1_2 
REMARK    2  A    between atoms: C1_2  and  N1_3 
REMARK    3  A    between atoms: C2_5  and  O2_6 
REMARK    4  A    between atoms: O2_6  and  C3_7 
REMARK    5  A    between atoms: C6_10  and  O3_11 
REMARK    6  A    between atoms: C10_15  and  C11_16 
REMARK    7  A    between atoms: C14_19  and  C15_20 
ROOT
HETATM    1  N1  UNL     1      25.777   3.139  50.655  1.00  0.00    -0.271 N 
HETATM    2  N2  UNL     1      26.998   2.702  51.229  1.00  0.00    -0.153 NA
HETATM    3  C2  UNL     1      26.847   2.276  52.435  1.00  0.00     0.167 C 
HETATM    4  C9  UNL     1      25.380   2.423  52.752  1.00  0.00     0.120 C 
HETATM    5  C10 UNL     1      24.869   2.246  51.329  1.00  0.00     0.147 C 
ENDROOT
BRANCH   3   6
HETATM    6  O2  UNL     1      27.936   1.802  53.174  1.00  0.00    -0.294 OA
BRANCH   6   7
HETATM    7  C3  UNL     1      28.266   0.453  53.207  1.00  0.00     0.077 A 
HETATM    8  C4  UNL     1      29.449  -0.176  53.540  1.00  0.00     0.040 A 
HETATM    9  C5  UNL     1      29.528  -1.547  53.493  1.00  0.00     0.039 A 
HETATM   10  C6  UNL     1      28.439  -2.325  53.115  1.00  0.00     0.065 A 
HETATM   11  C7  UNL     1      27.259  -1.704  52.782  1.00  0.00     0.039 A 
HETATM   12  C8  UNL     1      27.186  -0.321  52.831  1.00  0.00     0.040 A 
BRANCH  10  13
HETATM   13  O3  UNL     1      28.639  -3.699  53.106  1.00  0.00    -0.361 OA
HETATM   14  H6  UNL     1      29.584  -4.058  52.935  1.00  0.00     0.217 HD
ENDBRANCH  10  13
ENDBRANCH   6   7
ENDBRANCH   3   6
BRANCH   1  15
HETATM   15  C1  UNL     1      25.798   4.217  49.677  1.00  0.00     0.310 C 
BRANCH  15  16
HETATM   16  O1  UNL     1      27.058   4.791  49.573  1.00  0.00    -0.381 OA
HETATM   17  H1  UNL     1      27.449   5.003  50.460  1.00  0.00     0.211 HD
ENDBRANCH  15  16
ENDBRANCH   1  15
BRANCH   5  18
HETATM   18  C11 UNL     1      23.453   2.539  51.218  1.00  0.00    -0.033 A 
HETATM   19  C12 UNL     1      22.920   3.452  52.140  1.00  0.00     0.010 A 
HETATM   20  C13 UNL     1      21.594   3.812  52.155  1.00  0.00     0.009 A 
HETATM   21  C14 UNL     1      20.722   3.281  51.249  1.00  0.00    -0.044 A 
HETATM   22  C16 UNL     1      21.189   2.389  50.333  1.00  0.00     0.009 A 
HETATM   23  C17 UNL     1      22.523   2.042  50.337  1.00  0.00     0.010 A 
BRANCH  21  24
HETATM   24  C15 UNL     1      19.273   3.598  51.175  1.00  0.00     0.153 C 
HETATM   25 CL1  UNL     1      18.846   3.653  49.440  1.00  0.00    -0.126 Cl
ENDBRANCH  21  24
ENDBRANCH   5  18
TORSDOF 7
ENDMDL
MODEL 4
REMARK VINA RESULT:      -8.0      3.195      7.108
REMARK  7 active torsions:
REMARK  status: ('A' for Active; 'I' for Inactive)
REMARK    1  A    between atoms: O1_1  and  C1_2 
REMARK    2  A    between atoms: C1_2  and  N1_3 
REMARK    3  A    between atoms: C2_5  and  O2_6 
REMARK    4  A    between atoms: O2_6  and  C3_7 
REMARK    5  A    between atoms: C6_10  and  O3_11 
REMARK    6  A    between atoms: C10_15  and  C11_16 
REMARK    7  A    between atoms: C14_19  and  C15_20 
ROOT
HETATM    1  N1  UNL     1      25.193   2.907  51.090  1.00  0.00    -0.271 N 
HETATM    2  N2  UNL     1      23.818   3.249  51.031  1.00  0.00    -0.153 NA
HETATM    3  C2  UNL     1      23.080   2.424  51.688  1.00  0.00     0.167 C 
HETATM    4  C9  UNL     1      24.015   1.395  52.271  1.00  0.00     0.120 C 
HETATM    5  C10 UNL     1      25.229   2.306  52.399  1.00  0.00     0.147 C 
ENDROOT
BRANCH   3   6
HETATM    6  O2  UNL     1      21.692   2.591  51.751  1.00  0.00    -0.294 OA
BRANCH   6   7
HETATM    7  C3  UNL     1      20.846   1.548  52.107  1.00  0.00     0.077 A 
HETATM    8  C4  UNL     1      19.869   0.895  51.382  1.00  0.00     0.040 A 
HETATM    9  C5  UNL     1      19.154  -0.123  51.967  1.00  0.00     0.039 A 
HETATM   10  C6  UNL     1      19.390  -0.516  53.280  1.00  0.00     0.065 A 
HETATM   11  C7  UNL     1      20.361   0.131  54.006  1.00  0.00     0.039 A 
HETATM   12  C8  UNL     1      21.078   1.157  53.411  1.00  0.00     0.040 A 
BRANCH  10  13
HETATM   13  O3  UNL     1      18.605  -1.556  53.760  1.00  0.00    -0.361 OA
HETATM   14  H6  UNL     1      17.595  -1.405  53.863  1.00  0.00     0.217 HD
ENDBRANCH  10  13
ENDBRANCH   6   7
ENDBRANCH   3   6
BRANCH   1  15
HETATM   15  C1  UNL     1      26.053   3.227  49.960  1.00  0.00     0.310 C 
BRANCH  15  16
HETATM   16  O1  UNL     1      27.150   3.985  50.348  1.00  0.00    -0.381 OA
HETATM   17  H1  UNL     1      27.480   3.735  51.250  1.00  0.00     0.211 HD
ENDBRANCH  15  16
ENDBRANCH   1  15
BRANCH   5  18
HETATM   18  C11 UNL     1      26.427   1.570  52.754  1.00  0.00    -0.033 A 
HETATM   19  C12 UNL     1      26.415   0.187  52.520  1.00  0.00     0.010 A 
HETATM   20  C13 UNL     1      27.478  -0.632  52.818  1.00  0.00     0.009 A 
HETATM   21  C14 UNL     1      28.616  -0.115  53.368  1.00  0.00    -0.044 A 
HETATM   22  C16 UNL     1      28.678   1.221  53.615  1.00  0.00     0.009 A 
HETATM   23  C17 UNL     1      27.600   2.023  53.308  1.00  0.00     0.010 A 
BRANCH  21  24
HETATM   24  C15 UNL     1      29.821  -0.906  53.729  1.00  0.00     0.153 C 
HETATM   25 CL1  UNL     1      29.434  -2.617  53.385  1.00  0.00    -0.126 Cl
ENDBRANCH  21  24
ENDBRANCH   5  18
TORSDOF 7
ENDMDL
MODEL 5
REMARK VINA RESULT:      -7.9      4.363      7.190
REMARK  7 active torsions:
REMARK  status: ('A' for Active; 'I' for Inactive)
REMARK    1  A    between atoms: O1_1  and  C1_2 
REMARK    2  A    between atoms: C1_2  and  N1_3 
REMARK    3  A    between atoms: C2_5  and  O2_6 
REMARK    4  A    between atoms: O2_6  and  C3_7 
REMARK    5  A    between atoms: C6_10  and  O3_11 
REMARK    6  A    between atoms: C10_15  and  C11_16 
REMARK    7  A    between atoms: C14_19  and  C15_20 
ROOT
HETATM    1  N1  UNL     1      26.766   1.798  52.261  1.00  0.00    -0.271 N 
HETATM    2  N2  UNL     1      26.222   0.609  52.813  1.00  0.00    -0.153 NA
HETATM    3  C2  UNL     1      24.940   0.557  52.694  1.00  0.00     0.167 C 
HETATM    4  C9  UNL     1      24.531   1.828  51.992  1.00  0.00     0.120 C 
HETATM    5  C10 UNL     1      25.818   2.019  51.200  1.00  0.00     0.147 C 
ENDROOT
BRANCH   3   6
HETATM    6  O2  UNL     1      24.215  -0.538  53.177  1.00  0.00    -0.294 OA
BRANCH   6   7
HETATM    7  C3  UNL     1      22.826  -0.546  53.192  1.00  0.00     0.077 A 
HETATM    8  C4  UNL     1      21.915   0.017  52.322  1.00  0.00     0.040 A 
HETATM    9  C5  UNL     1      20.568  -0.132  52.556  1.00  0.00     0.039 A 
HETATM   10  C6  UNL     1      20.096  -0.842  53.654  1.00  0.00     0.065 A 
HETATM   11  C7  UNL     1      20.999  -1.406  54.523  1.00  0.00     0.039 A 
HETATM   12  C8  UNL     1      22.355  -1.251  54.283  1.00  0.00     0.040 A 
BRANCH  10  13
HETATM   13  O3  UNL     1      18.716  -0.926  53.785  1.00  0.00    -0.361 OA
HETATM   14  H6  UNL     1      18.156  -1.160  52.957  1.00  0.00     0.217 HD
ENDBRANCH  10  13
ENDBRANCH   6   7
ENDBRANCH   3   6
BRANCH   1  15
HETATM   15  C1  UNL     1      27.969   2.367  52.850  1.00  0.00     0.310 C 
BRANCH  15  16
HETATM   16  O1  UNL     1      27.741   2.830  54.139  1.00  0.00    -0.381 OA
HETATM   17  H1  UNL     1      27.822   2.111  54.817  1.00  0.00     0.211 HD
ENDBRANCH  15  16
ENDBRANCH   1  15
BRANCH   5  18
HETATM   18  C11 UNL     1      25.861   3.307  50.535  1.00  0.00    -0.033 A 
HETATM   19  C12 UNL     1      26.877   3.498  49.588  1.00  0.00     0.010 A 
HETATM   20  C13 UNL     1      27.040   4.672  48.892  1.00  0.00     0.009 A 
HETATM   21  C14 UNL     1      26.196   5.723  49.102  1.00  0.00    -0.044 A 
HETATM   22  C16 UNL     1      25.193   5.590  50.011  1.00  0.00     0.009 A 
HETATM   23  C17 UNL     1      25.048   4.403  50.698  1.00  0.00     0.010 A 
BRANCH  21  24
HETATM   24  C15 UNL     1      26.280   7.034  48.407  1.00  0.00     0.153 C 
HETATM   25 CL1  UNL     1      27.137   8.147  49.512  1.00  0.00    -0.126 Cl
ENDBRANCH  21  24
ENDBRANCH   5  18
TORSDOF 7
ENDMDL
MODEL 6
REMARK VINA RESULT:      -7.8      3.573      4.448
REMARK  7 active torsions:
REMARK  status: ('A' for Active; 'I' for Inactive)
REMARK    1  A    between atoms: O1_1  and  C1_2 
REMARK    2  A    between atoms: C1_2  and  N1_3 
REMARK    3  A    between atoms: C2_5  and  O2_6 
REMARK    4  A    between atoms: O2_6  and  C3_7 
REMARK    5  A    between atoms: C6_10  and  O3_11 
REMARK    6  A    between atoms: C10_15  and  C11_16 
REMARK    7  A    between atoms: C14_19  and  C15_20 
ROOT
HETATM    1  N1  UNL     1      23.706   3.428  52.094  1.00  0.00    -0.271 N 
HETATM    2  N2  UNL     1      24.244   2.590  53.104  1.00  0.00    -0.153 NA
HETATM    3  C2  UNL     1      24.099   1.340  52.830  1.00  0.00     0.167 C 
HETATM    4  C9  UNL     1      23.390   1.280  51.500  1.00  0.00     0.120 C 
HETATM    5  C10 UNL     1      23.935   2.589  50.946  1.00  0.00     0.147 C 
ENDROOT
BRANCH   3   6
HETATM    6  O2  UNL     1      24.564   0.352  53.705  1.00  0.00    -0.294 OA
BRANCH   6   7
HETATM    7  C3  UNL     1      25.920   0.097  53.866  1.00  0.00     0.077 A 
HETATM    8  C4  UNL     1      26.810   0.537  54.824  1.00  0.00     0.040 A 
HETATM    9  C5  UNL     1      28.125   0.140  54.767  1.00  0.00     0.039 A 
HETATM   10  C6  UNL     1      28.586  -0.701  53.760  1.00  0.00     0.065 A 
HETATM   11  C7  UNL     1      27.705  -1.142  52.803  1.00  0.00     0.039 A 
HETATM   12  C8  UNL     1      26.381  -0.738  52.866  1.00  0.00     0.040 A 
BRANCH  10  13
HETATM   13  O3  UNL     1      29.933  -1.034  53.807  1.00  0.00    -0.361 OA
HETATM   14  H6  UNL     1      30.335  -1.339  54.700  1.00  0.00     0.217 HD
ENDBRANCH  10  13
ENDBRANCH   6   7
ENDBRANCH   3   6
BRANCH   1  15
HETATM   15  C1  UNL     1      23.158   4.724  52.465  1.00  0.00     0.310 C 
BRANCH  15  16
HETATM   16  O1  UNL     1      23.918   5.340  53.450  1.00  0.00    -0.381 OA
HETATM   17  H1  UNL     1      23.611   6.264  53.640  1.00  0.00     0.211 HD
ENDBRANCH  15  16
ENDBRANCH   1  15
BRANCH   5  18
HETATM   18  C11 UNL     1      23.281   2.970  49.709  1.00  0.00    -0.033 A 
HETATM   19  C12 UNL     1      22.463   2.007  49.100  1.00  0.00     0.010 A 
HETATM   20  C13 UNL     1      21.792   2.232  47.922  1.00  0.00     0.009 A 
HETATM   21  C14 UNL     1      21.899   3.433  47.283  1.00  0.00    -0.044 A 
HETATM   22  C16 UNL     1      22.680   4.402  47.832  1.00  0.00     0.009 A 
HETATM   23  C17 UNL     1      23.345   4.155  49.015  1.00  0.00     0.010 A 
BRANCH  21  24
HETATM   24  C15 UNL     1      21.220   3.782  46.009  1.00  0.00     0.153 C 
HETATM   25 CL1  UNL     1      22.199   5.065  45.240  1.00  0.00    -0.126 Cl
ENDBRANCH  21  24
ENDBRANCH   5  18
TORSDOF 7
ENDMDL
MODEL 7
REMARK VINA RESULT:      -7.8      3.890      7.893
REMARK  7 active torsions:
REMARK  status: ('A' for Active; 'I' for Inactive)
REMARK    1  A    between atoms: O1_1  and  C1_2 
REMARK    2  A    between atoms: C1_2  and  N1_3 
REMARK    3  A    between atoms: C2_5  and  O2_6 
REMARK    4  A    between atoms: O2_6  and  C3_7 
REMARK    5  A    between atoms: C6_10  and  O3_11 
REMARK    6  A    between atoms: C10_15  and  C11_16 
REMARK    7  A    between atoms: C14_19  and  C15_20 
ROOT
HETATM    1  N1  UNL     1      22.952  -0.401  53.962  1.00  0.00    -0.271 N 
HETATM    2  N2  UNL     1      21.663   0.067  53.600  1.00  0.00    -0.153 NA
HETATM    3  C2  UNL     1      21.701   1.233  53.054  1.00  0.00     0.167 C 
HETATM    4  C9  UNL     1      23.155   1.636  53.026  1.00  0.00     0.120 C 
HETATM    5  C10 UNL     1      23.730   0.230  52.927  1.00  0.00     0.147 C 
ENDROOT
BRANCH   3   6
HETATM    6  O2  UNL     1      20.530   1.868  52.626  1.00  0.00    -0.294 OA
BRANCH   6   7
HETATM    7  C3  UNL     1      19.558   1.195  51.898  1.00  0.00     0.077 A 
HETATM    8  C4  UNL     1      18.780   0.105  52.229  1.00  0.00     0.040 A 
HETATM    9  C5  UNL     1      17.873  -0.386  51.320  1.00  0.00     0.039 A 
HETATM   10  C6  UNL     1      17.717   0.192  50.065  1.00  0.00     0.065 A 
HETATM   11  C7  UNL     1      18.489   1.278  49.730  1.00  0.00     0.039 A 
HETATM   12  C8  UNL     1      19.402   1.767  50.650  1.00  0.00     0.040 A 
BRANCH  10  13
HETATM   13  O3  UNL     1      16.769  -0.391  49.234  1.00  0.00    -0.361 OA
HETATM   14  H6  UNL     1      15.785  -0.126  49.347  1.00  0.00     0.217 HD
ENDBRANCH  10  13
ENDBRANCH   6   7
ENDBRANCH   3   6
BRANCH   1  15
HETATM   15  C1  UNL     1      23.091  -1.272  55.120  1.00  0.00     0.310 C 
BRANCH  15  16
HETATM   16  O1  UNL     1      21.988  -2.102  55.272  1.00  0.00    -0.381 OA
HETATM   17  H1  UNL     1      21.487  -2.222  54.425  1.00  0.00     0.211 HD
ENDBRANCH  15  16
ENDBRANCH   1  15
BRANCH   5  18
HETATM   18  C11 UNL     1      25.171   0.220  53.087  1.00  0.00    -0.033 A 
HETATM   19  C12 UNL     1      25.767   1.401  53.551  1.00  0.00     0.010 A 
HETATM   20  C13 UNL     1      27.122   1.533  53.738  1.00  0.00     0.009 A 
HETATM   21  C14 UNL     1      27.961   0.489  53.472  1.00  0.00    -0.044 A 
HETATM   22  C16 UNL     1      27.434  -0.680  53.019  1.00  0.00     0.009 A 
HETATM   23  C17 UNL     1      26.071  -0.789  52.838  1.00  0.00     0.010 A 
BRANCH  21  24
HETATM   24  C15 UNL     1      29.438   0.522  53.638  1.00  0.00     0.153 C 
HETATM   25 CL1  UNL     1      29.981  -1.178  53.738  1.00  0.00    -0.126 Cl
ENDBRANCH  21  24
ENDBRANCH   5  18
TORSDOF 7
ENDMDL
MODEL 8
REMARK VINA RESULT:      -7.7      3.535      7.366
REMARK  7 active torsions:
REMARK  status: ('A' for Active; 'I' for Inactive)
REMARK    1  A    between atoms: O1_1  and  C1_2 
REMARK    2  A    between atoms: C1_2  and  N1_3 
REMARK    3  A    between atoms: C2_5  and  O2_6 
REMARK    4  A    between atoms: O2_6  and  C3_7 
REMARK    5  A    between atoms: C6_10  and  O3_11 
REMARK    6  A    between atoms: C10_15  and  C11_16 
REMARK    7  A    between atoms: C14_19  and  C15_20 
ROOT
HETATM    1  N1  UNL     1      22.707   2.616  52.397  1.00  0.00    -0.271 N 
HETATM    2  N2  UNL     1      21.309   2.631  52.157  1.00  0.00    -0.153 NA
HETATM    3  C2  UNL     1      20.889   1.525  51.649  1.00  0.00     0.167 C 
HETATM    4  C9  UNL     1      22.100   0.636  51.513  1.00  0.00     0.120 C 
HETATM    5  C10 UNL     1      22.880   1.215  52.685  1.00  0.00     0.147 C 
ENDROOT
BRANCH   3   6
HETATM    6  O2  UNL     1      19.536   1.342  51.338  1.00  0.00    -0.294 OA
BRANCH   6   7
HETATM    7  C3  UNL     1      18.786   0.324  51.911  1.00  0.00     0.077 A 
HETATM    8  C4  UNL     1      19.061  -0.503  52.981  1.00  0.00     0.040 A 
HETATM    9  C5  UNL     1      18.142  -1.452  53.362  1.00  0.00     0.039 A 
HETATM   10  C6  UNL     1      16.931  -1.601  52.694  1.00  0.00     0.065 A 
HETATM   11  C7  UNL     1      16.652  -0.780  51.628  1.00  0.00     0.039 A 
HETATM   12  C8  UNL     1      17.583   0.174  51.248  1.00  0.00     0.040 A 
BRANCH  10  13
HETATM   13  O3  UNL     1      16.084  -2.591  53.172  1.00  0.00    -0.361 OA
HETATM   14  H6  UNL     1      15.550  -2.412  54.029  1.00  0.00     0.217 HD
ENDBRANCH  10  13
ENDBRANCH   6   7
ENDBRANCH   3   6
BRANCH   1  15
HETATM   15  C1  UNL     1      23.457   3.859  52.300  1.00  0.00     0.310 C 
BRANCH  15  16
HETATM   16  O1  UNL     1      24.242   4.075  53.426  1.00  0.00    -0.381 OA
HETATM   17  H1  UNL     1      24.329   5.038  53.645  1.00  0.00     0.211 HD
ENDBRANCH  15  16
ENDBRANCH   1  15
BRANCH   5  18
HETATM   18  C11 UNL     1      24.240   0.715  52.734  1.00  0.00    -0.033 A 
HETATM   19  C12 UNL     1      24.535  -0.229  53.728  1.00  0.00     0.010 A 
HETATM   20  C13 UNL     1      25.784  -0.777  53.893  1.00  0.00     0.009 A 
HETATM   21  C14 UNL     1      26.813  -0.414  53.072  1.00  0.00    -0.044 A 
HETATM   22  C16 UNL     1      26.580   0.498  52.091  1.00  0.00     0.009 A 
HETATM   23  C17 UNL     1      25.319   1.036  51.944  1.00  0.00     0.010 A 
BRANCH  21  24
HETATM   24  C15 UNL     1      28.199  -0.942  53.161  1.00  0.00     0.153 C 
HETATM   25 CL1  UNL     1      28.980  -0.107  54.535  1.00  0.00    -0.126 Cl
ENDBRANCH  21  24
ENDBRANCH   5  18
TORSDOF 7
ENDMDL
MODEL 9
REMARK VINA RESULT:      -7.7      5.569      7.456
REMARK  7 active torsions:
REMARK  status: ('A' for Active; 'I' for Inactive)
REMARK    1  A    between atoms: O1_1  and  C1_2 
REMARK    2  A    between atoms: C1_2  and  N1_3 
REMARK    3  A    between atoms: C2_5  and  O2_6 
REMARK    4  A    between atoms: O2_6  and  C3_7 
REMARK    5  A    between atoms: C6_10  and  O3_11 
REMARK    6  A    between atoms: C10_15  and  C11_16 
REMARK    7  A    between atoms: C14_19  and  C15_20 
ROOT
HETATM    1  N1  UNL     1      24.164   4.217  49.373  1.00  0.00    -0.271 N 
HETATM    2  N2  UNL     1      23.746   3.186  50.252  1.00  0.00    -0.153 NA
HETATM    3  C2  UNL     1      24.734   2.484  50.688  1.00  0.00     0.167 C 
HETATM    4  C9  UNL     1      25.975   3.068  50.060  1.00  0.00     0.120 C 
HETATM    5  C10 UNL     1      25.460   4.496  49.939  1.00  0.00     0.147 C 
ENDROOT
BRANCH   3   6
HETATM    6  O2  UNL     1      24.527   1.415  51.568  1.00  0.00    -0.294 OA
BRANCH   6   7
HETATM    7  C3  UNL     1      25.565   0.869  52.311  1.00  0.00     0.077 A 
HETATM    8  C4  UNL     1      26.497  -0.094  51.982  1.00  0.00     0.040 A 
HETATM    9  C5  UNL     1      27.441  -0.473  52.907  1.00  0.00     0.039 A 
HETATM   10  C6  UNL     1      27.482   0.093  54.176  1.00  0.00     0.065 A 
HETATM   11  C7  UNL     1      26.557   1.053  54.510  1.00  0.00     0.039 A 
HETATM   12  C8  UNL     1      25.608   1.430  53.573  1.00  0.00     0.040 A 
BRANCH  10  13
HETATM   13  O3  UNL     1      28.481  -0.369  55.023  1.00  0.00    -0.361 OA
HETATM   14  H6  UNL     1      28.777  -1.348  54.947  1.00  0.00     0.217 HD
ENDBRANCH  10  13
ENDBRANCH   6   7
ENDBRANCH   3   6
BRANCH   1  15
HETATM   15  C1  UNL     1      23.275   4.640  48.301  1.00  0.00     0.310 C 
BRANCH  15  16
HETATM   16  O1  UNL     1      22.443   3.608  47.888  1.00  0.00    -0.381 OA
HETATM   17  H1  UNL     1      22.182   3.012  48.637  1.00  0.00     0.211 HD
ENDBRANCH  15  16
ENDBRANCH   1  15
BRANCH   5  18
HETATM   18  C11 UNL     1      26.353   5.332  49.161  1.00  0.00    -0.033 A 
HETATM   19  C12 UNL     1      27.624   4.813  48.878  1.00  0.00     0.010 A 
HETATM   20  C13 UNL     1      28.572   5.502  48.160  1.00  0.00     0.009 A 
HETATM   21  C14 UNL     1      28.303   6.752  47.681  1.00  0.00    -0.044 A 
HETATM   22  C16 UNL     1      27.084   7.302  47.927  1.00  0.00     0.009 A 
HETATM   23  C17 UNL     1      26.148   6.592  48.651  1.00  0.00     0.010 A 
BRANCH  21  24
HETATM   24  C15 UNL     1      29.251   7.583  46.895  1.00  0.00     0.153 C 
HETATM   25 CL1  UNL     1      30.184   8.551  48.074  1.00  0.00    -0.126 Cl
ENDBRANCH  21  24
ENDBRANCH   5  18
TORSDOF 7
ENDMDL
