MODEL 1
REMARK VINA RESULT:      -7.5      0.000      0.000
REMARK  4 active torsions:
REMARK  status: ('A' for Active; 'I' for Inactive)
REMARK    1  A    between atoms: O1_2  and  C2_3 
REMARK    2  A    between atoms: C3_4  and  C4_5 
REMARK    3  A    between atoms: C9_11  and  O3_12 
REMARK    4  A    between atoms: C14_19  and  N3_20 
ROOT
HETATM    1  C2  UNL     1      22.424   3.501  51.708  1.00  0.00     0.134 A 
HETATM    2  C3  UNL     1      21.217   3.126  51.201  1.00  0.00     0.074 A 
HETATM    3  C4  UNL     1      20.864   2.002  50.542  1.00  0.00    -0.015 A 
HETATM    4  C5  UNL     1      21.054   0.771  49.965  1.00  0.00     0.009 A 
HETATM    5  C6  UNL     1      22.244   1.157  50.482  1.00  0.00     0.039 A 
HETATM    6  C7  UNL     1      22.574   2.292  51.144  1.00  0.00     0.108 A 
HETATM    7  O2  UNL     1      23.972   1.802  51.412  1.00  0.00    -0.373 OA
HETATM    8  C8  UNL     1      23.735   0.985  52.502  1.00  0.00     0.205 C 
HETATM    9  C9  UNL     1      24.527   0.135  53.331  1.00  0.00     0.168 C 
HETATM   10  C11 UNL     1      23.390  -0.526  54.213  1.00  0.00     0.024 C 
HETATM   11  C12 UNL     1      22.090  -0.163  54.124  1.00  0.00     0.088 C 
HETATM   12  N1  UNL     1      21.050   0.599  53.592  1.00  0.00    -0.350 N 
HETATM   13  C13 UNL     1      19.876   0.271  52.856  1.00  0.00     0.154 A 
HETATM   14  N2  UNL     1      19.380  -0.772  53.545  1.00  0.00    -0.045 NA
HETATM   15  C14 UNL     1      18.246  -1.449  53.253  1.00  0.00     0.721 A 
HETATM   16  N4  UNL     1      17.491  -1.100  52.185  1.00  0.00    -0.075 NA
HETATM   17  C15 UNL     1      18.016  -0.048  51.511  1.00  0.00     0.147 A 
HETATM   18  C16 UNL     1      19.163   0.709  51.727  1.00  0.00     0.007 A 
HETATM   19  C17 UNL     1      19.411   1.809  50.732  1.00  0.00     0.055 C 
HETATM   20  H15 UNL     1      20.883   1.626  53.623  1.00  0.00     0.166 HD
ENDROOT
BRANCH  15  21
HETATM   21  N3  UNL     1      17.705  -2.569  53.986  1.00  0.00    -0.231 N 
HETATM   22  H16 UNL     1      17.513  -2.457  55.010  1.00  0.00     0.174 HD
HETATM   23  H17 UNL     1      17.485  -3.503  53.565  1.00  0.00     0.174 HD
ENDBRANCH  15  21
BRANCH   9  24
HETATM   24  O3  UNL     1      25.241  -0.906  52.767  1.00  0.00    -0.385 OA
HETATM   25  C10 UNL     1      26.561  -0.491  52.480  1.00  0.00     0.202 C 
ENDBRANCH   9  24
BRANCH   1  26
HETATM   26  O1  UNL     1      23.420   4.205  52.322  1.00  0.00    -0.378 OA
HETATM   27  C1  UNL     1      23.786   5.480  51.882  1.00  0.00     0.202 C 
ENDBRANCH   1  26
TORSDOF 4
ENDMDL
MODEL 2
REMARK VINA RESULT:      -7.3      4.048      6.647
REMARK  4 active torsions:
REMARK  status: ('A' for Active; 'I' for Inactive)
REMARK    1  A    between atoms: O1_2  and  C2_3 
REMARK    2  A    between atoms: C3_4  and  C4_5 
REMARK    3  A    between atoms: C9_11  and  O3_12 
REMARK    4  A    between atoms: C14_19  and  N3_20 
ROOT
HETATM    1  C2  UNL     1      22.340   1.658  51.486  1.00  0.00     0.134 A 
HETATM    2  C3  UNL     1      22.416   2.883  50.896  1.00  0.00     0.074 A 
HETATM    3  C4  UNL     1      23.032   4.010  51.311  1.00  0.00    -0.015 A 
HETATM    4  C5  UNL     1      23.770   4.800  52.155  1.00  0.00     0.009 A 
HETATM    5  C6  UNL     1      23.691   3.574  52.724  1.00  0.00     0.039 A 
HETATM    6  C7  UNL     1      23.069   2.454  52.285  1.00  0.00     0.108 A 
HETATM    7  O2  UNL     1      23.598   1.636  53.432  1.00  0.00    -0.373 OA
HETATM    8  C8  UNL     1      24.871   1.365  52.966  1.00  0.00     0.205 C 
HETATM    9  C9  UNL     1      26.015   0.672  53.464  1.00  0.00     0.168 C 
HETATM   10  C11 UNL     1      27.063   1.018  52.329  1.00  0.00     0.024 C 
HETATM   11  C12 UNL     1      26.733   1.706  51.213  1.00  0.00     0.088 C 
HETATM   12  N1  UNL     1      25.826   2.380  50.395  1.00  0.00    -0.350 N 
HETATM   13  C13 UNL     1      25.740   3.723  49.930  1.00  0.00     0.154 A 
HETATM   14  N2  UNL     1      27.000   3.976  49.530  1.00  0.00    -0.045 NA
HETATM   15  C14 UNL     1      27.443   5.134  48.990  1.00  0.00     0.721 A 
HETATM   16  N4  UNL     1      26.599   6.176  48.805  1.00  0.00    -0.075 NA
HETATM   17  C15 UNL     1      25.339   5.892  49.218  1.00  0.00     0.147 A 
HETATM   18  C16 UNL     1      24.788   4.746  49.780  1.00  0.00     0.007 A 
HETATM   19  C17 UNL     1      23.324   4.828  50.115  1.00  0.00     0.055 C 
HETATM   20  H15 UNL     1      24.972   2.036  49.909  1.00  0.00     0.166 HD
ENDROOT
BRANCH  15  21
HETATM   21  N3  UNL     1      28.791   5.415  48.558  1.00  0.00    -0.231 N 
HETATM   22  H16 UNL     1      29.066   5.180  47.574  1.00  0.00     0.174 HD
HETATM   23  H17 UNL     1      29.531   5.844  49.163  1.00  0.00     0.174 HD
ENDBRANCH  15  21
BRANCH   9  24
HETATM   24  O3  UNL     1      26.589   1.062  54.660  1.00  0.00    -0.385 OA
HETATM   25  C10 UNL     1      27.845   0.434  54.824  1.00  0.00     0.202 C 
ENDBRANCH   9  24
BRANCH   1  26
HETATM   26  O1  UNL     1      22.046   0.350  51.746  1.00  0.00    -0.378 OA
HETATM   27  C1  UNL     1      20.792  -0.029  52.234  1.00  0.00     0.202 C 
ENDBRANCH   1  26
TORSDOF 4
ENDMDL
MODEL 3
REMARK VINA RESULT:      -7.2      3.586      5.823
REMARK  4 active torsions:
REMARK  status: ('A' for Active; 'I' for Inactive)
REMARK    1  A    between atoms: O1_2  and  C2_3 
REMARK    2  A    between atoms: C3_4  and  C4_5 
REMARK    3  A    between atoms: C9_11  and  O3_12 
REMARK    4  A    between atoms: C14_19  and  N3_20 
ROOT
HETATM    1  C2  UNL     1      19.505   2.683  51.916  1.00  0.00     0.134 A 
HETATM    2  C3  UNL     1      20.280   1.605  52.217  1.00  0.00     0.074 A 
HETATM    3  C4  UNL     1      21.332   1.080  51.553  1.00  0.00    -0.015 A 
HETATM    4  C5  UNL     1      22.257   0.978  50.545  1.00  0.00     0.009 A 
HETATM    5  C6  UNL     1      21.481   2.051  50.266  1.00  0.00     0.039 A 
HETATM    6  C7  UNL     1      20.431   2.562  50.951  1.00  0.00     0.108 A 
HETATM    7  O2  UNL     1      20.306   3.731  50.011  1.00  0.00    -0.373 OA
HETATM    8  C8  UNL     1      21.301   4.549  50.513  1.00  0.00     0.205 C 
HETATM    9  C9  UNL     1      21.844   5.824  50.170  1.00  0.00     0.168 C 
HETATM   10  C11 UNL     1      23.056   5.890  51.188  1.00  0.00     0.024 C 
HETATM   11  C12 UNL     1      23.277   4.941  52.125  1.00  0.00     0.088 C 
HETATM   12  N1  UNL     1      22.965   3.750  52.780  1.00  0.00    -0.350 N 
HETATM   13  C13 UNL     1      23.649   2.510  52.934  1.00  0.00     0.154 A 
HETATM   14  N2  UNL     1      24.896   2.902  53.254  1.00  0.00    -0.045 NA
HETATM   15  C14 UNL     1      25.941   2.084  53.516  1.00  0.00     0.721 A 
HETATM   16  N4  UNL     1      25.792   0.740  53.472  1.00  0.00    -0.075 NA
HETATM   17  C15 UNL     1      24.527   0.377  53.147  1.00  0.00     0.147 A 
HETATM   18  C16 UNL     1      23.394   1.131  52.862  1.00  0.00     0.007 A 
HETATM   19  C17 UNL     1      22.157   0.342  52.532  1.00  0.00     0.055 C 
HETATM   20  H15 UNL     1      22.127   3.489  53.341  1.00  0.00     0.166 HD
ENDROOT
BRANCH  15  21
HETATM   21  N3  UNL     1      27.282   2.493  53.860  1.00  0.00    -0.231 N 
HETATM   22  H16 UNL     1      28.085   1.881  53.581  1.00  0.00     0.174 HD
HETATM   23  H17 UNL     1      27.520   3.374  54.377  1.00  0.00     0.174 HD
ENDBRANCH  15  21
BRANCH   9  24
HETATM   24  O3  UNL     1      22.379   6.029  48.911  1.00  0.00    -0.385 OA
HETATM   25  C10 UNL     1      23.222   4.950  48.559  1.00  0.00     0.202 C 
ENDBRANCH   9  24
BRANCH   1  26
HETATM   26  O1  UNL     1      18.544   3.652  51.959  1.00  0.00    -0.378 OA
HETATM   27  C1  UNL     1      17.221   3.380  51.599  1.00  0.00     0.202 C 
ENDBRANCH   1  26
TORSDOF 4
ENDMDL
MODEL 4
REMARK VINA RESULT:      -7.2      3.408      5.553
REMARK  4 active torsions:
REMARK  status: ('A' for Active; 'I' for Inactive)
REMARK    1  A    between atoms: O1_2  and  C2_3 
REMARK    2  A    between atoms: C3_4  and  C4_5 
REMARK    3  A    between atoms: C9_11  and  O3_12 
REMARK    4  A    between atoms: C14_19  and  N3_20 
ROOT
HETATM    1  C2  UNL     1      20.254   2.252  52.645  1.00  0.00     0.134 A 
HETATM    2  C3  UNL     1      20.790   1.250  53.394  1.00  0.00     0.074 A 
HETATM    3  C4  UNL     1      21.437   0.129  53.009  1.00  0.00    -0.015 A 
HETATM    4  C5  UNL     1      21.971  -0.772  52.122  1.00  0.00     0.009 A 
HETATM    5  C6  UNL     1      21.439   0.237  51.394  1.00  0.00     0.039 A 
HETATM    6  C7  UNL     1      20.797   1.357  51.804  1.00  0.00     0.108 A 
HETATM    7  O2  UNL     1      20.696   1.889  50.399  1.00  0.00    -0.373 OA
HETATM    8  C8  UNL     1      21.965   2.418  50.252  1.00  0.00     0.205 C 
HETATM    9  C9  UNL     1      22.682   3.075  49.208  1.00  0.00     0.168 C 
HETATM   10  C11 UNL     1      24.115   3.169  49.874  1.00  0.00     0.024 C 
HETATM   11  C12 UNL     1      24.359   2.776  51.145  1.00  0.00     0.088 C 
HETATM   12  N1  UNL     1      23.967   2.250  52.376  1.00  0.00    -0.350 N 
HETATM   13  C13 UNL     1      24.336   1.082  53.102  1.00  0.00     0.154 A 
HETATM   14  N2  UNL     1      25.679   1.091  53.009  1.00  0.00    -0.045 NA
HETATM   15  C14 UNL     1      26.518   0.180  53.553  1.00  0.00     0.721 A 
HETATM   16  N4  UNL     1      26.033  -0.861  54.269  1.00  0.00    -0.075 NA
HETATM   17  C15 UNL     1      24.680  -0.843  54.345  1.00  0.00     0.147 A 
HETATM   18  C16 UNL     1      23.738   0.038  53.827  1.00  0.00     0.007 A 
HETATM   19  C17 UNL     1      22.303  -0.296  54.129  1.00  0.00     0.055 C 
HETATM   20  H15 UNL     1      23.293   2.615  53.081  1.00  0.00     0.166 HD
ENDROOT
BRANCH  15  21
HETATM   21  N3  UNL     1      27.958   0.181  53.458  1.00  0.00    -0.231 N 
HETATM   22  H16 UNL     1      28.466  -0.735  53.481  1.00  0.00     0.174 HD
HETATM   23  H17 UNL     1      28.547   1.043  53.366  1.00  0.00     0.174 HD
ENDBRANCH  15  21
BRANCH   9  24
HETATM   24  O3  UNL     1      22.857   2.443  47.990  1.00  0.00    -0.385 OA
HETATM   25  C10 UNL     1      21.918   2.928  47.051  1.00  0.00     0.202 C 
ENDBRANCH   9  24
BRANCH   1  26
HETATM   26  O1  UNL     1      19.619   3.399  52.261  1.00  0.00    -0.378 OA
HETATM   27  C1  UNL     1      18.335   3.369  51.712  1.00  0.00     0.202 C 
ENDBRANCH   1  26
TORSDOF 4
ENDMDL
MODEL 5
REMARK VINA RESULT:      -7.1      2.887      5.444
REMARK  4 active torsions:
REMARK  status: ('A' for Active; 'I' for Inactive)
REMARK    1  A    between atoms: O1_2  and  C2_3 
REMARK    2  A    between atoms: C3_4  and  C4_5 
REMARK    3  A    between atoms: C9_11  and  O3_12 
REMARK    4  A    between atoms: C14_19  and  N3_20 
ROOT
HETATM    1  C2  UNL     1      23.526   3.080  49.393  1.00  0.00     0.134 A 
HETATM    2  C3  UNL     1      24.601   2.997  50.223  1.00  0.00     0.074 A 
HETATM    3  C4  UNL     1      24.710   3.295  51.535  1.00  0.00    -0.015 A 
HETATM    4  C5  UNL     1      24.282   3.726  52.766  1.00  0.00     0.009 A 
HETATM    5  C6  UNL     1      23.221   3.795  51.927  1.00  0.00     0.039 A 
HETATM    6  C7  UNL     1      23.135   3.485  50.612  1.00  0.00     0.108 A 
HETATM    7  O2  UNL     1      21.652   3.744  50.585  1.00  0.00    -0.373 OA
HETATM    8  C8  UNL     1      21.191   2.552  51.111  1.00  0.00     0.205 C 
HETATM    9  C9  UNL     1      19.913   2.008  51.440  1.00  0.00     0.168 C 
HETATM   10  C11 UNL     1      20.359   0.659  52.140  1.00  0.00     0.024 C 
HETATM   11  C12 UNL     1      21.650   0.261  52.206  1.00  0.00     0.088 C 
HETATM   12  N1  UNL     1      23.012   0.424  51.951  1.00  0.00    -0.350 N 
HETATM   13  C13 UNL     1      24.153   0.568  52.790  1.00  0.00     0.154 A 
HETATM   14  N2  UNL     1      23.966  -0.399  53.708  1.00  0.00    -0.045 NA
HETATM   15  C14 UNL     1      24.796  -0.687  54.736  1.00  0.00     0.721 A 
HETATM   16  N4  UNL     1      25.935   0.020  54.921  1.00  0.00    -0.075 NA
HETATM   17  C15 UNL     1      26.095   0.985  53.984  1.00  0.00     0.147 A 
HETATM   18  C16 UNL     1      25.310   1.358  52.898  1.00  0.00     0.007 A 
HETATM   19  C17 UNL     1      25.834   2.508  52.083  1.00  0.00     0.055 C 
HETATM   20  H15 UNL     1      23.527   0.468  51.048  1.00  0.00     0.166 HD
ENDROOT
BRANCH  15  21
HETATM   21  N3  UNL     1      24.604  -1.721  55.725  1.00  0.00    -0.231 N 
HETATM   22  H16 UNL     1      25.084  -1.629  56.652  1.00  0.00     0.174 HD
HETATM   23  H17 UNL     1      24.011  -2.574  55.585  1.00  0.00     0.174 HD
ENDBRANCH  15  21
BRANCH   9  24
HETATM   24  O3  UNL     1      19.096   2.666  52.341  1.00  0.00    -0.385 OA
HETATM   25  C10 UNL     1      18.153   3.461  51.652  1.00  0.00     0.202 C 
ENDBRANCH   9  24
BRANCH   1  26
HETATM   26  O1  UNL     1      22.718   3.025  48.293  1.00  0.00    -0.378 OA
HETATM   27  C1  UNL     1      22.342   1.803  47.728  1.00  0.00     0.202 C 
ENDBRANCH   1  26
TORSDOF 4
ENDMDL
MODEL 6
REMARK VINA RESULT:      -6.9      3.221      6.240
REMARK  4 active torsions:
REMARK  status: ('A' for Active; 'I' for Inactive)
REMARK    1  A    between atoms: O1_2  and  C2_3 
REMARK    2  A    between atoms: C3_4  and  C4_5 
REMARK    3  A    between atoms: C9_11  and  O3_12 
REMARK    4  A    between atoms: C14_19  and  N3_20 
ROOT
HETATM    1  C2  UNL     1      22.510   0.620  53.438  1.00  0.00     0.134 A 
HETATM    2  C3  UNL     1      23.436   1.530  53.028  1.00  0.00     0.074 A 
HETATM    3  C4  UNL     1      23.691   2.012  51.793  1.00  0.00    -0.015 A 
HETATM    4  C5  UNL     1      23.531   2.140  50.436  1.00  0.00     0.009 A 
HETATM    5  C6  UNL     1      22.611   1.242  50.863  1.00  0.00     0.039 A 
HETATM    6  C7  UNL     1      22.371   0.776  52.112  1.00  0.00     0.108 A 
HETATM    7  O2  UNL     1      21.179  -0.020  51.652  1.00  0.00    -0.373 OA
HETATM    8  C8  UNL     1      20.224   0.979  51.615  1.00  0.00     0.205 C 
HETATM    9  C9  UNL     1      18.845   1.059  51.256  1.00  0.00     0.168 C 
HETATM   10  C11 UNL     1      18.623   2.624  51.364  1.00  0.00     0.024 C 
HETATM   11  C12 UNL     1      19.581   3.470  51.804  1.00  0.00     0.088 C 
HETATM   12  N1  UNL     1      20.858   3.752  52.290  1.00  0.00    -0.350 N 
HETATM   13  C13 UNL     1      21.948   4.519  51.787  1.00  0.00     0.154 A 
HETATM   14  N2  UNL     1      21.346   5.652  51.381  1.00  0.00    -0.045 NA
HETATM   15  C14 UNL     1      21.962   6.723  50.830  1.00  0.00     0.721 A 
HETATM   16  N4  UNL     1      23.302   6.725  50.639  1.00  0.00    -0.075 NA
HETATM   17  C15 UNL     1      23.878   5.571  51.057  1.00  0.00     0.147 A 
HETATM   18  C16 UNL     1      23.341   4.424  51.630  1.00  0.00     0.007 A 
HETATM   19  C17 UNL     1      24.328   3.336  51.951  1.00  0.00     0.055 C 
HETATM   20  H15 UNL     1      21.321   3.462  53.176  1.00  0.00     0.166 HD
ENDROOT
BRANCH  15  21
HETATM   21  N3  UNL     1      21.326   7.942  50.392  1.00  0.00    -0.231 N 
HETATM   22  H16 UNL     1      21.882   8.831  50.393  1.00  0.00     0.174 HD
HETATM   23  H17 UNL     1      20.332   8.009  50.064  1.00  0.00     0.174 HD
ENDBRANCH  15  21
BRANCH   9  24
HETATM   24  O3  UNL     1      18.441   0.693  49.985  1.00  0.00    -0.385 OA
HETATM   25  C10 UNL     1      17.210   0.001  50.047  1.00  0.00     0.202 C 
ENDBRANCH   9  24
BRANCH   1  26
HETATM   26  O1  UNL     1      21.754  -0.216  54.209  1.00  0.00    -0.378 OA
HETATM   27  C1  UNL     1      22.334  -1.267  54.925  1.00  0.00     0.202 C 
ENDBRANCH   1  26
TORSDOF 4
ENDMDL
MODEL 7
REMARK VINA RESULT:      -6.8     11.395     14.390
REMARK  4 active torsions:
REMARK  status: ('A' for Active; 'I' for Inactive)
REMARK    1  A    between atoms: O1_2  and  C2_3 
REMARK    2  A    between atoms: C3_4  and  C4_5 
REMARK    3  A    between atoms: C9_11  and  O3_12 
REMARK    4  A    between atoms: C14_19  and  N3_20 
ROOT
HETATM    1  C2  UNL     1      29.899   6.168  48.338  1.00  0.00     0.134 A 
HETATM    2  C3  UNL     1      30.384   7.436  48.243  1.00  0.00     0.074 A 
HETATM    3  C4  UNL     1      31.625   7.912  48.483  1.00  0.00    -0.015 A 
HETATM    4  C5  UNL     1      32.947   7.847  48.845  1.00  0.00     0.009 A 
HETATM    5  C6  UNL     1      32.449   6.591  48.927  1.00  0.00     0.039 A 
HETATM    6  C7  UNL     1      31.199   6.136  48.677  1.00  0.00     0.108 A 
HETATM    7  O2  UNL     1      31.607   4.705  48.900  1.00  0.00    -0.373 OA
HETATM    8  C8  UNL     1      32.180   4.425  47.673  1.00  0.00     0.205 C 
HETATM    9  C9  UNL     1      32.830   3.300  47.083  1.00  0.00     0.168 C 
HETATM   10  C11 UNL     1      33.303   3.941  45.714  1.00  0.00     0.024 C 
HETATM   11  C12 UNL     1      32.979   5.202  45.346  1.00  0.00     0.088 C 
HETATM   12  N1  UNL     1      32.356   6.432  45.554  1.00  0.00    -0.350 N 
HETATM   13  C13 UNL     1      32.842   7.764  45.687  1.00  0.00     0.154 A 
HETATM   14  N2  UNL     1      33.724   7.856  44.674  1.00  0.00    -0.045 NA
HETATM   15  C14 UNL     1      34.457   8.948  44.358  1.00  0.00     0.721 A 
HETATM   16  N4  UNL     1      34.347  10.085  45.083  1.00  0.00    -0.075 NA
HETATM   17  C15 UNL     1      33.455   9.961  46.096  1.00  0.00     0.147 A 
HETATM   18  C16 UNL     1      32.658   8.895  46.499  1.00  0.00     0.007 A 
HETATM   19  C17 UNL     1      31.788   9.153  47.698  1.00  0.00     0.055 C 
HETATM   20  H15 UNL     1      31.347   6.668  45.653  1.00  0.00     0.166 HD
ENDROOT
BRANCH  15  21
HETATM   21  N3  UNL     1      35.404   9.057  43.275  1.00  0.00    -0.231 N 
HETATM   22  H16 UNL     1      35.049   9.274  42.312  1.00  0.00     0.174 HD
HETATM   23  H17 UNL     1      36.441   8.935  43.377  1.00  0.00     0.174 HD
ENDBRANCH  15  21
BRANCH   9  24
HETATM   24  O3  UNL     1      33.959   2.767  47.677  1.00  0.00    -0.385 OA
HETATM   25  C10 UNL     1      34.865   3.799  48.013  1.00  0.00     0.202 C 
ENDBRANCH   9  24
BRANCH   1  26
HETATM   26  O1  UNL     1      29.072   5.081  48.316  1.00  0.00    -0.378 OA
HETATM   27  C1  UNL     1      27.703   5.204  48.566  1.00  0.00     0.202 C 
ENDBRANCH   1  26
TORSDOF 4
ENDMDL
MODEL 8
REMARK VINA RESULT:      -6.7      7.106     10.479
REMARK  4 active torsions:
REMARK  status: ('A' for Active; 'I' for Inactive)
REMARK    1  A    between atoms: O1_2  and  C2_3 
REMARK    2  A    between atoms: C3_4  and  C4_5 
REMARK    3  A    between atoms: C9_11  and  O3_12 
REMARK    4  A    between atoms: C14_19  and  N3_20 
ROOT
HETATM    1  C2  UNL     1      25.314   8.109  47.267  1.00  0.00     0.134 A 
HETATM    2  C3  UNL     1      26.456   8.811  47.504  1.00  0.00     0.074 A 
HETATM    3  C4  UNL     1      27.143   8.989  48.652  1.00  0.00    -0.015 A 
HETATM    4  C5  UNL     1      27.410   8.852  49.991  1.00  0.00     0.009 A 
HETATM    5  C6  UNL     1      26.279   8.153  49.736  1.00  0.00     0.039 A 
HETATM    6  C7  UNL     1      25.609   7.984  48.571  1.00  0.00     0.108 A 
HETATM    7  O2  UNL     1      24.631   7.028  49.200  1.00  0.00    -0.373 OA
HETATM    8  C8  UNL     1      25.383   5.868  49.179  1.00  0.00     0.205 C 
HETATM    9  C9  UNL     1      25.195   4.522  49.613  1.00  0.00     0.168 C 
HETATM   10  C11 UNL     1      26.640   3.937  49.332  1.00  0.00     0.024 C 
HETATM   11  C12 UNL     1      27.616   4.655  48.732  1.00  0.00     0.088 C 
HETATM   12  N1  UNL     1      28.114   5.813  48.134  1.00  0.00    -0.350 N 
HETATM   13  C13 UNL     1      29.167   6.711  48.468  1.00  0.00     0.154 A 
HETATM   14  N2  UNL     1      30.178   5.876  48.773  1.00  0.00    -0.045 NA
HETATM   15  C14 UNL     1      31.423   6.244  49.149  1.00  0.00     0.721 A 
HETATM   16  N4  UNL     1      31.755   7.552  49.251  1.00  0.00    -0.075 NA
HETATM   17  C15 UNL     1      30.717   8.367  48.939  1.00  0.00     0.147 A 
HETATM   18  C16 UNL     1      29.413   8.092  48.545  1.00  0.00     0.007 A 
HETATM   19  C17 UNL     1      28.544   9.294  48.294  1.00  0.00     0.055 C 
HETATM   20  H15 UNL     1      27.821   6.300  47.261  1.00  0.00     0.166 HD
ENDROOT
BRANCH  15  21
HETATM   21  N3  UNL     1      32.514   5.357  49.477  1.00  0.00    -0.231 N 
HETATM   22  H16 UNL     1      33.227   5.671  50.179  1.00  0.00     0.174 HD
HETATM   23  H17 UNL     1      32.650   4.404  49.062  1.00  0.00     0.174 HD
ENDBRANCH  15  21
BRANCH   9  24
HETATM   24  O3  UNL     1      24.919   4.260  50.943  1.00  0.00    -0.385 OA
HETATM   25  C10 UNL     1      25.237   2.917  51.250  1.00  0.00     0.202 C 
ENDBRANCH   9  24
BRANCH   1  26
HETATM   26  O1  UNL     1      24.233   7.542  46.654  1.00  0.00    -0.378 OA
HETATM   27  C1  UNL     1      23.176   8.322  46.178  1.00  0.00     0.202 C 
ENDBRANCH   1  26
TORSDOF 4
ENDMDL
MODEL 9
REMARK VINA RESULT:      -6.7      3.550      6.501
REMARK  4 active torsions:
REMARK  status: ('A' for Active; 'I' for Inactive)
REMARK    1  A    between atoms: O1_2  and  C2_3 
REMARK    2  A    between atoms: C3_4  and  C4_5 
REMARK    3  A    between atoms: C9_11  and  O3_12 
REMARK    4  A    between atoms: C14_19  and  N3_20 
ROOT
HETATM    1  C2  UNL     1      18.358   0.177  51.935  1.00  0.00     0.134 A 
HETATM    2  C3  UNL     1      19.663   0.049  52.303  1.00  0.00     0.074 A 
HETATM    3  C4  UNL     1      20.790   0.235  51.583  1.00  0.00    -0.015 A 
HETATM    4  C5  UNL     1      21.535   0.533  50.470  1.00  0.00     0.009 A 
HETATM    5  C6  UNL     1      20.233   0.663  50.124  1.00  0.00     0.039 A 
HETATM    6  C7  UNL     1      19.116   0.474  50.867  1.00  0.00     0.108 A 
HETATM    7  O2  UNL     1      18.220   0.940  49.751  1.00  0.00    -0.373 OA
HETATM    8  C8  UNL     1      18.342   2.308  49.902  1.00  0.00     0.205 C 
HETATM    9  C9  UNL     1      17.835   3.459  49.226  1.00  0.00     0.168 C 
HETATM   10  C11 UNL     1      18.632   4.598  49.985  1.00  0.00     0.024 C 
HETATM   11  C12 UNL     1      19.443   4.347  51.037  1.00  0.00     0.088 C 
HETATM   12  N1  UNL     1      20.050   3.493  51.958  1.00  0.00    -0.350 N 
HETATM   13  C13 UNL     1      21.405   3.155  52.232  1.00  0.00     0.154 A 
HETATM   14  N2  UNL     1      22.010   4.357  52.247  1.00  0.00    -0.045 NA
HETATM   15  C14 UNL     1      23.323   4.581  52.480  1.00  0.00     0.721 A 
HETATM   16  N4  UNL     1      24.165   3.551  52.729  1.00  0.00    -0.075 NA
HETATM   17  C15 UNL     1      23.528   2.354  52.706  1.00  0.00     0.147 A 
HETATM   18  C16 UNL     1      22.197   2.021  52.478  1.00  0.00     0.007 A 
HETATM   19  C17 UNL     1      21.879   0.552  52.530  1.00  0.00     0.055 C 
HETATM   20  H15 UNL     1      19.630   2.890  52.696  1.00  0.00     0.166 HD
ENDROOT
BRANCH  15  21
HETATM   21  N3  UNL     1      23.981   5.866  52.499  1.00  0.00    -0.231 N 
HETATM   22  H16 UNL     1      24.571   6.144  51.678  1.00  0.00     0.174 HD
HETATM   23  H17 UNL     1      23.913   6.556  53.285  1.00  0.00     0.174 HD
ENDBRANCH  15  21
BRANCH   9  24
HETATM   24  O3  UNL     1      18.091   3.634  47.878  1.00  0.00    -0.385 OA
HETATM   25  C10 UNL     1      19.414   3.236  47.578  1.00  0.00     0.202 C 
ENDBRANCH   9  24
BRANCH   1  26
HETATM   26  O1  UNL     1      16.993   0.193  51.952  1.00  0.00    -0.378 OA
HETATM   27  C1  UNL     1      16.263  -0.776  52.646  1.00  0.00     0.202 C 
ENDBRANCH   1  26
TORSDOF 4
ENDMDL
