MODEL 1
REMARK VINA RESULT:      -6.9      0.000      0.000
REMARK  5 active torsions:
REMARK  status: ('A' for Active; 'I' for Inactive)
REMARK       I    between atoms: N1_2  and  C2_3 
REMARK    1  A    between atoms: C2_3  and  C3_5 
REMARK    2  A    between atoms: C5_7  and  O2_8 
REMARK    3  A    between atoms: O2_8  and  C6_9 
REMARK    4  A    between atoms: C7_10  and  C8_11 
REMARK    5  A    between atoms: C8_11  and  N2_12 
ROOT
HETATM    1  C3  UNL     1      26.456   0.024  54.283  1.00  0.00     0.126 A 
HETATM    2  C4  UNL     1      26.489   0.977  53.291  1.00  0.00     0.074 A 
HETATM    3  C5  UNL     1      27.657   1.631  52.899  1.00  0.00     0.078 A 
HETATM    4  C14 UNL     1      28.805   1.260  53.579  1.00  0.00     0.056 A 
HETATM    5  C15 UNL     1      28.747   0.302  54.571  1.00  0.00     0.120 A 
HETATM    6  N3  UNL     1      27.592  -0.304  54.915  1.00  0.00    -0.255 NA
ENDROOT
BRANCH   3   7
HETATM    7  O2  UNL     1      27.540   2.569  51.885  1.00  0.00    -0.323 OA
BRANCH   7   8
HETATM    8  C6  UNL     1      26.617   2.451  50.850  1.00  0.00     0.140 C 
HETATM    9  C7  UNL     1      25.534   3.168  50.603  1.00  0.00     0.027 C 
BRANCH   9  10
HETATM   10  C8  UNL     1      24.409   3.324  49.681  1.00  0.00     0.301 C 
BRANCH  10  11
HETATM   11  N2  UNL     1      23.125   2.937  50.225  1.00  0.00     0.091 N 
HETATM   12  C9  UNL     1      23.216   1.706  50.993  1.00  0.00     0.274 C 
HETATM   13  C10 UNL     1      21.758   1.266  51.160  1.00  0.00     0.050 C 
HETATM   14  C11 UNL     1      21.180   2.180  52.203  1.00  0.00     0.085 C 
HETATM   15 CL1  UNL     1      19.416   2.206  51.970  1.00  0.00    -0.125 Cl
HETATM   16  C12 UNL     1      21.775   3.546  52.220  1.00  0.00     0.050 C 
HETATM   17  C13 UNL     1      22.526   3.956  51.010  1.00  0.00     0.274 C 
ENDBRANCH  10  11
ENDBRANCH   9  10
ENDBRANCH   7   8
ENDBRANCH   3   7
BRANCH   1  18
HETATM   18  C2  UNL     1      25.190  -0.611  54.630  1.00  0.00     0.269 C 
HETATM   19  N1  UNL     1      24.021  -0.376  53.858  1.00  0.00    -0.360 N 
HETATM   20  C1  UNL     1      22.743  -0.987  54.168  1.00  0.00     0.149 C 
HETATM   21  H4  UNL     1      24.012   0.245  53.030  1.00  0.00     0.162 HD
HETATM   22  O1  UNL     1      25.111  -1.392  55.637  1.00  0.00    -0.266 OA
ENDBRANCH   1  18
TORSDOF 5
ENDMDL
MODEL 2
REMARK VINA RESULT:      -6.9      2.599      4.539
REMARK  5 active torsions:
REMARK  status: ('A' for Active; 'I' for Inactive)
REMARK       I    between atoms: N1_2  and  C2_3 
REMARK    1  A    between atoms: C2_3  and  C3_5 
REMARK    2  A    between atoms: C5_7  and  O2_8 
REMARK    3  A    between atoms: O2_8  and  C6_9 
REMARK    4  A    between atoms: C7_10  and  C8_11 
REMARK    5  A    between atoms: C8_11  and  N2_12 
ROOT
HETATM    1  C3  UNL     1      25.690  -0.334  54.446  1.00  0.00     0.126 A 
HETATM    2  C4  UNL     1      24.808   0.022  53.451  1.00  0.00     0.074 A 
HETATM    3  C5  UNL     1      23.452  -0.302  53.482  1.00  0.00     0.078 A 
HETATM    4  C14 UNL     1      23.033  -1.016  54.592  1.00  0.00     0.056 A 
HETATM    5  C15 UNL     1      23.936  -1.361  55.577  1.00  0.00     0.120 A 
HETATM    6  N3  UNL     1      25.240  -1.025  55.504  1.00  0.00    -0.255 NA
ENDROOT
BRANCH   3   7
HETATM    7  O2  UNL     1      22.682   0.122  52.409  1.00  0.00    -0.323 OA
BRANCH   7   8
HETATM    8  C6  UNL     1      22.389   1.462  52.173  1.00  0.00     0.140 C 
HETATM    9  C7  UNL     1      22.314   2.117  51.027  1.00  0.00     0.027 C 
BRANCH   9  10
HETATM   10  C8  UNL     1      22.051   3.429  50.435  1.00  0.00     0.301 C 
BRANCH  10  11
HETATM   11  N2  UNL     1      23.230   4.128  49.971  1.00  0.00     0.091 N 
HETATM   12  C9  UNL     1      23.873   4.868  51.045  1.00  0.00     0.274 C 
HETATM   13  C10 UNL     1      24.835   5.813  50.318  1.00  0.00     0.050 C 
HETATM   14  C11 UNL     1      25.984   4.950  49.874  1.00  0.00     0.085 C 
HETATM   15 CL1  UNL     1      26.763   5.768  48.499  1.00  0.00    -0.125 Cl
HETATM   16  C12 UNL     1      25.610   3.541  49.566  1.00  0.00     0.050 C 
HETATM   17  C13 UNL     1      24.171   3.272  49.341  1.00  0.00     0.274 C 
ENDBRANCH  10  11
ENDBRANCH   9  10
ENDBRANCH   7   8
ENDBRANCH   3   7
BRANCH   1  18
HETATM   18  C2  UNL     1      27.093   0.045  54.335  1.00  0.00     0.269 C 
HETATM   19  N1  UNL     1      28.066  -0.888  53.889  1.00  0.00    -0.360 N 
HETATM   20  C1  UNL     1      29.471  -0.554  53.764  1.00  0.00     0.149 C 
HETATM   21  H4  UNL     1      27.831  -1.861  53.627  1.00  0.00     0.162 HD
HETATM   22  O1  UNL     1      27.472   1.226  54.638  1.00  0.00    -0.266 OA
ENDBRANCH   1  18
TORSDOF 5
ENDMDL
MODEL 3
REMARK VINA RESULT:      -6.7      1.930      4.330
REMARK  5 active torsions:
REMARK  status: ('A' for Active; 'I' for Inactive)
REMARK       I    between atoms: N1_2  and  C2_3 
REMARK    1  A    between atoms: C2_3  and  C3_5 
REMARK    2  A    between atoms: C5_7  and  O2_8 
REMARK    3  A    between atoms: O2_8  and  C6_9 
REMARK    4  A    between atoms: C7_10  and  C8_11 
REMARK    5  A    between atoms: C8_11  and  N2_12 
ROOT
HETATM    1  C3  UNL     1      26.873   1.926  52.334  1.00  0.00     0.126 A 
HETATM    2  C4  UNL     1      26.268   0.831  52.905  1.00  0.00     0.074 A 
HETATM    3  C5  UNL     1      26.882   0.038  53.874  1.00  0.00     0.078 A 
HETATM    4  C14 UNL     1      28.162   0.423  54.237  1.00  0.00     0.056 A 
HETATM    5  C15 UNL     1      28.748   1.526  53.651  1.00  0.00     0.120 A 
HETATM    6  N3  UNL     1      28.114   2.263  52.716  1.00  0.00    -0.255 NA
ENDROOT
BRANCH   3   7
HETATM    7  O2  UNL     1      26.152  -1.036  54.360  1.00  0.00    -0.323 OA
BRANCH   7   8
HETATM    8  C6  UNL     1      24.877  -0.899  54.902  1.00  0.00     0.140 C 
HETATM    9  C7  UNL     1      23.701  -0.919  54.299  1.00  0.00     0.027 C 
BRANCH   9  10
HETATM   10  C8  UNL     1      22.259  -0.815  54.524  1.00  0.00     0.301 C 
BRANCH  10  11
HETATM   11  N2  UNL     1      21.495  -0.409  53.365  1.00  0.00     0.091 N 
HETATM   12  C9  UNL     1      20.105  -0.145  53.703  1.00  0.00     0.274 C 
HETATM   13  C10 UNL     1      19.396  -0.104  52.346  1.00  0.00     0.050 C 
HETATM   14  C11 UNL     1      19.771   1.219  51.738  1.00  0.00     0.085 C 
HETATM   15 CL1  UNL     1      19.580   1.067  49.975  1.00  0.00    -0.125 Cl
HETATM   16  C12 UNL     1      21.122   1.713  52.128  1.00  0.00     0.050 C 
HETATM   17  C13 UNL     1      22.053   0.712  52.698  1.00  0.00     0.274 C 
ENDBRANCH  10  11
ENDBRANCH   9  10
ENDBRANCH   7   8
ENDBRANCH   3   7
BRANCH   1  18
HETATM   18  C2  UNL     1      26.159   2.701  51.326  1.00  0.00     0.269 C 
HETATM   19  N1  UNL     1      26.840   3.654  50.523  1.00  0.00    -0.360 N 
HETATM   20  C1  UNL     1      26.169   4.446  49.511  1.00  0.00     0.149 C 
HETATM   21  H4  UNL     1      27.854   3.840  50.613  1.00  0.00     0.162 HD
HETATM   22  O1  UNL     1      24.905   2.535  51.148  1.00  0.00    -0.266 OA
ENDBRANCH   1  18
TORSDOF 5
ENDMDL
MODEL 4
REMARK VINA RESULT:      -6.6      3.545      5.126
REMARK  5 active torsions:
REMARK  status: ('A' for Active; 'I' for Inactive)
REMARK       I    between atoms: N1_2  and  C2_3 
REMARK    1  A    between atoms: C2_3  and  C3_5 
REMARK    2  A    between atoms: C5_7  and  O2_8 
REMARK    3  A    between atoms: O2_8  and  C6_9 
REMARK    4  A    between atoms: C7_10  and  C8_11 
REMARK    5  A    between atoms: C8_11  and  N2_12 
ROOT
HETATM    1  C3  UNL     1      26.174   0.117  54.032  1.00  0.00     0.126 A 
HETATM    2  C4  UNL     1      25.456   0.981  53.236  1.00  0.00     0.074 A 
HETATM    3  C5  UNL     1      24.075   0.889  53.063  1.00  0.00     0.078 A 
HETATM    4  C14 UNL     1      23.454  -0.140  53.750  1.00  0.00     0.056 A 
HETATM    5  C15 UNL     1      24.195  -0.993  54.543  1.00  0.00     0.120 A 
HETATM    6  N3  UNL     1      25.530  -0.865  54.680  1.00  0.00    -0.255 NA
ENDROOT
BRANCH   3   7
HETATM    7  O2  UNL     1      23.485   1.828  52.230  1.00  0.00    -0.323 OA
BRANCH   7   8
HETATM    8  C6  UNL     1      23.851   3.171  52.227  1.00  0.00     0.140 C 
HETATM    9  C7  UNL     1      23.948   4.014  51.214  1.00  0.00     0.027 C 
BRANCH   9  10
HETATM   10  C8  UNL     1      24.277   5.394  50.856  1.00  0.00     0.301 C 
BRANCH  10  11
HETATM   11  N2  UNL     1      25.578   5.565  50.248  1.00  0.00     0.091 N 
HETATM   12  C9  UNL     1      25.780   4.642  49.142  1.00  0.00     0.274 C 
HETATM   13  C10 UNL     1      27.288   4.702  48.881  1.00  0.00     0.050 C 
HETATM   14  C11 UNL     1      27.521   6.008  48.173  1.00  0.00     0.085 C 
HETATM   15 CL1  UNL     1      29.220   6.463  48.439  1.00  0.00    -0.125 Cl
HETATM   16  C12 UNL     1      26.571   7.091  48.556  1.00  0.00     0.050 C 
HETATM   17  C13 UNL     1      25.819   6.897  49.818  1.00  0.00     0.274 C 
ENDBRANCH  10  11
ENDBRANCH   9  10
ENDBRANCH   7   8
ENDBRANCH   3   7
BRANCH   1  18
HETATM   18  C2  UNL     1      27.617   0.284  54.158  1.00  0.00     0.269 C 
HETATM   19  N1  UNL     1      28.512  -0.596  53.493  1.00  0.00    -0.360 N 
HETATM   20  C1  UNL     1      29.952  -0.466  53.591  1.00  0.00     0.149 C 
HETATM   21  H4  UNL     1      28.189  -1.380  52.899  1.00  0.00     0.162 HD
HETATM   22  O1  UNL     1      28.102   1.226  54.871  1.00  0.00    -0.266 OA
ENDBRANCH   1  18
TORSDOF 5
ENDMDL
MODEL 5
REMARK VINA RESULT:      -6.4      3.268      6.967
REMARK  5 active torsions:
REMARK  status: ('A' for Active; 'I' for Inactive)
REMARK       I    between atoms: N1_2  and  C2_3 
REMARK    1  A    between atoms: C2_3  and  C3_5 
REMARK    2  A    between atoms: C5_7  and  O2_8 
REMARK    3  A    between atoms: O2_8  and  C6_9 
REMARK    4  A    between atoms: C7_10  and  C8_11 
REMARK    5  A    between atoms: C8_11  and  N2_12 
ROOT
HETATM    1  C3  UNL     1      24.039   4.178  50.695  1.00  0.00     0.126 A 
HETATM    2  C4  UNL     1      23.555   2.939  51.044  1.00  0.00     0.074 A 
HETATM    3  C5  UNL     1      22.397   2.757  51.800  1.00  0.00     0.078 A 
HETATM    4  C14 UNL     1      21.749   3.918  52.189  1.00  0.00     0.056 A 
HETATM    5  C15 UNL     1      22.255   5.150  51.827  1.00  0.00     0.120 A 
HETATM    6  N3  UNL     1      23.379   5.276  51.093  1.00  0.00    -0.255 NA
ENDROOT
BRANCH   3   7
HETATM    7  O2  UNL     1      22.028   1.449  52.076  1.00  0.00    -0.323 OA
BRANCH   7   8
HETATM    8  C6  UNL     1      22.450   0.769  53.215  1.00  0.00     0.140 C 
HETATM    9  C7  UNL     1      23.522   0.018  53.396  1.00  0.00     0.027 C 
BRANCH   9  10
HETATM   10  C8  UNL     1      24.239  -0.795  54.380  1.00  0.00     0.301 C 
BRANCH  10  11
HETATM   11  N2  UNL     1      25.665  -0.892  54.157  1.00  0.00     0.091 N 
HETATM   12  C9  UNL     1      26.017  -0.583  52.781  1.00  0.00     0.274 C 
HETATM   13  C10 UNL     1      27.455  -1.090  52.643  1.00  0.00     0.050 C 
HETATM   14  C11 UNL     1      28.306  -0.079  53.361  1.00  0.00     0.085 C 
HETATM   15 CL1  UNL     1      29.816  -0.894  53.833  1.00  0.00    -0.125 Cl
HETATM   16  C12 UNL     1      27.631   0.587  54.510  1.00  0.00     0.050 C 
HETATM   17  C13 UNL     1      26.421  -0.081  55.044  1.00  0.00     0.274 C 
ENDBRANCH  10  11
ENDBRANCH   9  10
ENDBRANCH   7   8
ENDBRANCH   3   7
BRANCH   1  18
HETATM   18  C2  UNL     1      25.258   4.279  49.901  1.00  0.00     0.269 C 
HETATM   19  N1  UNL     1      25.866   5.539  49.657  1.00  0.00    -0.360 N 
HETATM   20  C1  UNL     1      27.078   5.684  48.874  1.00  0.00     0.149 C 
HETATM   21  H4  UNL     1      25.481   6.427  50.023  1.00  0.00     0.162 HD
HETATM   22  O1  UNL     1      25.802   3.232  49.411  1.00  0.00    -0.266 OA
ENDBRANCH   1  18
TORSDOF 5
ENDMDL
MODEL 6
REMARK VINA RESULT:      -6.3      5.745      8.252
REMARK  5 active torsions:
REMARK  status: ('A' for Active; 'I' for Inactive)
REMARK       I    between atoms: N1_2  and  C2_3 
REMARK    1  A    between atoms: C2_3  and  C3_5 
REMARK    2  A    between atoms: C5_7  and  O2_8 
REMARK    3  A    between atoms: O2_8  and  C6_9 
REMARK    4  A    between atoms: C7_10  and  C8_11 
REMARK    5  A    between atoms: C8_11  and  N2_12 
ROOT
HETATM    1  C3  UNL     1      31.116   6.584  47.684  1.00  0.00     0.126 A 
HETATM    2  C4  UNL     1      30.273   5.542  47.995  1.00  0.00     0.074 A 
HETATM    3  C5  UNL     1      28.896   5.695  48.154  1.00  0.00     0.078 A 
HETATM    4  C14 UNL     1      28.414   6.982  47.977  1.00  0.00     0.056 A 
HETATM    5  C15 UNL     1      29.279   8.011  47.665  1.00  0.00     0.120 A 
HETATM    6  N3  UNL     1      30.605   7.813  47.521  1.00  0.00    -0.255 NA
ENDROOT
BRANCH   3   7
HETATM    7  O2  UNL     1      28.170   4.556  48.468  1.00  0.00    -0.323 OA
BRANCH   7   8
HETATM    8  C6  UNL     1      26.898   4.601  49.029  1.00  0.00     0.140 C 
HETATM    9  C7  UNL     1      26.332   3.781  49.897  1.00  0.00     0.027 C 
BRANCH   9  10
HETATM   10  C8  UNL     1      25.106   3.530  50.655  1.00  0.00     0.301 C 
BRANCH  10  11
HETATM   11  N2  UNL     1      25.237   2.544  51.705  1.00  0.00     0.091 N 
HETATM   12  C9  UNL     1      24.162   1.565  51.661  1.00  0.00     0.274 C 
HETATM   13  C10 UNL     1      24.247   0.860  53.018  1.00  0.00     0.050 C 
HETATM   14  C11 UNL     1      25.435  -0.056  52.920  1.00  0.00     0.085 C 
HETATM   15 CL1  UNL     1      26.000  -0.373  54.577  1.00  0.00    -0.125 Cl
HETATM   16  C12 UNL     1      26.522   0.442  52.029  1.00  0.00     0.050 C 
HETATM   17  C13 UNL     1      26.494   1.885  51.693  1.00  0.00     0.274 C 
ENDBRANCH  10  11
ENDBRANCH   9  10
ENDBRANCH   7   8
ENDBRANCH   3   7
BRANCH   1  18
HETATM   18  C2  UNL     1      32.545   6.336  47.536  1.00  0.00     0.269 C 
HETATM   19  N1  UNL     1      33.018   5.132  46.950  1.00  0.00    -0.360 N 
HETATM   20  C1  UNL     1      34.429   4.845  46.784  1.00  0.00     0.149 C 
HETATM   21  H4  UNL     1      32.384   4.389  46.608  1.00  0.00     0.162 HD
HETATM   22  O1  UNL     1      33.398   7.200  47.932  1.00  0.00    -0.266 OA
ENDBRANCH   1  18
TORSDOF 5
ENDMDL
MODEL 7
REMARK VINA RESULT:      -6.3      5.042      8.295
REMARK  5 active torsions:
REMARK  status: ('A' for Active; 'I' for Inactive)
REMARK       I    between atoms: N1_2  and  C2_3 
REMARK    1  A    between atoms: C2_3  and  C3_5 
REMARK    2  A    between atoms: C5_7  and  O2_8 
REMARK    3  A    between atoms: O2_8  and  C6_9 
REMARK    4  A    between atoms: C7_10  and  C8_11 
REMARK    5  A    between atoms: C8_11  and  N2_12 
ROOT
HETATM    1  C3  UNL     1      27.866   7.455  48.865  1.00  0.00     0.126 A 
HETATM    2  C4  UNL     1      27.571   6.123  48.686  1.00  0.00     0.074 A 
HETATM    3  C5  UNL     1      26.364   5.549  49.085  1.00  0.00     0.078 A 
HETATM    4  C14 UNL     1      25.461   6.411  49.683  1.00  0.00     0.056 A 
HETATM    5  C15 UNL     1      25.779   7.743  49.851  1.00  0.00     0.120 A 
HETATM    6  N3  UNL     1      26.961   8.254  49.449  1.00  0.00    -0.255 NA
ENDROOT
BRANCH   3   7
HETATM    7  O2  UNL     1      26.205   4.193  48.840  1.00  0.00    -0.323 OA
BRANCH   7   8
HETATM    8  C6  UNL     1      26.394   3.222  49.819  1.00  0.00     0.140 C 
HETATM    9  C7  UNL     1      25.571   2.815  50.770  1.00  0.00     0.027 C 
BRANCH   9  10
HETATM   10  C8  UNL     1      25.434   1.888  51.894  1.00  0.00     0.301 C 
BRANCH  10  11
HETATM   11  N2  UNL     1      26.675   1.291  52.337  1.00  0.00     0.091 N 
HETATM   12  C9  UNL     1      26.940   1.578  53.738  1.00  0.00     0.274 C 
HETATM   13  C10 UNL     1      28.415   1.208  53.919  1.00  0.00     0.050 C 
HETATM   14  C11 UNL     1      28.451  -0.294  53.951  1.00  0.00     0.085 C 
HETATM   15 CL1  UNL     1      30.092  -0.797  53.479  1.00  0.00    -0.125 Cl
HETATM   16  C12 UNL     1      27.393  -0.951  53.132  1.00  0.00     0.050 C 
HETATM   17  C13 UNL     1      26.729  -0.109  52.110  1.00  0.00     0.274 C 
ENDBRANCH  10  11
ENDBRANCH   9  10
ENDBRANCH   7   8
ENDBRANCH   3   7
BRANCH   1  18
HETATM   18  C2  UNL     1      29.153   7.975  48.418  1.00  0.00     0.269 C 
HETATM   19  N1  UNL     1      30.127   8.410  49.355  1.00  0.00    -0.360 N 
HETATM   20  C1  UNL     1      31.419   8.933  48.955  1.00  0.00     0.149 C 
HETATM   21  H4  UNL     1      29.974   8.378  50.379  1.00  0.00     0.162 HD
HETATM   22  O1  UNL     1      29.426   8.049  47.173  1.00  0.00    -0.266 OA
ENDBRANCH   1  18
TORSDOF 5
ENDMDL
MODEL 8
REMARK VINA RESULT:      -6.2      4.427      7.954
REMARK  5 active torsions:
REMARK  status: ('A' for Active; 'I' for Inactive)
REMARK       I    between atoms: N1_2  and  C2_3 
REMARK    1  A    between atoms: C2_3  and  C3_5 
REMARK    2  A    between atoms: C5_7  and  O2_8 
REMARK    3  A    between atoms: O2_8  and  C6_9 
REMARK    4  A    between atoms: C7_10  and  C8_11 
REMARK    5  A    between atoms: C8_11  and  N2_12 
ROOT
HETATM    1  C3  UNL     1      25.898   7.116  49.596  1.00  0.00     0.126 A 
HETATM    2  C4  UNL     1      25.745   5.750  49.514  1.00  0.00     0.074 A 
HETATM    3  C5  UNL     1      24.760   5.050  50.210  1.00  0.00     0.078 A 
HETATM    4  C14 UNL     1      23.927   5.820  51.004  1.00  0.00     0.056 A 
HETATM    5  C15 UNL     1      24.099   7.188  51.069  1.00  0.00     0.120 A 
HETATM    6  N3  UNL     1      25.067   7.822  50.377  1.00  0.00    -0.255 NA
ENDROOT
BRANCH   3   7
HETATM    7  O2  UNL     1      24.725   3.675  50.031  1.00  0.00    -0.323 OA
BRANCH   7   8
HETATM    8  C6  UNL     1      25.278   2.780  50.943  1.00  0.00     0.140 C 
HETATM    9  C7  UNL     1      24.681   2.029  51.851  1.00  0.00     0.027 C 
BRANCH   9  10
HETATM   10  C8  UNL     1      24.918   1.043  52.906  1.00  0.00     0.301 C 
BRANCH  10  11
HETATM   11  N2  UNL     1      26.309   0.703  53.113  1.00  0.00     0.091 N 
HETATM   12  C9  UNL     1      26.610   0.507  54.522  1.00  0.00     0.274 C 
HETATM   13  C10 UNL     1      28.141   0.534  54.580  1.00  0.00     0.050 C 
HETATM   14  C11 UNL     1      28.586  -0.794  54.033  1.00  0.00     0.085 C 
HETATM   15 CL1  UNL     1      30.252  -0.593  53.441  1.00  0.00    -0.125 Cl
HETATM   16  C12 UNL     1      27.677  -1.368  53.001  1.00  0.00     0.050 C 
HETATM   17  C13 UNL     1      26.720  -0.432  52.366  1.00  0.00     0.274 C 
ENDBRANCH  10  11
ENDBRANCH   9  10
ENDBRANCH   7   8
ENDBRANCH   3   7
BRANCH   1  18
HETATM   18  C2  UNL     1      26.955   7.770  48.835  1.00  0.00     0.269 C 
HETATM   19  N1  UNL     1      28.267   7.889  49.366  1.00  0.00    -0.360 N 
HETATM   20  C1  UNL     1      29.347   8.531  48.643  1.00  0.00     0.149 C 
HETATM   21  H4  UNL     1      28.530   7.524  50.298  1.00  0.00     0.162 HD
HETATM   22  O1  UNL     1      26.719   8.249  47.675  1.00  0.00    -0.266 OA
ENDBRANCH   1  18
TORSDOF 5
ENDMDL
MODEL 9
REMARK VINA RESULT:      -6.1      3.213      4.585
REMARK  5 active torsions:
REMARK  status: ('A' for Active; 'I' for Inactive)
REMARK       I    between atoms: N1_2  and  C2_3 
REMARK    1  A    between atoms: C2_3  and  C3_5 
REMARK    2  A    between atoms: C5_7  and  O2_8 
REMARK    3  A    between atoms: O2_8  and  C6_9 
REMARK    4  A    between atoms: C7_10  and  C8_11 
REMARK    5  A    between atoms: C8_11  and  N2_12 
ROOT
HETATM    1  C3  UNL     1      26.306  -0.071  53.973  1.00  0.00     0.126 A 
HETATM    2  C4  UNL     1      25.774   0.724  52.984  1.00  0.00     0.074 A 
HETATM    3  C5  UNL     1      24.411   0.774  52.696  1.00  0.00     0.078 A 
HETATM    4  C14 UNL     1      23.605  -0.037  53.478  1.00  0.00     0.056 A 
HETATM    5  C15 UNL     1      24.162  -0.826  54.464  1.00  0.00     0.120 A 
HETATM    6  N3  UNL     1      25.489  -0.841  54.706  1.00  0.00    -0.255 NA
ENDROOT
BRANCH   3   7
HETATM    7  O2  UNL     1      24.017   1.622  51.671  1.00  0.00    -0.323 OA
BRANCH   7   8
HETATM    8  C6  UNL     1      24.905   2.457  50.999  1.00  0.00     0.140 C 
HETATM    9  C7  UNL     1      24.791   3.739  50.702  1.00  0.00     0.027 C 
BRANCH   9  10
HETATM   10  C8  UNL     1      25.468   4.864  50.055  1.00  0.00     0.301 C 
BRANCH  10  11
HETATM   11  N2  UNL     1      24.818   5.351  48.858  1.00  0.00     0.091 N 
HETATM   12  C9  UNL     1      23.372   5.391  49.010  1.00  0.00     0.274 C 
HETATM   13  C10 UNL     1      22.854   5.558  47.578  1.00  0.00     0.050 C 
HETATM   14  C11 UNL     1      23.117   6.995  47.222  1.00  0.00     0.085 C 
HETATM   15 CL1  UNL     1      23.189   7.098  45.447  1.00  0.00    -0.125 Cl
HETATM   16  C12 UNL     1      24.319   7.581  47.880  1.00  0.00     0.050 C 
HETATM   17  C13 UNL     1      25.297   6.622  48.445  1.00  0.00     0.274 C 
ENDBRANCH  10  11
ENDBRANCH   9  10
ENDBRANCH   7   8
ENDBRANCH   3   7
BRANCH   1  18
HETATM   18  C2  UNL     1      27.745  -0.064  54.208  1.00  0.00     0.269 C 
HETATM   19  N1  UNL     1      28.588  -1.029  53.595  1.00  0.00    -0.360 N 
HETATM   20  C1  UNL     1      30.023  -1.058  53.801  1.00  0.00     0.149 C 
HETATM   21  H4  UNL     1      28.228  -1.768  52.966  1.00  0.00     0.162 HD
HETATM   22  O1  UNL     1      28.274   0.814  54.970  1.00  0.00    -0.266 OA
ENDBRANCH   1  18
TORSDOF 5
ENDMDL
