MODEL 1
REMARK VINA RESULT:      -7.9      0.000      0.000
REMARK  4 active torsions:
REMARK  status: ('A' for Active; 'I' for Inactive)
REMARK    1  A    between atoms: C3_3  and  C4_4 
REMARK    2  A    between atoms: C4_4  and  C5_6 
REMARK    3  A    between atoms: C7_9  and  N2_10 
REMARK    4  A    between atoms: C13_16  and  N3_17 
ROOT
HETATM    1  C5  UNL     1      25.848   1.199  53.702  1.00  0.00     0.196 C 
HETATM    2  C6  UNL     1      26.709   2.036  52.820  1.00  0.00     0.185 C 
HETATM    3  N1  UNL     1      26.018   2.836  51.892  1.00  0.00    -0.273 NA
HETATM    4  C7  UNL     1      24.894   3.351  51.773  1.00  0.00     0.118 C 
HETATM    5  C14 UNL     1      23.537   3.513  52.405  1.00  0.00     0.225 C 
HETATM    6  N4  UNL     1      22.510   2.754  51.709  1.00  0.00    -0.296 NA
HETATM    7  C15 UNL     1      22.660   1.444  51.697  1.00  0.00     0.113 C 
HETATM    8  C16 UNL     1      23.827   0.756  52.368  1.00  0.00     0.172 C 
HETATM    9  N5  UNL     1      24.897   0.372  53.008  1.00  0.00    -0.302 NA
ENDROOT
BRANCH   4  10
HETATM   10  N2  UNL     1      25.038   4.003  50.515  1.00  0.00    -0.335 N 
HETATM   11  C8  UNL     1      25.743   3.260  49.456  1.00  0.00     0.154 C 
HETATM   12  C9  UNL     1      26.915   4.153  49.122  1.00  0.00    -0.005 C 
HETATM   13  C10 UNL     1      26.579   5.425  48.848  1.00  0.00    -0.082 C 
HETATM   14  C11 UNL     1      27.683   6.356  48.512  1.00  0.00     0.043 C 
HETATM   15  C12 UNL     1      25.140   5.807  48.898  1.00  0.00     0.090 C 
HETATM   16  C13 UNL     1      24.550   5.332  50.206  1.00  0.00     0.324 C 
BRANCH  16  17
HETATM   17  N3  UNL     1      24.842   6.306  51.213  1.00  0.00     0.101 N 
HETATM   18  H18 UNL     1      24.979   7.231  50.708  1.00  0.00     0.315 HD
HETATM   19  H19 UNL     1      25.764   6.067  51.653  1.00  0.00     0.315 HD
ENDBRANCH  16  17
ENDBRANCH   4  10
BRANCH   1  20
HETATM   20  C4  UNL     1      26.570   0.307  54.632  1.00  0.00     0.174 C 
HETATM   21  O1  UNL     1      26.246  -0.500  55.539  1.00  0.00    -0.291 OA
BRANCH  20  22
HETATM   22  C3  UNL     1      28.004   0.416  54.415  1.00  0.00     0.048 C 
HETATM   23  C2  UNL     1      28.563  -0.678  53.882  1.00  0.00    -0.027 C 
HETATM   24  C1  UNL     1      30.027  -0.797  53.570  1.00  0.00     0.036 C 
ENDBRANCH  20  22
ENDBRANCH   1  20
TORSDOF 4
ENDMDL
MODEL 2
REMARK VINA RESULT:      -7.6      3.442      6.412
REMARK  4 active torsions:
REMARK  status: ('A' for Active; 'I' for Inactive)
REMARK    1  A    between atoms: C3_3  and  C4_4 
REMARK    2  A    between atoms: C4_4  and  C5_6 
REMARK    3  A    between atoms: C7_9  and  N2_10 
REMARK    4  A    between atoms: C13_16  and  N3_17 
ROOT
HETATM    1  C5  UNL     1      24.677   4.917  49.485  1.00  0.00     0.196 C 
HETATM    2  C6  UNL     1      25.032   3.471  49.531  1.00  0.00     0.185 C 
HETATM    3  N1  UNL     1      24.139   2.658  50.251  1.00  0.00    -0.273 NA
HETATM    4  C7  UNL     1      22.945   2.673  50.593  1.00  0.00     0.118 C 
HETATM    5  C14 UNL     1      21.659   3.456  50.551  1.00  0.00     0.225 C 
HETATM    6  N4  UNL     1      21.327   4.042  51.839  1.00  0.00    -0.296 NA
HETATM    7  C15 UNL     1      22.180   4.929  52.315  1.00  0.00     0.113 C 
HETATM    8  C16 UNL     1      23.435   5.325  51.571  1.00  0.00     0.172 C 
HETATM    9  N5  UNL     1      24.445   5.524  50.769  1.00  0.00    -0.302 NA
ENDROOT
BRANCH   4  10
HETATM   10  N2  UNL     1      22.862   1.446  51.311  1.00  0.00    -0.335 N 
HETATM   11  C8  UNL     1      21.710   0.577  51.016  1.00  0.00     0.154 C 
HETATM   12  C9  UNL     1      21.015   0.452  52.351  1.00  0.00    -0.005 C 
HETATM   13  C10 UNL     1      21.818   0.069  53.357  1.00  0.00    -0.082 C 
HETATM   14  C11 UNL     1      21.200  -0.074  54.697  1.00  0.00     0.043 C 
HETATM   15  C12 UNL     1      23.257  -0.183  53.062  1.00  0.00     0.090 C 
HETATM   16  C13 UNL     1      23.818   0.997  52.303  1.00  0.00     0.324 C 
BRANCH  16  17
HETATM   17  N3  UNL     1      24.191   2.006  53.248  1.00  0.00     0.101 N 
HETATM   18  H18 UNL     1      23.747   1.731  54.173  1.00  0.00     0.315 HD
HETATM   19  H19 UNL     1      23.747   2.912  52.962  1.00  0.00     0.315 HD
ENDBRANCH  16  17
ENDBRANCH   4  10
BRANCH   1  20
HETATM   20  C4  UNL     1      25.646   5.786  48.787  1.00  0.00     0.174 C 
HETATM   21  O1  UNL     1      25.599   6.893  48.195  1.00  0.00    -0.291 OA
BRANCH  20  22
HETATM   22  C3  UNL     1      26.969   5.180  48.812  1.00  0.00     0.048 C 
HETATM   23  C2  UNL     1      27.932   5.944  48.283  1.00  0.00    -0.027 C 
HETATM   24  C1  UNL     1      29.372   5.529  48.199  1.00  0.00     0.036 C 
ENDBRANCH  20  22
ENDBRANCH   1  20
TORSDOF 4
ENDMDL
MODEL 3
REMARK VINA RESULT:      -7.4      2.709      4.977
REMARK  4 active torsions:
REMARK  status: ('A' for Active; 'I' for Inactive)
REMARK    1  A    between atoms: C3_3  and  C4_4 
REMARK    2  A    between atoms: C4_4  and  C5_6 
REMARK    3  A    between atoms: C7_9  and  N2_10 
REMARK    4  A    between atoms: C13_16  and  N3_17 
ROOT
HETATM    1  C5  UNL     1      25.818   1.816  52.787  1.00  0.00     0.196 C 
HETATM    2  C6  UNL     1      25.080   0.527  52.666  1.00  0.00     0.185 C 
HETATM    3  N1  UNL     1      23.795   0.623  52.103  1.00  0.00    -0.273 NA
HETATM    4  C7  UNL     1      23.173   1.385  51.344  1.00  0.00     0.118 C 
HETATM    5  C14 UNL     1      23.248   2.652  50.534  1.00  0.00     0.225 C 
HETATM    6  N4  UNL     1      22.486   3.736  51.133  1.00  0.00    -0.296 NA
HETATM    7  C15 UNL     1      22.881   4.140  52.324  1.00  0.00     0.113 C 
HETATM    8  C16 UNL     1      24.062   3.523  53.037  1.00  0.00     0.172 C 
HETATM    9  N5  UNL     1      25.101   2.861  53.468  1.00  0.00    -0.302 NA
ENDROOT
BRANCH   4  10
HETATM   10  N2  UNL     1      21.907   0.733  51.300  1.00  0.00    -0.335 N 
HETATM   11  C8  UNL     1      21.268   0.608  49.978  1.00  0.00     0.154 C 
HETATM   12  C9  UNL     1      19.960   1.343  50.151  1.00  0.00    -0.005 C 
HETATM   13  C10 UNL     1      19.238   0.944  51.212  1.00  0.00    -0.082 C 
HETATM   14  C11 UNL     1      17.941   1.625  51.440  1.00  0.00     0.043 C 
HETATM   15  C12 UNL     1      19.783  -0.142  52.075  1.00  0.00     0.090 C 
HETATM   16  C13 UNL     1      21.208   0.196  52.449  1.00  0.00     0.324 C 
BRANCH  16  17
HETATM   17  N3  UNL     1      21.182   1.076  53.578  1.00  0.00     0.101 N 
HETATM   18  H18 UNL     1      20.470   1.833  53.353  1.00  0.00     0.315 HD
HETATM   19  H19 UNL     1      22.113   1.554  53.650  1.00  0.00     0.315 HD
ENDBRANCH  16  17
ENDBRANCH   4  10
BRANCH   1  20
HETATM   20  C4  UNL     1      27.140   1.731  53.439  1.00  0.00     0.174 C 
HETATM   21  O1  UNL     1      27.814   2.462  54.207  1.00  0.00    -0.291 OA
BRANCH  20  22
HETATM   22  C3  UNL     1      27.794   0.481  53.081  1.00  0.00     0.048 C 
HETATM   23  C2  UNL     1      28.931   0.247  53.747  1.00  0.00    -0.027 C 
HETATM   24  C1  UNL     1      29.777  -0.977  53.546  1.00  0.00     0.036 C 
ENDBRANCH  20  22
ENDBRANCH   1  20
TORSDOF 4
ENDMDL
MODEL 4
REMARK VINA RESULT:      -7.4      1.826      3.003
REMARK  4 active torsions:
REMARK  status: ('A' for Active; 'I' for Inactive)
REMARK    1  A    between atoms: C3_3  and  C4_4 
REMARK    2  A    between atoms: C4_4  and  C5_6 
REMARK    3  A    between atoms: C7_9  and  N2_10 
REMARK    4  A    between atoms: C13_16  and  N3_17 
ROOT
HETATM    1  C5  UNL     1      25.828   1.805  52.960  1.00  0.00     0.196 C 
HETATM    2  C6  UNL     1      24.876   2.782  53.559  1.00  0.00     0.185 C 
HETATM    3  N1  UNL     1      24.198   3.600  52.639  1.00  0.00    -0.273 NA
HETATM    4  C7  UNL     1      23.860   3.563  51.444  1.00  0.00     0.118 C 
HETATM    5  C14 UNL     1      23.902   2.756  50.173  1.00  0.00     0.225 C 
HETATM    6  N4  UNL     1      24.813   3.320  49.191  1.00  0.00    -0.296 NA
HETATM    7  C15 UNL     1      26.085   3.368  49.534  1.00  0.00     0.113 C 
HETATM    8  C16 UNL     1      26.583   2.866  50.871  1.00  0.00     0.172 C 
HETATM    9  N5  UNL     1      26.796   2.377  52.062  1.00  0.00    -0.302 NA
ENDROOT
BRANCH   4  10
HETATM   10  N2  UNL     1      23.203   4.821  51.319  1.00  0.00    -0.335 N 
HETATM   11  C8  UNL     1      21.762   4.794  51.016  1.00  0.00     0.154 C 
HETATM   12  C9  UNL     1      21.665   5.544  49.708  1.00  0.00    -0.005 C 
HETATM   13  C10 UNL     1      22.258   6.749  49.718  1.00  0.00    -0.082 C 
HETATM   14  C11 UNL     1      22.201   7.540  48.465  1.00  0.00     0.043 C 
HETATM   15  C12 UNL     1      22.923   7.204  50.972  1.00  0.00     0.090 C 
HETATM   16  C13 UNL     1      23.846   6.112  51.463  1.00  0.00     0.324 C 
BRANCH  16  17
HETATM   17  N3  UNL     1      25.090   6.223  50.765  1.00  0.00     0.101 N 
HETATM   18  H18 UNL     1      25.827   5.783  51.391  1.00  0.00     0.315 HD
HETATM   19  H19 UNL     1      25.337   7.239  50.683  1.00  0.00     0.315 HD
ENDBRANCH  16  17
ENDBRANCH   4  10
BRANCH   1  20
HETATM   20  C4  UNL     1      26.593   0.990  53.925  1.00  0.00     0.174 C 
HETATM   21  O1  UNL     1      26.561   0.800  55.167  1.00  0.00    -0.291 OA
BRANCH  20  22
HETATM   22  C3  UNL     1      27.628   0.236  53.233  1.00  0.00     0.048 C 
HETATM   23  C2  UNL     1      28.634  -0.163  54.020  1.00  0.00    -0.027 C 
HETATM   24  C1  UNL     1      29.812  -0.954  53.529  1.00  0.00     0.036 C 
ENDBRANCH  20  22
ENDBRANCH   1  20
TORSDOF 4
ENDMDL
MODEL 5
REMARK VINA RESULT:      -7.2      1.739      2.249
REMARK  4 active torsions:
REMARK  status: ('A' for Active; 'I' for Inactive)
REMARK    1  A    between atoms: C3_3  and  C4_4 
REMARK    2  A    between atoms: C4_4  and  C5_6 
REMARK    3  A    between atoms: C7_9  and  N2_10 
REMARK    4  A    between atoms: C13_16  and  N3_17 
ROOT
HETATM    1  C5  UNL     1      23.625   1.478  52.756  1.00  0.00     0.196 C 
HETATM    2  C6  UNL     1      24.672   2.420  52.270  1.00  0.00     0.185 C 
HETATM    3  N1  UNL     1      24.190   3.569  51.620  1.00  0.00    -0.273 NA
HETATM    4  C7  UNL     1      23.154   4.254  51.601  1.00  0.00     0.118 C 
HETATM    5  C14 UNL     1      21.759   4.399  52.152  1.00  0.00     0.225 C 
HETATM    6  N4  UNL     1      20.741   4.065  51.170  1.00  0.00    -0.296 NA
HETATM    7  C15 UNL     1      20.740   2.822  50.729  1.00  0.00     0.113 C 
HETATM    8  C16 UNL     1      21.735   1.791  51.210  1.00  0.00     0.172 C 
HETATM    9  N5  UNL     1      22.673   1.068  51.758  1.00  0.00    -0.302 NA
ENDROOT
BRANCH   4  10
HETATM   10  N2  UNL     1      23.516   5.250  50.649  1.00  0.00    -0.335 N 
HETATM   11  C8  UNL     1      23.709   4.803  49.258  1.00  0.00     0.154 C 
HETATM   12  C9  UNL     1      25.143   5.178  48.966  1.00  0.00    -0.005 C 
HETATM   13  C10 UNL     1      25.445   6.459  49.238  1.00  0.00    -0.082 C 
HETATM   14  C11 UNL     1      26.837   6.894  48.975  1.00  0.00     0.043 C 
HETATM   15  C12 UNL     1      24.373   7.343  49.778  1.00  0.00     0.090 C 
HETATM   16  C13 UNL     1      23.710   6.654  50.948  1.00  0.00     0.324 C 
BRANCH  16  17
HETATM   17  N3  UNL     1      24.496   6.895  52.119  1.00  0.00     0.101 N 
HETATM   18  H18 UNL     1      23.893   7.479  52.771  1.00  0.00     0.315 HD
HETATM   19  H19 UNL     1      25.316   7.494  51.854  1.00  0.00     0.315 HD
ENDBRANCH  16  17
ENDBRANCH   4  10
BRANCH   1  20
HETATM   20  C4  UNL     1      24.128   0.238  53.380  1.00  0.00     0.174 C 
HETATM   21  O1  UNL     1      23.610  -0.796  53.874  1.00  0.00    -0.291 OA
BRANCH  20  22
HETATM   22  C3  UNL     1      25.583   0.251  53.416  1.00  0.00     0.048 C 
HETATM   23  C2  UNL     1      26.152  -0.881  52.982  1.00  0.00    -0.027 C 
HETATM   24  C1  UNL     1      27.636  -1.098  52.927  1.00  0.00     0.036 C 
ENDBRANCH  20  22
ENDBRANCH   1  20
TORSDOF 4
ENDMDL
MODEL 6
REMARK VINA RESULT:      -7.1      2.943      6.046
REMARK  4 active torsions:
REMARK  status: ('A' for Active; 'I' for Inactive)
REMARK    1  A    between atoms: C3_3  and  C4_4 
REMARK    2  A    between atoms: C4_4  and  C5_6 
REMARK    3  A    between atoms: C7_9  and  N2_10 
REMARK    4  A    between atoms: C13_16  and  N3_17 
ROOT
HETATM    1  C5  UNL     1      25.506   4.593  49.969  1.00  0.00     0.196 C 
HETATM    2  C6  UNL     1      24.068   4.342  49.674  1.00  0.00     0.185 C 
HETATM    3  N1  UNL     1      23.402   3.514  50.595  1.00  0.00    -0.273 NA
HETATM    4  C7  UNL     1      23.516   3.179  51.786  1.00  0.00     0.118 C 
HETATM    5  C14 UNL     1      24.337   3.333  53.039  1.00  0.00     0.225 C 
HETATM    6  N4  UNL     1      25.113   2.141  53.340  1.00  0.00    -0.296 NA
HETATM    7  C15 UNL     1      26.022   1.796  52.449  1.00  0.00     0.113 C 
HETATM    8  C16 UNL     1      26.257   2.588  51.183  1.00  0.00     0.172 C 
HETATM    9  N5  UNL     1      26.298   3.409  50.170  1.00  0.00    -0.302 NA
ENDROOT
BRANCH   4  10
HETATM   10  N2  UNL     1      22.407   2.294  51.915  1.00  0.00    -0.335 N 
HETATM   11  C8  UNL     1      22.575   0.932  51.378  1.00  0.00     0.154 C 
HETATM   12  C9  UNL     1      21.483   0.828  50.341  1.00  0.00    -0.005 C 
HETATM   13  C10 UNL     1      20.260   1.153  50.792  1.00  0.00    -0.082 C 
HETATM   14  C11 UNL     1      19.139   1.072  49.824  1.00  0.00     0.043 C 
HETATM   15  C12 UNL     1      20.114   1.566  52.216  1.00  0.00     0.090 C 
HETATM   16  C13 UNL     1      21.138   2.635  52.525  1.00  0.00     0.324 C 
BRANCH  16  17
HETATM   17  N3  UNL     1      20.613   3.899  52.107  1.00  0.00     0.101 N 
HETATM   18  H18 UNL     1      21.178   4.642  52.613  1.00  0.00     0.315 HD
HETATM   19  H19 UNL     1      19.627   3.983  52.457  1.00  0.00     0.315 HD
ENDBRANCH  16  17
ENDBRANCH   4  10
BRANCH   1  20
HETATM   20  C4  UNL     1      26.226   5.407  48.969  1.00  0.00     0.174 C 
HETATM   21  O1  UNL     1      25.982   6.449  48.312  1.00  0.00    -0.291 OA
BRANCH  20  22
HETATM   22  C3  UNL     1      27.536   4.829  48.705  1.00  0.00     0.048 C 
HETATM   23  C2  UNL     1      28.457   5.717  48.312  1.00  0.00    -0.027 C 
HETATM   24  C1  UNL     1      29.877   5.355  47.985  1.00  0.00     0.036 C 
ENDBRANCH  20  22
ENDBRANCH   1  20
TORSDOF 4
ENDMDL
MODEL 7
REMARK VINA RESULT:      -7.1      2.456      3.966
REMARK  4 active torsions:
REMARK  status: ('A' for Active; 'I' for Inactive)
REMARK    1  A    between atoms: C3_3  and  C4_4 
REMARK    2  A    between atoms: C4_4  and  C5_6 
REMARK    3  A    between atoms: C7_9  and  N2_10 
REMARK    4  A    between atoms: C13_16  and  N3_17 
ROOT
HETATM    1  C5  UNL     1      24.098   1.340  52.271  1.00  0.00     0.196 C 
HETATM    2  C6  UNL     1      22.930   2.253  52.417  1.00  0.00     0.185 C 
HETATM    3  N1  UNL     1      22.919   3.356  51.545  1.00  0.00    -0.273 NA
HETATM    4  C7  UNL     1      23.389   3.663  50.437  1.00  0.00     0.118 C 
HETATM    5  C14 UNL     1      24.244   3.198  49.288  1.00  0.00     0.225 C 
HETATM    6  N4  UNL     1      25.536   3.864  49.257  1.00  0.00    -0.296 NA
HETATM    7  C15 UNL     1      26.324   3.658  50.294  1.00  0.00     0.113 C 
HETATM    8  C16 UNL     1      25.921   2.779  51.455  1.00  0.00     0.172 C 
HETATM    9  N5  UNL     1      25.382   1.985  52.340  1.00  0.00    -0.302 NA
ENDROOT
BRANCH   4  10
HETATM   10  N2  UNL     1      22.884   4.987  50.296  1.00  0.00    -0.335 N 
HETATM   11  C8  UNL     1      22.309   5.346  48.988  1.00  0.00     0.154 C 
HETATM   12  C9  UNL     1      23.163   6.507  48.536  1.00  0.00    -0.005 C 
HETATM   13  C10 UNL     1      23.273   7.495  49.440  1.00  0.00    -0.082 C 
HETATM   14  C11 UNL     1      24.098   8.667  49.060  1.00  0.00     0.043 C 
HETATM   15  C12 UNL     1      22.567   7.349  50.744  1.00  0.00     0.090 C 
HETATM   16  C13 UNL     1      22.900   5.997  51.334  1.00  0.00     0.324 C 
BRANCH  16  17
HETATM   17  N3  UNL     1      24.149   6.102  52.025  1.00  0.00     0.101 N 
HETATM   18  H18 UNL     1      23.921   6.102  53.063  1.00  0.00     0.315 HD
HETATM   19  H19 UNL     1      24.572   7.038  51.812  1.00  0.00     0.315 HD
ENDBRANCH  16  17
ENDBRANCH   4  10
BRANCH   1  20
HETATM   20  C4  UNL     1      24.149   0.217  53.229  1.00  0.00     0.174 C 
HETATM   21  O1  UNL     1      24.974  -0.207  54.076  1.00  0.00    -0.291 OA
BRANCH  20  22
HETATM   22  C3  UNL     1      22.928  -0.570  53.141  1.00  0.00     0.048 C 
HETATM   23  C2  UNL     1      22.406  -0.906  54.327  1.00  0.00    -0.027 C 
HETATM   24  C1  UNL     1      21.151  -1.714  54.486  1.00  0.00     0.036 C 
ENDBRANCH  20  22
ENDBRANCH   1  20
TORSDOF 4
ENDMDL
MODEL 8
REMARK VINA RESULT:      -6.8      3.002      4.092
REMARK  4 active torsions:
REMARK  status: ('A' for Active; 'I' for Inactive)
REMARK    1  A    between atoms: C3_3  and  C4_4 
REMARK    2  A    between atoms: C4_4  and  C5_6 
REMARK    3  A    between atoms: C7_9  and  N2_10 
REMARK    4  A    between atoms: C13_16  and  N3_17 
ROOT
HETATM    1  C5  UNL     1      23.518   2.003  52.415  1.00  0.00     0.196 C 
HETATM    2  C6  UNL     1      23.885   3.313  53.022  1.00  0.00     0.185 C 
HETATM    3  N1  UNL     1      23.473   4.446  52.298  1.00  0.00    -0.273 NA
HETATM    4  C7  UNL     1      22.595   4.746  51.473  1.00  0.00     0.118 C 
HETATM    5  C14 UNL     1      21.432   4.231  50.666  1.00  0.00     0.225 C 
HETATM    6  N4  UNL     1      21.753   4.105  49.254  1.00  0.00    -0.296 NA
HETATM    7  C15 UNL     1      22.708   3.249  48.946  1.00  0.00     0.113 C 
HETATM    8  C16 UNL     1      23.434   2.436  49.993  1.00  0.00     0.172 C 
HETATM    9  N5  UNL     1      23.923   1.838  51.045  1.00  0.00    -0.302 NA
ENDROOT
BRANCH   4  10
HETATM   10  N2  UNL     1      22.900   6.120  51.254  1.00  0.00    -0.335 N 
HETATM   11  C8  UNL     1      21.762   7.028  51.028  1.00  0.00     0.154 C 
HETATM   12  C9  UNL     1      22.037   7.600  49.657  1.00  0.00    -0.005 C 
HETATM   13  C10 UNL     1      23.266   8.123  49.514  1.00  0.00    -0.082 C 
HETATM   14  C11 UNL     1      23.603   8.703  48.192  1.00  0.00     0.043 C 
HETATM   15  C12 UNL     1      24.194   8.088  50.679  1.00  0.00     0.090 C 
HETATM   16  C13 UNL     1      24.235   6.681  51.233  1.00  0.00     0.324 C 
BRANCH  16  17
HETATM   17  N3  UNL     1      25.174   5.921  50.465  1.00  0.00     0.101 N 
HETATM   18  H18 UNL     1      26.089   6.460  50.488  1.00  0.00     0.315 HD
HETATM   19  H19 UNL     1      24.857   5.912  49.465  1.00  0.00     0.315 HD
ENDBRANCH  16  17
ENDBRANCH   4  10
BRANCH   1  20
HETATM   20  C4  UNL     1      24.006   0.811  53.137  1.00  0.00     0.174 C 
HETATM   21  O1  UNL     1      25.049   0.503  53.766  1.00  0.00    -0.291 OA
BRANCH  20  22
HETATM   22  C3  UNL     1      23.008  -0.247  53.085  1.00  0.00     0.048 C 
HETATM   23  C2  UNL     1      22.314  -0.402  54.219  1.00  0.00    -0.027 C 
HETATM   24  C1  UNL     1      21.233  -1.428  54.401  1.00  0.00     0.036 C 
ENDBRANCH  20  22
ENDBRANCH   1  20
TORSDOF 4
ENDMDL
MODEL 9
REMARK VINA RESULT:      -6.8      3.713      6.311
REMARK  4 active torsions:
REMARK  status: ('A' for Active; 'I' for Inactive)
REMARK    1  A    between atoms: C3_3  and  C4_4 
REMARK    2  A    between atoms: C4_4  and  C5_6 
REMARK    3  A    between atoms: C7_9  and  N2_10 
REMARK    4  A    between atoms: C13_16  and  N3_17 
ROOT
HETATM    1  C5  UNL     1      26.652   5.934  48.864  1.00  0.00     0.196 C 
HETATM    2  C6  UNL     1      26.744   4.458  49.045  1.00  0.00     0.185 C 
HETATM    3  N1  UNL     1      25.567   3.835  49.494  1.00  0.00    -0.273 NA
HETATM    4  C7  UNL     1      24.343   4.048  49.474  1.00  0.00     0.118 C 
HETATM    5  C14 UNL     1      23.264   5.006  49.043  1.00  0.00     0.225 C 
HETATM    6  N4  UNL     1      22.679   5.720  50.166  1.00  0.00    -0.296 NA
HETATM    7  C15 UNL     1      23.493   6.503  50.848  1.00  0.00     0.113 C 
HETATM    8  C16 UNL     1      24.953   6.660  50.490  1.00  0.00     0.172 C 
HETATM    9  N5  UNL     1      26.167   6.654  50.011  1.00  0.00    -0.302 NA
ENDROOT
BRANCH   4  10
HETATM   10  N2  UNL     1      23.866   2.897  50.166  1.00  0.00    -0.335 N 
HETATM   11  C8  UNL     1      22.823   2.102  49.496  1.00  0.00     0.154 C 
HETATM   12  C9  UNL     1      21.668   2.148  50.470  1.00  0.00    -0.005 C 
HETATM   13  C10 UNL     1      21.990   1.791  51.724  1.00  0.00    -0.082 C 
HETATM   14  C11 UNL     1      20.902   1.814  52.732  1.00  0.00     0.043 C 
HETATM   15  C12 UNL     1      23.398   1.399  52.013  1.00  0.00     0.090 C 
HETATM   16  C13 UNL     1      24.326   2.461  51.469  1.00  0.00     0.324 C 
BRANCH  16  17
HETATM   17  N3  UNL     1      24.423   3.514  52.433  1.00  0.00     0.101 N 
HETATM   18  H18 UNL     1      23.478   3.568  52.917  1.00  0.00     0.315 HD
HETATM   19  H19 UNL     1      24.550   4.423  51.924  1.00  0.00     0.315 HD
ENDBRANCH  16  17
ENDBRANCH   4  10
BRANCH   1  20
HETATM   20  C4  UNL     1      27.905   6.603  48.457  1.00  0.00     0.174 C 
HETATM   21  O1  UNL     1      28.265   7.788  48.246  1.00  0.00    -0.291 OA
BRANCH  20  22
HETATM   22  C3  UNL     1      28.957   5.617  48.263  1.00  0.00     0.048 C 
HETATM   23  C2  UNL     1      30.131   6.136  47.884  1.00  0.00    -0.027 C 
HETATM   24  C1  UNL     1      31.360   5.313  47.625  1.00  0.00     0.036 C 
ENDBRANCH  20  22
ENDBRANCH   1  20
TORSDOF 4
ENDMDL
