MODEL 1
REMARK VINA RESULT:      -7.6      0.000      0.000
REMARK  4 active torsions:
REMARK  status: ('A' for Active; 'I' for Inactive)
REMARK    1  A    between atoms: C2_2  and  C3_3 
REMARK    2  A    between atoms: C3_3  and  C4_4 
REMARK    3  A    between atoms: C3_3  and  C18_25 
REMARK    4  A    between atoms: C9_10  and  C10_11 
REMARK       I    between atoms: C10_11  and  N2_12 
ROOT
HETATM    1  C4  UNL     1      29.812   7.781  48.656  1.00  0.00     0.039 C 
HETATM    2  C5  UNL     1      30.897   6.947  48.196  1.00  0.00     0.174 C 
HETATM    3  N1  UNL     1      32.139   7.292  47.740  1.00  0.00    -0.411 N 
HETATM    4  C6  UNL     1      33.033   7.802  48.734  1.00  0.00     0.143 C 
HETATM    5  C7  UNL     1      32.661   7.270  46.474  1.00  0.00     0.119 C 
HETATM    6  C8  UNL     1      32.399   8.372  45.469  1.00  0.00     0.062 C 
HETATM    7  C9  UNL     1      33.234   9.598  45.894  1.00  0.00     0.226 C 
HETATM    8  O2  UNL     1      32.724  10.741  45.295  1.00  0.00    -0.289 OA
HETATM    9  C11 UNL     1      31.782  11.598  45.918  1.00  0.00     0.362 C 
HETATM   10  O3  UNL     1      31.697  10.864  46.870  1.00  0.00    -0.238 OA
HETATM   11  N3  UNL     1      30.800  12.514  46.541  1.00  0.00    -0.323 N 
HETATM   12  C12 UNL     1      30.273  11.966  47.837  1.00  0.00     0.067 A 
HETATM   13  C13 UNL     1      31.188  11.970  48.824  1.00  0.00     0.007 A 
HETATM   14  C14 UNL     1      30.762  10.816  49.450  1.00  0.00     0.024 A 
HETATM   15  C15 UNL     1      29.691  10.094  48.968  1.00  0.00     0.016 A 
HETATM   16  C16 UNL     1      29.174  10.691  47.854  1.00  0.00     0.075 A 
HETATM   17  C17 UNL     1      29.246  11.726  46.961  1.00  0.00     0.039 A 
HETATM   18  N4  UNL     1      29.295   8.860  49.487  1.00  0.00    -0.360 N 
HETATM   19  H16 UNL     1      31.102  12.999  45.640  1.00  0.00     0.166 HD
HETATM   20  H21 UNL     1      28.722   8.667  50.337  1.00  0.00     0.165 HD
ENDROOT
BRANCH   1  21
HETATM   21  C3  UNL     1      28.625   7.478  48.057  1.00  0.00     0.016 C 
BRANCH  21  22
HETATM   22  C2  UNL     1      27.864   7.729  46.837  1.00  0.00     0.005 C 
HETATM   23  C1  UNL     1      27.800   8.326  45.680  1.00  0.00     0.012 C 
ENDBRANCH  21  22
BRANCH  21  24
HETATM   24  C18 UNL     1      27.521   6.735  48.690  1.00  0.00     0.071 A 
HETATM   25  C19 UNL     1      27.108   5.394  48.667  1.00  0.00     0.052 A 
HETATM   26  C20 UNL     1      25.969   4.950  49.325  1.00  0.00     0.120 A 
HETATM   27  N5  UNL     1      25.241   5.840  50.005  1.00  0.00    -0.254 NA
HETATM   28  C21 UNL     1      25.607   7.118  50.046  1.00  0.00     0.233 A 
HETATM   29  N6  UNL     1      26.697   7.556  49.419  1.00  0.00    -0.241 NA
ENDBRANCH  21  24
ENDBRANCH   1  21
BRANCH   7  30
HETATM   30  C10 UNL     1      34.662   9.429  45.801  1.00  0.00     0.245 C 
HETATM   31  N2  UNL     1      35.668   9.162  44.858  1.00  0.00    -0.368 N 
HETATM   32  H14 UNL     1      36.202   9.978  44.522  1.00  0.00     0.159 HD
HETATM   33  H15 UNL     1      35.920   8.226  44.474  1.00  0.00     0.159 HD
HETATM   34  O1  UNL     1      35.275   9.546  46.903  1.00  0.00    -0.271 OA
ENDBRANCH   7  30
TORSDOF 4
ENDMDL
MODEL 2
REMARK VINA RESULT:      -7.5      8.057     11.434
REMARK  4 active torsions:
REMARK  status: ('A' for Active; 'I' for Inactive)
REMARK    1  A    between atoms: C2_2  and  C3_3 
REMARK    2  A    between atoms: C3_3  and  C4_4 
REMARK    3  A    between atoms: C3_3  and  C18_25 
REMARK    4  A    between atoms: C9_10  and  C10_11 
REMARK       I    between atoms: C10_11  and  N2_12 
ROOT
HETATM    1  C4  UNL     1      23.023   1.974  52.970  1.00  0.00     0.039 C 
HETATM    2  C5  UNL     1      24.060   2.966  52.807  1.00  0.00     0.174 C 
HETATM    3  N1  UNL     1      24.157   3.997  51.913  1.00  0.00    -0.411 N 
HETATM    4  C6  UNL     1      23.241   5.075  52.127  1.00  0.00     0.143 C 
HETATM    5  C7  UNL     1      24.961   4.152  50.817  1.00  0.00     0.119 C 
HETATM    6  C8  UNL     1      24.640   3.521  49.479  1.00  0.00     0.062 C 
HETATM    7  C9  UNL     1      23.476   4.319  48.855  1.00  0.00     0.226 C 
HETATM    8  O2  UNL     1      22.862   3.558  47.871  1.00  0.00    -0.289 OA
HETATM    9  C11 UNL     1      21.724   2.745  48.105  1.00  0.00     0.362 C 
HETATM   10  O3  UNL     1      21.751   2.995  49.284  1.00  0.00    -0.238 OA
HETATM   11  N3  UNL     1      20.536   1.888  48.317  1.00  0.00    -0.323 N 
HETATM   12  C12 UNL     1      20.172   1.790  49.771  1.00  0.00     0.067 A 
HETATM   13  C13 UNL     1      19.670   2.936  50.269  1.00  0.00     0.007 A 
HETATM   14  C14 UNL     1      20.195   2.810  51.539  1.00  0.00     0.024 A 
HETATM   15  C15 UNL     1      20.967   1.722  51.889  1.00  0.00     0.016 A 
HETATM   16  C16 UNL     1      21.094   0.865  50.833  1.00  0.00     0.075 A 
HETATM   17  C17 UNL     1      20.790   0.591  49.527  1.00  0.00     0.039 A 
HETATM   18  N4  UNL     1      21.622   1.603  53.116  1.00  0.00    -0.360 N 
HETATM   19  H16 UNL     1      20.699   1.884  47.263  1.00  0.00     0.166 HD
HETATM   20  H21 UNL     1      21.230   1.306  54.035  1.00  0.00     0.165 HD
ENDROOT
BRANCH   1  21
HETATM   21  C3  UNL     1      23.516   0.702  53.018  1.00  0.00     0.016 C 
BRANCH  21  22
HETATM   22  C2  UNL     1      23.081  -0.688  53.097  1.00  0.00     0.005 C 
HETATM   23  C1  UNL     1      22.285  -1.566  53.639  1.00  0.00     0.012 C 
ENDBRANCH  21  22
BRANCH  21  24
HETATM   24  C18 UNL     1      24.941   0.349  53.135  1.00  0.00     0.071 A 
HETATM   25  C19 UNL     1      25.950   0.043  52.209  1.00  0.00     0.052 A 
HETATM   26  C20 UNL     1      27.234  -0.321  52.591  1.00  0.00     0.120 A 
HETATM   27  N5  UNL     1      27.514  -0.379  53.896  1.00  0.00    -0.254 NA
HETATM   28  C21 UNL     1      26.579  -0.094  54.799  1.00  0.00     0.233 A 
HETATM   29  N6  UNL     1      25.345   0.256  54.444  1.00  0.00    -0.241 NA
ENDBRANCH  21  24
ENDBRANCH   1  21
BRANCH   7  30
HETATM   30  C10 UNL     1      23.792   5.677  48.488  1.00  0.00     0.245 C 
HETATM   31  N2  UNL     1      24.892   6.497  48.191  1.00  0.00    -0.368 N 
HETATM   32  H14 UNL     1      25.074   6.667  47.191  1.00  0.00     0.159 HD
HETATM   33  H15 UNL     1      25.532   6.944  48.883  1.00  0.00     0.159 HD
HETATM   34  O1  UNL     1      22.784   6.436  48.381  1.00  0.00    -0.271 OA
ENDBRANCH   7  30
TORSDOF 4
ENDMDL
MODEL 3
REMARK VINA RESULT:      -7.4      8.778     11.363
REMARK  4 active torsions:
REMARK  status: ('A' for Active; 'I' for Inactive)
REMARK    1  A    between atoms: C2_2  and  C3_3 
REMARK    2  A    between atoms: C3_3  and  C4_4 
REMARK    3  A    between atoms: C3_3  and  C18_25 
REMARK    4  A    between atoms: C9_10  and  C10_11 
REMARK       I    between atoms: C10_11  and  N2_12 
ROOT
HETATM    1  C4  UNL     1      23.735   3.613  52.073  1.00  0.00     0.039 C 
HETATM    2  C5  UNL     1      23.906   4.969  51.608  1.00  0.00     0.174 C 
HETATM    3  N1  UNL     1      23.092   5.738  50.822  1.00  0.00    -0.411 N 
HETATM    4  C6  UNL     1      21.876   6.167  51.442  1.00  0.00     0.143 C 
HETATM    5  C7  UNL     1      23.228   6.134  49.519  1.00  0.00     0.119 C 
HETATM    6  C8  UNL     1      22.870   5.234  48.356  1.00  0.00     0.062 C 
HETATM    7  C9  UNL     1      21.330   5.169  48.274  1.00  0.00     0.226 C 
HETATM    8  O2  UNL     1      20.948   4.057  47.538  1.00  0.00    -0.289 OA
HETATM    9  C11 UNL     1      20.626   2.804  48.120  1.00  0.00     0.362 C 
HETATM   10  O3  UNL     1      20.919   3.205  49.218  1.00  0.00    -0.238 OA
HETATM   11  N3  UNL     1      20.282   1.486  48.697  1.00  0.00    -0.323 N 
HETATM   12  C12 UNL     1      20.571   1.430  50.170  1.00  0.00     0.067 A 
HETATM   13  C13 UNL     1      19.729   2.182  50.903  1.00  0.00     0.007 A 
HETATM   14  C14 UNL     1      20.639   2.556  51.871  1.00  0.00     0.024 A 
HETATM   15  C15 UNL     1      21.949   2.127  51.826  1.00  0.00     0.016 A 
HETATM   16  C16 UNL     1      22.152   1.326  50.738  1.00  0.00     0.075 A 
HETATM   17  C17 UNL     1      21.619   0.735  49.625  1.00  0.00     0.039 A 
HETATM   18  N4  UNL     1      22.937   2.571  52.705  1.00  0.00    -0.360 N 
HETATM   19  H16 UNL     1      20.039   1.409  47.662  1.00  0.00     0.166 HD
HETATM   20  H21 UNL     1      23.129   2.253  53.680  1.00  0.00     0.165 HD
ENDROOT
BRANCH   1  21
HETATM   21  C3  UNL     1      24.831   2.835  51.839  1.00  0.00     0.016 C 
BRANCH  21  22
HETATM   22  C2  UNL     1      25.793   2.502  50.794  1.00  0.00     0.005 C 
HETATM   23  C1  UNL     1      26.510   2.907  49.785  1.00  0.00     0.012 C 
ENDBRANCH  21  22
BRANCH  21  24
HETATM   24  C18 UNL     1      25.371   1.829  52.772  1.00  0.00     0.071 A 
HETATM   25  C19 UNL     1      26.124   1.900  53.953  1.00  0.00     0.052 A 
HETATM   26  C20 UNL     1      26.565   0.770  54.629  1.00  0.00     0.120 A 
HETATM   27  N5  UNL     1      26.257  -0.429  54.129  1.00  0.00    -0.254 NA
HETATM   28  C21 UNL     1      25.544  -0.529  53.010  1.00  0.00     0.233 A 
HETATM   29  N6  UNL     1      25.115   0.547  52.353  1.00  0.00    -0.241 NA
ENDBRANCH  21  24
ENDBRANCH   1  21
BRANCH   7  30
HETATM   30  C10 UNL     1      20.683   6.406  47.917  1.00  0.00     0.245 C 
HETATM   31  N2  UNL     1      20.807   7.482  47.024  1.00  0.00    -0.368 N 
HETATM   32  H14 UNL     1      20.198   7.453  46.192  1.00  0.00     0.159 HD
HETATM   33  H15 UNL     1      21.451   8.296  47.125  1.00  0.00     0.159 HD
HETATM   34  O1  UNL     1      19.651   6.672  48.601  1.00  0.00    -0.271 OA
ENDBRANCH   7  30
TORSDOF 4
ENDMDL
MODEL 4
REMARK VINA RESULT:      -7.4      5.767     10.587
REMARK  4 active torsions:
REMARK  status: ('A' for Active; 'I' for Inactive)
REMARK    1  A    between atoms: C2_2  and  C3_3 
REMARK    2  A    between atoms: C3_3  and  C4_4 
REMARK    3  A    between atoms: C3_3  and  C18_25 
REMARK    4  A    between atoms: C9_10  and  C10_11 
REMARK       I    between atoms: C10_11  and  N2_12 
ROOT
HETATM    1  C4  UNL     1      24.203   6.227  49.647  1.00  0.00     0.039 C 
HETATM    2  C5  UNL     1      23.339   6.491  48.521  1.00  0.00     0.174 C 
HETATM    3  N1  UNL     1      22.147   5.917  48.174  1.00  0.00    -0.411 N 
HETATM    4  C6  UNL     1      21.043   6.246  49.023  1.00  0.00     0.143 C 
HETATM    5  C7  UNL     1      21.840   5.040  47.168  1.00  0.00     0.119 C 
HETATM    6  C8  UNL     1      22.093   3.553  47.283  1.00  0.00     0.062 C 
HETATM    7  C9  UNL     1      21.031   2.972  48.240  1.00  0.00     0.226 C 
HETATM    8  O2  UNL     1      21.456   1.741  48.718  1.00  0.00    -0.289 OA
HETATM    9  C11 UNL     1      22.153   1.574  49.942  1.00  0.00     0.362 C 
HETATM   10  O3  UNL     1      22.192   2.765  50.117  1.00  0.00    -0.238 OA
HETATM   11  N3  UNL     1      22.879   1.366  51.215  1.00  0.00    -0.323 N 
HETATM   12  C12 UNL     1      23.269   2.669  51.852  1.00  0.00     0.067 A 
HETATM   13  C13 UNL     1      22.219   3.353  52.343  1.00  0.00     0.007 A 
HETATM   14  C14 UNL     1      22.706   4.617  52.078  1.00  0.00     0.024 A 
HETATM   15  C15 UNL     1      23.933   4.800  51.478  1.00  0.00     0.016 A 
HETATM   16  C16 UNL     1      24.526   3.596  51.225  1.00  0.00     0.075 A 
HETATM   17  C17 UNL     1      24.445   2.232  51.300  1.00  0.00     0.039 A 
HETATM   18  N4  UNL     1      24.419   6.045  51.077  1.00  0.00    -0.360 N 
HETATM   19  H16 UNL     1      22.655   0.386  50.857  1.00  0.00     0.166 HD
HETATM   20  H21 UNL     1      24.872   6.783  51.657  1.00  0.00     0.165 HD
ENDROOT
BRANCH   1  21
HETATM   21  C3  UNL     1      25.502   6.030  49.278  1.00  0.00     0.016 C 
BRANCH  21  22
HETATM   22  C2  UNL     1      26.441   4.970  48.928  1.00  0.00     0.005 C 
HETATM   23  C1  UNL     1      27.025   3.857  49.270  1.00  0.00     0.012 C 
ENDBRANCH  21  22
BRANCH  21  24
HETATM   24  C18 UNL     1      26.538   7.076  49.237  1.00  0.00     0.071 A 
HETATM   25  C19 UNL     1      27.727   7.244  48.510  1.00  0.00     0.052 A 
HETATM   26  C20 UNL     1      28.578   8.323  48.703  1.00  0.00     0.120 A 
HETATM   27  N5  UNL     1      28.247   9.235  49.621  1.00  0.00    -0.254 NA
HETATM   28  C21 UNL     1      27.127   9.104  50.326  1.00  0.00     0.233 A 
HETATM   29  N6  UNL     1      26.303   8.074  50.149  1.00  0.00    -0.241 NA
ENDBRANCH  21  24
ENDBRANCH   1  21
BRANCH   7  30
HETATM   30  C10 UNL     1      19.676   3.017  47.751  1.00  0.00     0.245 C 
HETATM   31  N2  UNL     1      18.938   2.848  46.569  1.00  0.00    -0.368 N 
HETATM   32  H14 UNL     1      18.465   1.939  46.456  1.00  0.00     0.159 HD
HETATM   33  H15 UNL     1      18.828   3.550  45.806  1.00  0.00     0.159 HD
HETATM   34  O1  UNL     1      18.813   3.300  48.633  1.00  0.00    -0.271 OA
ENDBRANCH   7  30
TORSDOF 4
ENDMDL
MODEL 5
REMARK VINA RESULT:      -7.3      8.978     11.597
REMARK  4 active torsions:
REMARK  status: ('A' for Active; 'I' for Inactive)
REMARK    1  A    between atoms: C2_2  and  C3_3 
REMARK    2  A    between atoms: C3_3  and  C4_4 
REMARK    3  A    between atoms: C3_3  and  C18_25 
REMARK    4  A    between atoms: C9_10  and  C10_11 
REMARK       I    between atoms: C10_11  and  N2_12 
ROOT
HETATM    1  C4  UNL     1      21.994   1.030  50.531  1.00  0.00     0.039 C 
HETATM    2  C5  UNL     1      21.335   0.983  49.247  1.00  0.00     0.174 C 
HETATM    3  N1  UNL     1      21.297   1.913  48.244  1.00  0.00    -0.411 N 
HETATM    4  C6  UNL     1      22.528   2.099  47.539  1.00  0.00     0.143 C 
HETATM    5  C7  UNL     1      20.282   2.730  47.826  1.00  0.00     0.119 C 
HETATM    6  C8  UNL     1      19.943   4.027  48.530  1.00  0.00     0.062 C 
HETATM    7  C9  UNL     1      21.041   5.052  48.173  1.00  0.00     0.226 C 
HETATM    8  O2  UNL     1      21.033   6.085  49.097  1.00  0.00    -0.289 OA
HETATM    9  C11 UNL     1      21.862   6.114  50.248  1.00  0.00     0.362 C 
HETATM   10  O3  UNL     1      22.291   5.015  50.003  1.00  0.00    -0.238 OA
HETATM   11  N3  UNL     1      22.715   6.175  51.456  1.00  0.00    -0.323 N 
HETATM   12  C12 UNL     1      23.468   4.894  51.670  1.00  0.00     0.067 A 
HETATM   13  C13 UNL     1      24.441   4.694  50.762  1.00  0.00     0.007 A 
HETATM   14  C14 UNL     1      24.334   3.319  50.702  1.00  0.00     0.024 A 
HETATM   15  C15 UNL     1      23.407   2.640  51.464  1.00  0.00     0.016 A 
HETATM   16  C16 UNL     1      22.685   3.512  52.228  1.00  0.00     0.075 A 
HETATM   17  C17 UNL     1      22.455   4.812  52.590  1.00  0.00     0.039 A 
HETATM   18  N4  UNL     1      23.172   1.269  51.354  1.00  0.00    -0.360 N 
HETATM   19  H16 UNL     1      22.234   7.126  51.405  1.00  0.00     0.166 HD
HETATM   20  H21 UNL     1      23.718   0.482  51.765  1.00  0.00     0.165 HD
ENDROOT
BRANCH   1  21
HETATM   21  C3  UNL     1      21.162   0.701  51.561  1.00  0.00     0.016 C 
BRANCH  21  22
HETATM   22  C2  UNL     1      21.160   0.038  52.860  1.00  0.00     0.005 C 
HETATM   23  C1  UNL     1      21.238   0.150  54.156  1.00  0.00     0.012 C 
ENDBRANCH  21  22
BRANCH  21  24
HETATM   24  C18 UNL     1      19.700   0.887  51.561  1.00  0.00     0.071 A 
HETATM   25  C19 UNL     1      18.606   0.016  51.460  1.00  0.00     0.052 A 
HETATM   26  C20 UNL     1      17.292   0.463  51.429  1.00  0.00     0.120 A 
HETATM   27  N5  UNL     1      17.068   1.778  51.498  1.00  0.00    -0.254 NA
HETATM   28  C21 UNL     1      18.085   2.630  51.595  1.00  0.00     0.233 A 
HETATM   29  N6  UNL     1      19.348   2.213  51.626  1.00  0.00    -0.241 NA
ENDBRANCH  21  24
ENDBRANCH   1  21
BRANCH   7  30
HETATM   30  C10 UNL     1      21.078   5.452  46.789  1.00  0.00     0.245 C 
HETATM   31  N2  UNL     1      20.226   5.850  45.747  1.00  0.00    -0.368 N 
HETATM   32  H14 UNL     1      20.175   6.864  45.565  1.00  0.00     0.159 HD
HETATM   33  H15 UNL     1      19.648   5.222  45.148  1.00  0.00     0.159 HD
HETATM   34  O1  UNL     1      22.239   5.471  46.283  1.00  0.00    -0.271 OA
ENDBRANCH   7  30
TORSDOF 4
ENDMDL
MODEL 6
REMARK VINA RESULT:      -7.1      9.205     11.614
REMARK  4 active torsions:
REMARK  status: ('A' for Active; 'I' for Inactive)
REMARK    1  A    between atoms: C2_2  and  C3_3 
REMARK    2  A    between atoms: C3_3  and  C4_4 
REMARK    3  A    between atoms: C3_3  and  C18_25 
REMARK    4  A    between atoms: C9_10  and  C10_11 
REMARK       I    between atoms: C10_11  and  N2_12 
ROOT
HETATM    1  C4  UNL     1      21.934   1.042  50.352  1.00  0.00     0.039 C 
HETATM    2  C5  UNL     1      21.388   1.013  49.016  1.00  0.00     0.174 C 
HETATM    3  N1  UNL     1      21.392   1.975  48.043  1.00  0.00    -0.411 N 
HETATM    4  C6  UNL     1      22.668   2.238  47.452  1.00  0.00     0.143 C 
HETATM    5  C7  UNL     1      20.379   2.763  47.567  1.00  0.00     0.119 C 
HETATM    6  C8  UNL     1      19.924   4.018  48.279  1.00  0.00     0.062 C 
HETATM    7  C9  UNL     1      21.000   5.100  48.050  1.00  0.00     0.226 C 
HETATM    8  O2  UNL     1      20.868   6.100  49.002  1.00  0.00    -0.289 OA
HETATM    9  C11 UNL     1      21.596   6.123  50.220  1.00  0.00     0.362 C 
HETATM   10  O3  UNL     1      22.094   5.053  49.978  1.00  0.00    -0.238 OA
HETATM   11  N3  UNL     1      22.341   6.178  51.497  1.00  0.00    -0.323 N 
HETATM   12  C12 UNL     1      23.132   4.922  51.734  1.00  0.00     0.067 A 
HETATM   13  C13 UNL     1      24.185   4.796  50.906  1.00  0.00     0.007 A 
HETATM   14  C14 UNL     1      24.145   3.421  50.794  1.00  0.00     0.024 A 
HETATM   15  C15 UNL     1      23.190   2.677  51.453  1.00  0.00     0.016 A 
HETATM   16  C16 UNL     1      22.367   3.490  52.180  1.00  0.00     0.075 A 
HETATM   17  C17 UNL     1      22.049   4.765  52.561  1.00  0.00     0.039 A 
HETATM   18  N4  UNL     1      23.028   1.302  51.280  1.00  0.00    -0.360 N 
HETATM   19  H16 UNL     1      21.824   7.108  51.436  1.00  0.00     0.166 HD
HETATM   20  H21 UNL     1      23.572   0.524  51.711  1.00  0.00     0.165 HD
ENDROOT
BRANCH   1  21
HETATM   21  C3  UNL     1      21.035   0.642  51.297  1.00  0.00     0.016 C 
BRANCH  21  22
HETATM   22  C2  UNL     1      19.617   0.726  51.632  1.00  0.00     0.005 C 
HETATM   23  C1  UNL     1      18.408   0.287  51.429  1.00  0.00     0.012 C 
ENDBRANCH  21  22
BRANCH  21  24
HETATM   24  C18 UNL     1      21.377  -0.043  52.555  1.00  0.00     0.071 A 
HETATM   25  C19 UNL     1      22.004  -1.260  52.865  1.00  0.00     0.052 A 
HETATM   26  C20 UNL     1      22.159  -1.714  54.167  1.00  0.00     0.120 A 
HETATM   27  N5  UNL     1      21.688  -0.957  55.162  1.00  0.00    -0.254 NA
HETATM   28  C21 UNL     1      21.087   0.201  54.901  1.00  0.00     0.233 A 
HETATM   29  N6  UNL     1      20.934   0.647  53.657  1.00  0.00    -0.241 NA
ENDBRANCH  21  24
ENDBRANCH   1  21
BRANCH   7  30
HETATM   30  C10 UNL     1      21.135   5.550  46.687  1.00  0.00     0.245 C 
HETATM   31  N2  UNL     1      21.973   5.406  45.571  1.00  0.00    -0.368 N 
HETATM   32  H14 UNL     1      21.649   4.752  44.842  1.00  0.00     0.159 HD
HETATM   33  H15 UNL     1      22.881   5.894  45.414  1.00  0.00     0.159 HD
HETATM   34  O1  UNL     1      20.225   6.345  46.308  1.00  0.00    -0.271 OA
ENDBRANCH   7  30
TORSDOF 4
ENDMDL
MODEL 7
REMARK VINA RESULT:      -7.1      2.773      5.187
REMARK  4 active torsions:
REMARK  status: ('A' for Active; 'I' for Inactive)
REMARK    1  A    between atoms: C2_2  and  C3_3 
REMARK    2  A    between atoms: C3_3  and  C4_4 
REMARK    3  A    between atoms: C3_3  and  C18_25 
REMARK    4  A    between atoms: C9_10  and  C10_11 
REMARK       I    between atoms: C10_11  and  N2_12 
ROOT
HETATM    1  C4  UNL     1      28.395   8.246  46.531  1.00  0.00     0.039 C 
HETATM    2  C5  UNL     1      27.043   8.637  46.208  1.00  0.00     0.174 C 
HETATM    3  N1  UNL     1      26.475   9.881  46.164  1.00  0.00    -0.411 N 
HETATM    4  C6  UNL     1      26.910  10.711  45.084  1.00  0.00     0.143 C 
HETATM    5  C7  UNL     1      25.583  10.482  47.012  1.00  0.00     0.119 C 
HETATM    6  C8  UNL     1      26.010  11.136  48.308  1.00  0.00     0.062 C 
HETATM    7  C9  UNL     1      26.711  12.464  47.951  1.00  0.00     0.226 C 
HETATM    8  O2  UNL     1      27.488  12.884  49.021  1.00  0.00    -0.289 OA
HETATM    9  C11 UNL     1      28.869  12.588  49.152  1.00  0.00     0.362 C 
HETATM   10  O3  UNL     1      28.847  11.906  48.158  1.00  0.00    -0.238 OA
HETATM   11  N3  UNL     1      30.311  12.299  49.315  1.00  0.00    -0.323 N 
HETATM   12  C12 UNL     1      30.806  11.335  48.276  1.00  0.00     0.067 A 
HETATM   13  C13 UNL     1      30.860  11.869  47.042  1.00  0.00     0.007 A 
HETATM   14  C14 UNL     1      30.537  10.721  46.348  1.00  0.00     0.024 A 
HETATM   15  C15 UNL     1      30.286   9.535  47.006  1.00  0.00     0.016 A 
HETATM   16  C16 UNL     1      30.415   9.700  48.356  1.00  0.00     0.075 A 
HETATM   17  C17 UNL     1      30.689  10.549  49.393  1.00  0.00     0.039 A 
HETATM   18  N4  UNL     1      29.837   8.378  46.367  1.00  0.00    -0.360 N 
HETATM   19  H16 UNL     1      30.073  12.984  50.097  1.00  0.00     0.166 HD
HETATM   20  H21 UNL     1      30.391   7.675  45.832  1.00  0.00     0.165 HD
ENDROOT
BRANCH   1  21
HETATM   21  C3  UNL     1      28.446   7.251  47.463  1.00  0.00     0.016 C 
BRANCH  21  22
HETATM   22  C2  UNL     1      29.251   6.103  47.866  1.00  0.00     0.005 C 
HETATM   23  C1  UNL     1      30.439   5.595  48.039  1.00  0.00     0.012 C 
ENDBRANCH  21  22
BRANCH  21  24
HETATM   24  C18 UNL     1      27.396   6.967  48.457  1.00  0.00     0.071 A 
HETATM   25  C19 UNL     1      26.535   5.882  48.685  1.00  0.00     0.052 A 
HETATM   26  C20 UNL     1      25.570   5.888  49.683  1.00  0.00     0.120 A 
HETATM   27  N5  UNL     1      25.462   6.973  50.454  1.00  0.00    -0.254 NA
HETATM   28  C21 UNL     1      26.263   8.017  50.263  1.00  0.00     0.233 A 
HETATM   29  N6  UNL     1      27.192   8.024  49.310  1.00  0.00    -0.241 NA
ENDBRANCH  21  24
ENDBRANCH   1  21
BRANCH   7  30
HETATM   30  C10 UNL     1      25.859  13.468  47.365  1.00  0.00     0.245 C 
HETATM   31  N2  UNL     1      25.567  14.060  46.127  1.00  0.00    -0.368 N 
HETATM   32  H14 UNL     1      24.721  13.716  45.648  1.00  0.00     0.159 HD
HETATM   33  H15 UNL     1      26.120  14.808  45.655  1.00  0.00     0.159 HD
HETATM   34  O1  UNL     1      25.094  14.048  48.191  1.00  0.00    -0.271 OA
ENDBRANCH   7  30
TORSDOF 4
ENDMDL
MODEL 8
REMARK VINA RESULT:      -7.0      7.550     10.040
REMARK  4 active torsions:
REMARK  status: ('A' for Active; 'I' for Inactive)
REMARK    1  A    between atoms: C2_2  and  C3_3 
REMARK    2  A    between atoms: C3_3  and  C4_4 
REMARK    3  A    between atoms: C3_3  and  C18_25 
REMARK    4  A    between atoms: C9_10  and  C10_11 
REMARK       I    between atoms: C10_11  and  N2_12 
ROOT
HETATM    1  C4  UNL     1      24.014   4.311  51.068  1.00  0.00     0.039 C 
HETATM    2  C5  UNL     1      24.144   5.748  51.085  1.00  0.00     0.174 C 
HETATM    3  N1  UNL     1      23.424   6.704  50.422  1.00  0.00    -0.411 N 
HETATM    4  C6  UNL     1      22.081   6.881  50.881  1.00  0.00     0.143 C 
HETATM    5  C7  UNL     1      23.764   7.497  49.359  1.00  0.00     0.119 C 
HETATM    6  C8  UNL     1      23.711   7.004  47.929  1.00  0.00     0.062 C 
HETATM    7  C9  UNL     1      22.225   6.926  47.518  1.00  0.00     0.226 C 
HETATM    8  O2  UNL     1      22.089   6.095  46.415  1.00  0.00    -0.289 OA
HETATM    9  C11 UNL     1      21.779   4.714  46.508  1.00  0.00     0.362 C 
HETATM   10  O3  UNL     1      21.826   4.754  47.712  1.00  0.00    -0.238 OA
HETATM   11  N3  UNL     1      21.455   3.272  46.571  1.00  0.00    -0.323 N 
HETATM   12  C12 UNL     1      21.469   2.759  47.983  1.00  0.00     0.067 A 
HETATM   13  C13 UNL     1      20.441   3.216  48.722  1.00  0.00     0.007 A 
HETATM   14  C14 UNL     1      21.118   3.288  49.922  1.00  0.00     0.024 A 
HETATM   15  C15 UNL     1      22.446   2.932  50.017  1.00  0.00     0.016 A 
HETATM   16  C16 UNL     1      22.920   2.523  48.803  1.00  0.00     0.075 A 
HETATM   17  C17 UNL     1      22.659   2.302  47.478  1.00  0.00     0.039 A 
HETATM   18  N4  UNL     1      23.210   3.100  51.173  1.00  0.00    -0.360 N 
HETATM   19  H16 UNL     1      21.417   3.522  45.535  1.00  0.00     0.166 HD
HETATM   20  H21 UNL     1      23.246   2.495  52.022  1.00  0.00     0.165 HD
ENDROOT
BRANCH   1  21
HETATM   21  C3  UNL     1      25.200   3.678  50.837  1.00  0.00     0.016 C 
BRANCH  21  22
HETATM   22  C2  UNL     1      26.305   3.634  49.886  1.00  0.00     0.005 C 
HETATM   23  C1  UNL     1      27.059   4.279  49.041  1.00  0.00     0.012 C 
ENDBRANCH  21  22
BRANCH  21  24
HETATM   24  C18 UNL     1      25.722   2.545  51.622  1.00  0.00     0.071 A 
HETATM   25  C19 UNL     1      26.379   1.350  51.291  1.00  0.00     0.052 A 
HETATM   26  C20 UNL     1      26.724   0.397  52.240  1.00  0.00     0.120 A 
HETATM   27  N5  UNL     1      26.415   0.633  53.517  1.00  0.00    -0.254 NA
HETATM   28  C21 UNL     1      25.792   1.757  53.862  1.00  0.00     0.233 A 
HETATM   29  N6  UNL     1      25.456   2.678  52.962  1.00  0.00    -0.241 NA
ENDBRANCH  21  24
ENDBRANCH   1  21
BRANCH   7  30
HETATM   30  C10 UNL     1      21.547   8.195  47.432  1.00  0.00     0.245 C 
HETATM   31  N2  UNL     1      20.880   9.130  48.238  1.00  0.00    -0.368 N 
HETATM   32  H14 UNL     1      21.427   9.958  48.519  1.00  0.00     0.159 HD
HETATM   33  H15 UNL     1      19.895   9.063  48.574  1.00  0.00     0.159 HD
HETATM   34  O1  UNL     1      21.501   8.683  46.264  1.00  0.00    -0.271 OA
ENDBRANCH   7  30
TORSDOF 4
ENDMDL
MODEL 9
REMARK VINA RESULT:      -7.0      6.638     10.581
REMARK  4 active torsions:
REMARK  status: ('A' for Active; 'I' for Inactive)
REMARK    1  A    between atoms: C2_2  and  C3_3 
REMARK    2  A    between atoms: C3_3  and  C4_4 
REMARK    3  A    between atoms: C3_3  and  C18_25 
REMARK    4  A    between atoms: C9_10  and  C10_11 
REMARK       I    between atoms: C10_11  and  N2_12 
ROOT
HETATM    1  C4  UNL     1      21.287   2.954  51.634  1.00  0.00     0.039 C 
HETATM    2  C5  UNL     1      22.653   2.978  52.101  1.00  0.00     0.174 C 
HETATM    3  N1  UNL     1      23.645   3.891  51.869  1.00  0.00    -0.411 N 
HETATM    4  C6  UNL     1      23.467   5.159  52.507  1.00  0.00     0.143 C 
HETATM    5  C7  UNL     1      24.768   3.806  51.090  1.00  0.00     0.119 C 
HETATM    6  C8  UNL     1      24.734   4.025  49.593  1.00  0.00     0.062 C 
HETATM    7  C9  UNL     1      24.563   5.539  49.347  1.00  0.00     0.226 C 
HETATM    8  O2  UNL     1      24.099   5.753  48.057  1.00  0.00    -0.289 OA
HETATM    9  C11 UNL     1      22.726   5.894  47.730  1.00  0.00     0.362 C 
HETATM   10  O3  UNL     1      22.401   5.668  48.869  1.00  0.00    -0.238 OA
HETATM   11  N3  UNL     1      21.302   6.047  47.358  1.00  0.00    -0.323 N 
HETATM   12  C12 UNL     1      20.390   5.761  48.516  1.00  0.00     0.067 A 
HETATM   13  C13 UNL     1      20.438   6.706  49.473  1.00  0.00     0.007 A 
HETATM   14  C14 UNL     1      20.239   5.865  50.549  1.00  0.00     0.024 A 
HETATM   15  C15 UNL     1      20.076   4.507  50.374  1.00  0.00     0.016 A 
HETATM   16  C16 UNL     1      20.136   4.184  49.048  1.00  0.00     0.075 A 
HETATM   17  C17 UNL     1      20.295   4.620  47.761  1.00  0.00     0.039 A 
HETATM   18  N4  UNL     1      19.995   3.597  51.430  1.00  0.00    -0.360 N 
HETATM   19  H16 UNL     1      21.849   6.271  46.470  1.00  0.00     0.166 HD
HETATM   20  H21 UNL     1      19.172   3.366  52.026  1.00  0.00     0.165 HD
ENDROOT
BRANCH   1  21
HETATM   21  C3  UNL     1      20.942   1.756  51.079  1.00  0.00     0.016 C 
BRANCH  21  22
HETATM   22  C2  UNL     1      21.194   0.926  49.907  1.00  0.00     0.005 C 
HETATM   23  C1  UNL     1      21.675   0.840  48.699  1.00  0.00     0.012 C 
ENDBRANCH  21  22
BRANCH  21  24
HETATM   24  C18 UNL     1      19.909   0.846  51.604  1.00  0.00     0.071 A 
HETATM   25  C19 UNL     1      19.821   0.018  52.734  1.00  0.00     0.052 A 
HETATM   26  C20 UNL     1      18.730  -0.806  52.976  1.00  0.00     0.120 A 
HETATM   27  N5  UNL     1      17.728  -0.806  52.093  1.00  0.00    -0.254 NA
HETATM   28  C21 UNL     1      17.782  -0.032  51.013  1.00  0.00     0.233 A 
HETATM   29  N6  UNL     1      18.822   0.762  50.770  1.00  0.00    -0.241 NA
ENDBRANCH  21  24
ENDBRANCH   1  21
BRANCH   7  30
HETATM   30  C10 UNL     1      25.679   6.356  49.753  1.00  0.00     0.245 C 
HETATM   31  N2  UNL     1      26.045   7.288  50.736  1.00  0.00    -0.368 N 
HETATM   32  H14 UNL     1      26.615   6.924  51.515  1.00  0.00     0.159 HD
HETATM   33  H15 UNL     1      25.797   8.300  50.749  1.00  0.00     0.159 HD
HETATM   34  O1  UNL     1      26.703   6.242  49.018  1.00  0.00    -0.271 OA
ENDBRANCH   7  30
TORSDOF 4
ENDMDL
