MODEL 1
REMARK VINA RESULT:      -8.5      0.000      0.000
REMARK  5 active torsions:
REMARK  status: ('A' for Active; 'I' for Inactive)
REMARK    1  A    between atoms: N1_1  and  C1_2 
REMARK    2  A    between atoms: N2_8  and  C6_9 
REMARK       I    between atoms: N4_15  and  C11_16 
REMARK       I    between atoms: C11_16  and  N5_18 
REMARK    3  A    between atoms: N5_18  and  C12_19 
REMARK    4  A    between atoms: C12_19  and  C13_20 
REMARK    5  A    between atoms: C13_20  and  N6_21 
ROOT
HETATM    1  C6  UNL     1      20.217   2.170  52.271  1.00  0.00     0.158 C 
HETATM    2  C7  UNL     1      19.519   3.337  51.486  1.00  0.00     0.118 C 
HETATM    3  N3  UNL     1      20.559   4.096  51.894  1.00  0.00    -0.263 NA
HETATM    4  C8  UNL     1      21.762   3.524  51.180  1.00  0.00     0.055 C 
HETATM    5  C9  UNL     1      21.523   2.516  50.357  1.00  0.00     0.033 C 
HETATM    6  C10 UNL     1      21.437   1.681  51.616  1.00  0.00     0.147 C 
HETATM    7  N4  UNL     1      22.786   1.787  52.165  1.00  0.00    -0.299 N 
HETATM    8  C11 UNL     1      23.345   0.647  52.883  1.00  0.00     0.323 C 
HETATM    9  O1  UNL     1      22.532  -0.305  52.917  1.00  0.00    -0.247 OA
HETATM   10  N5  UNL     1      24.629   0.630  53.456  1.00  0.00    -0.341 N 
HETATM   11  C19 UNL     1      23.712   2.989  52.003  1.00  0.00     0.099 C 
HETATM   12  C20 UNL     1      22.815   4.030  52.130  1.00  0.00     0.048 C 
HETATM   13  H9  UNL     1      25.168   1.507  53.335  1.00  0.00     0.164 HD
ENDROOT
BRANCH   1  14
HETATM   14  N2  UNL     1      19.228   1.077  52.136  1.00  0.00    -0.330 N 
HETATM   15  C1  UNL     1      18.946  -0.139  52.792  1.00  0.00     0.119 C 
HETATM   16  C2  UNL     1      17.942  -0.896  52.415  1.00  0.00     0.055 C 
HETATM   17 BR1  UNL     1      17.687  -2.450  53.482  1.00  0.00    -0.047 Br
HETATM   18  C3  UNL     1      17.076  -0.611  51.283  1.00  0.00     0.036 C 
HETATM   19  C4  UNL     1      17.183   0.632  50.902  1.00  0.00    -0.007 C 
HETATM   20  C5  UNL     1      18.277   1.312  51.068  1.00  0.00     0.106 C 
BRANCH  15  21
HETATM   21  N1  UNL     1      19.769  -0.449  53.896  1.00  0.00    -0.384 N 
HETATM   22  H1  UNL     1      20.501  -1.206  54.056  1.00  0.00     0.157 HD
HETATM   23  H2  UNL     1      20.108  -0.250  54.884  1.00  0.00     0.157 HD
ENDBRANCH  15  21
ENDBRANCH   1  14
BRANCH  10  24
HETATM   24  C12 UNL     1      25.070  -0.593  54.153  1.00  0.00     0.154 C 
BRANCH  24  25
HETATM   25  C13 UNL     1      26.306  -0.208  54.913  1.00  0.00     0.292 C 
BRANCH  25  26
HETATM   26  N6  UNL     1      27.358   0.239  54.028  1.00  0.00     0.090 N 
HETATM   27  C14 UNL     1      28.593   0.472  54.796  1.00  0.00     0.272 C 
HETATM   28  C15 UNL     1      29.717   0.604  53.816  1.00  0.00     0.030 C 
HETATM   29  C16 UNL     1      30.088  -0.829  53.419  1.00  0.00     0.003 C 
HETATM   30  C17 UNL     1      28.807  -1.638  53.374  1.00  0.00     0.030 C 
HETATM   31  C18 UNL     1      27.625  -0.740  53.003  1.00  0.00     0.272 C 
ENDBRANCH  25  26
ENDBRANCH  24  25
ENDBRANCH  10  24
TORSDOF 5
ENDMDL
MODEL 2
REMARK VINA RESULT:      -8.3      3.352      7.127
REMARK  5 active torsions:
REMARK  status: ('A' for Active; 'I' for Inactive)
REMARK    1  A    between atoms: N1_1  and  C1_2 
REMARK    2  A    between atoms: N2_8  and  C6_9 
REMARK       I    between atoms: N4_15  and  C11_16 
REMARK       I    between atoms: C11_16  and  N5_18 
REMARK    3  A    between atoms: N5_18  and  C12_19 
REMARK    4  A    between atoms: C12_19  and  C13_20 
REMARK    5  A    between atoms: C13_20  and  N6_21 
ROOT
HETATM    1  C6  UNL     1      23.509   0.656  53.679  1.00  0.00     0.158 C 
HETATM    2  C7  UNL     1      23.110  -0.833  53.978  1.00  0.00     0.118 C 
HETATM    3  N3  UNL     1      21.869  -0.348  54.203  1.00  0.00    -0.263 NA
HETATM    4  C8  UNL     1      21.394   0.144  52.855  1.00  0.00     0.055 C 
HETATM    5  C9  UNL     1      22.228  -0.039  51.843  1.00  0.00     0.033 C 
HETATM    6  C10 UNL     1      22.967   1.155  52.408  1.00  0.00     0.147 C 
HETATM    7  N4  UNL     1      21.986   2.231  52.278  1.00  0.00    -0.299 N 
HETATM    8  C11 UNL     1      22.459   3.582  52.002  1.00  0.00     0.323 C 
HETATM    9  O1  UNL     1      23.707   3.613  51.913  1.00  0.00    -0.247 OA
HETATM   10  N5  UNL     1      21.613   4.697  51.856  1.00  0.00    -0.341 N 
HETATM   11  C19 UNL     1      20.472   2.056  52.346  1.00  0.00     0.099 C 
HETATM   12  C20 UNL     1      20.361   1.119  53.353  1.00  0.00     0.048 C 
HETATM   13  H9  UNL     1      20.603   4.490  51.965  1.00  0.00     0.164 HD
ENDROOT
BRANCH   1  14
HETATM   14  N2  UNL     1      24.970   0.545  53.471  1.00  0.00    -0.330 N 
HETATM   15  C1  UNL     1      26.088   1.397  53.570  1.00  0.00     0.119 C 
HETATM   16  C2  UNL     1      27.300   0.957  53.321  1.00  0.00     0.055 C 
HETATM   17 BR1  UNL     1      28.673   2.246  53.591  1.00  0.00    -0.047 Br
HETATM   18  C3  UNL     1      27.611  -0.390  52.873  1.00  0.00     0.036 C 
HETATM   19  C4  UNL     1      26.611  -1.203  53.076  1.00  0.00    -0.007 C 
HETATM   20  C5  UNL     1      25.380  -0.791  53.084  1.00  0.00     0.106 C 
BRANCH  15  21
HETATM   21  N1  UNL     1      25.824   2.714  54.001  1.00  0.00    -0.384 N 
HETATM   22  H1  UNL     1      25.396   3.558  53.512  1.00  0.00     0.157 HD
HETATM   23  H2  UNL     1      25.835   3.462  54.758  1.00  0.00     0.157 HD
ENDBRANCH  15  21
ENDBRANCH   1  14
BRANCH  10  24
HETATM   24  C12 UNL     1      22.225   6.010  51.577  1.00  0.00     0.154 C 
BRANCH  24  25
HETATM   25  C13 UNL     1      22.102   6.211  50.095  1.00  0.00     0.292 C 
BRANCH  25  26
HETATM   26  N6  UNL     1      23.339   6.686  49.517  1.00  0.00     0.090 N 
HETATM   27  C14 UNL     1      24.379   6.766  50.557  1.00  0.00     0.272 C 
HETATM   28  C15 UNL     1      25.697   6.934  49.868  1.00  0.00     0.030 C 
HETATM   29  C16 UNL     1      26.100   5.531  49.401  1.00  0.00     0.003 C 
HETATM   30  C17 UNL     1      24.835   4.806  48.986  1.00  0.00     0.030 C 
HETATM   31  C18 UNL     1      23.796   5.804  48.471  1.00  0.00     0.272 C 
ENDBRANCH  25  26
ENDBRANCH  24  25
ENDBRANCH  10  24
TORSDOF 5
ENDMDL
MODEL 3
REMARK VINA RESULT:      -8.3      5.803      7.938
REMARK  5 active torsions:
REMARK  status: ('A' for Active; 'I' for Inactive)
REMARK    1  A    between atoms: N1_1  and  C1_2 
REMARK    2  A    between atoms: N2_8  and  C6_9 
REMARK       I    between atoms: N4_15  and  C11_16 
REMARK       I    between atoms: C11_16  and  N5_18 
REMARK    3  A    between atoms: N5_18  and  C12_19 
REMARK    4  A    between atoms: C12_19  and  C13_20 
REMARK    5  A    between atoms: C13_20  and  N6_21 
ROOT
HETATM    1  C6  UNL     1      24.714   2.914  52.106  1.00  0.00     0.158 C 
HETATM    2  C7  UNL     1      23.288   2.500  52.616  1.00  0.00     0.118 C 
HETATM    3  N3  UNL     1      22.895   3.723  52.195  1.00  0.00    -0.263 NA
HETATM    4  C8  UNL     1      23.034   3.680  50.691  1.00  0.00     0.055 C 
HETATM    5  C9  UNL     1      23.439   2.529  50.178  1.00  0.00     0.033 C 
HETATM    6  C10 UNL     1      24.814   2.959  50.641  1.00  0.00     0.147 C 
HETATM    7  N4  UNL     1      25.058   4.163  49.851  1.00  0.00    -0.299 N 
HETATM    8  C11 UNL     1      26.421   4.462  49.429  1.00  0.00     0.323 C 
HETATM    9  O1  UNL     1      27.219   3.586  49.831  1.00  0.00    -0.247 OA
HETATM   10  N5  UNL     1      26.780   5.590  48.667  1.00  0.00    -0.341 N 
HETATM   11  C19 UNL     1      23.983   5.131  49.365  1.00  0.00     0.099 C 
HETATM   12  C20 UNL     1      23.144   5.164  50.460  1.00  0.00     0.048 C 
HETATM   13  H9  UNL     1      25.990   6.215  48.423  1.00  0.00     0.164 HD
ENDROOT
BRANCH   1  14
HETATM   14  N2  UNL     1      25.537   1.758  52.526  1.00  0.00    -0.330 N 
HETATM   15  C1  UNL     1      26.893   1.517  52.823  1.00  0.00     0.119 C 
HETATM   16  C2  UNL     1      27.304   0.328  53.197  1.00  0.00     0.055 C 
HETATM   17 BR1  UNL     1      29.156   0.237  53.628  1.00  0.00    -0.047 Br
HETATM   18  C3  UNL     1      26.454  -0.847  53.287  1.00  0.00     0.036 C 
HETATM   19  C4  UNL     1      25.191  -0.522  53.291  1.00  0.00    -0.007 C 
HETATM   20  C5  UNL     1      24.753   0.551  52.705  1.00  0.00     0.106 C 
BRANCH  15  21
HETATM   21  N1  UNL     1      27.749   2.636  52.745  1.00  0.00    -0.384 N 
HETATM   22  H1  UNL     1      27.944   3.441  53.415  1.00  0.00     0.157 HD
HETATM   23  H2  UNL     1      28.480   3.210  52.227  1.00  0.00     0.157 HD
ENDBRANCH  15  21
ENDBRANCH   1  14
BRANCH  10  24
HETATM   24  C12 UNL     1      28.199   5.770  48.306  1.00  0.00     0.154 C 
BRANCH  24  25
HETATM   25  C13 UNL     1      28.344   7.215  47.930  1.00  0.00     0.292 C 
BRANCH  25  26
HETATM   26  N6  UNL     1      29.054   7.961  48.944  1.00  0.00     0.090 N 
HETATM   27  C14 UNL     1      30.372   8.375  48.431  1.00  0.00     0.272 C 
HETATM   28  C15 UNL     1      30.919   9.405  49.369  1.00  0.00     0.030 C 
HETATM   29  C16 UNL     1      30.224  10.718  48.990  1.00  0.00     0.003 C 
HETATM   30  C17 UNL     1      28.801  10.382  48.586  1.00  0.00     0.030 C 
HETATM   31  C18 UNL     1      28.317   9.139  49.334  1.00  0.00     0.272 C 
ENDBRANCH  25  26
ENDBRANCH  24  25
ENDBRANCH  10  24
TORSDOF 5
ENDMDL
MODEL 4
REMARK VINA RESULT:      -8.3      3.695      6.730
REMARK  5 active torsions:
REMARK  status: ('A' for Active; 'I' for Inactive)
REMARK    1  A    between atoms: N1_1  and  C1_2 
REMARK    2  A    between atoms: N2_8  and  C6_9 
REMARK       I    between atoms: N4_15  and  C11_16 
REMARK       I    between atoms: C11_16  and  N5_18 
REMARK    3  A    between atoms: N5_18  and  C12_19 
REMARK    4  A    between atoms: C12_19  and  C13_20 
REMARK    5  A    between atoms: C13_20  and  N6_21 
ROOT
HETATM    1  C6  UNL     1      24.883  -0.062  53.082  1.00  0.00     0.158 C 
HETATM    2  C7  UNL     1      25.312  -1.016  54.253  1.00  0.00     0.118 C 
HETATM    3  N3  UNL     1      26.571  -0.849  53.790  1.00  0.00    -0.263 NA
HETATM    4  C8  UNL     1      26.891   0.604  54.049  1.00  0.00     0.055 C 
HETATM    5  C9  UNL     1      25.949   1.307  54.657  1.00  0.00     0.033 C 
HETATM    6  C10 UNL     1      25.279   1.335  53.300  1.00  0.00     0.147 C 
HETATM    7  N4  UNL     1      26.239   2.074  52.484  1.00  0.00    -0.299 N 
HETATM    8  C11 UNL     1      25.740   2.933  51.416  1.00  0.00     0.323 C 
HETATM    9  O1  UNL     1      24.489   2.903  51.363  1.00  0.00    -0.247 OA
HETATM   10  N5  UNL     1      26.564   3.691  50.565  1.00  0.00    -0.341 N 
HETATM   11  C19 UNL     1      27.751   2.077  52.687  1.00  0.00     0.099 C 
HETATM   12  C20 UNL     1      27.975   0.756  53.015  1.00  0.00     0.048 C 
HETATM   13  H9  UNL     1      27.579   3.594  50.748  1.00  0.00     0.164 HD
ENDROOT
BRANCH   1  14
HETATM   14  N2  UNL     1      23.408  -0.080  53.199  1.00  0.00    -0.330 N 
HETATM   15  C1  UNL     1      22.311   0.292  52.396  1.00  0.00     0.119 C 
HETATM   16  C2  UNL     1      21.078   0.119  52.812  1.00  0.00     0.055 C 
HETATM   17 BR1  UNL     1      19.746   0.613  51.545  1.00  0.00    -0.047 Br
HETATM   18  C3  UNL     1      20.714  -0.400  54.120  1.00  0.00     0.036 C 
HETATM   19  C4  UNL     1      21.725  -0.990  54.695  1.00  0.00    -0.007 C 
HETATM   20  C5  UNL     1      22.953  -0.647  54.453  1.00  0.00     0.106 C 
BRANCH  15  21
HETATM   21  N1  UNL     1      22.625   0.802  51.119  1.00  0.00    -0.384 N 
HETATM   22  H1  UNL     1      22.716   0.340  50.163  1.00  0.00     0.157 HD
HETATM   23  H2  UNL     1      22.869   1.617  50.480  1.00  0.00     0.157 HD
ENDBRANCH  15  21
ENDBRANCH   1  14
BRANCH  10  24
HETATM   24  C12 UNL     1      25.925   4.520  49.526  1.00  0.00     0.154 C 
BRANCH  24  25
HETATM   25  C13 UNL     1      27.044   5.237  48.828  1.00  0.00     0.292 C 
BRANCH  25  26
HETATM   26  N6  UNL     1      26.607   6.498  48.274  1.00  0.00     0.090 N 
HETATM   27  C14 UNL     1      25.161   6.668  48.499  1.00  0.00     0.272 C 
HETATM   28  C15 UNL     1      24.825   8.099  48.216  1.00  0.00     0.030 C 
HETATM   29  C16 UNL     1      25.236   8.875  49.473  1.00  0.00     0.003 C 
HETATM   30  C17 UNL     1      26.493   8.228  50.020  1.00  0.00     0.030 C 
HETATM   31  C18 UNL     1      27.305   7.603  48.884  1.00  0.00     0.272 C 
ENDBRANCH  25  26
ENDBRANCH  24  25
ENDBRANCH  10  24
TORSDOF 5
ENDMDL
MODEL 5
REMARK VINA RESULT:      -8.1      2.793      6.525
REMARK  5 active torsions:
REMARK  status: ('A' for Active; 'I' for Inactive)
REMARK    1  A    between atoms: N1_1  and  C1_2 
REMARK    2  A    between atoms: N2_8  and  C6_9 
REMARK       I    between atoms: N4_15  and  C11_16 
REMARK       I    between atoms: C11_16  and  N5_18 
REMARK    3  A    between atoms: N5_18  and  C12_19 
REMARK    4  A    between atoms: C12_19  and  C13_20 
REMARK    5  A    between atoms: C13_20  and  N6_21 
ROOT
HETATM    1  C6  UNL     1      24.829  -0.005  53.046  1.00  0.00     0.158 C 
HETATM    2  C7  UNL     1      25.274  -0.928  54.237  1.00  0.00     0.118 C 
HETATM    3  N3  UNL     1      26.529  -0.753  53.767  1.00  0.00    -0.263 NA
HETATM    4  C8  UNL     1      26.829   0.711  53.995  1.00  0.00     0.055 C 
HETATM    5  C9  UNL     1      25.877   1.413  54.590  1.00  0.00     0.033 C 
HETATM    6  C10 UNL     1      25.205   1.402  53.234  1.00  0.00     0.147 C 
HETATM    7  N4  UNL     1      26.152   2.138  52.399  1.00  0.00    -0.299 N 
HETATM    8  C11 UNL     1      25.638   2.966  51.315  1.00  0.00     0.323 C 
HETATM    9  O1  UNL     1      24.388   2.917  51.266  1.00  0.00    -0.247 OA
HETATM   10  N5  UNL     1      26.450   3.718  50.446  1.00  0.00    -0.341 N 
HETATM   11  C19 UNL     1      27.665   2.167  52.600  1.00  0.00     0.099 C 
HETATM   12  C20 UNL     1      27.908   0.856  52.955  1.00  0.00     0.048 C 
HETATM   13  H9  UNL     1      27.467   3.639  50.629  1.00  0.00     0.164 HD
ENDROOT
BRANCH   1  14
HETATM   14  N2  UNL     1      23.354  -0.042  53.166  1.00  0.00    -0.330 N 
HETATM   15  C1  UNL     1      22.250   0.308  52.363  1.00  0.00     0.119 C 
HETATM   16  C2  UNL     1      21.020   0.122  52.783  1.00  0.00     0.055 C 
HETATM   17 BR1  UNL     1      19.679   0.586  51.515  1.00  0.00    -0.047 Br
HETATM   18  C3  UNL     1      20.667  -0.390  54.097  1.00  0.00     0.036 C 
HETATM   19  C4  UNL     1      21.687  -0.961  54.675  1.00  0.00    -0.007 C 
HETATM   20  C5  UNL     1      22.910  -0.603  54.427  1.00  0.00     0.106 C 
BRANCH  15  21
HETATM   21  N1  UNL     1      22.555   0.810  51.080  1.00  0.00    -0.384 N 
HETATM   22  H1  UNL     1      22.759   1.793  50.723  1.00  0.00     0.157 HD
HETATM   23  H2  UNL     1      22.733   0.656  50.043  1.00  0.00     0.157 HD
ENDBRANCH  15  21
ENDBRANCH   1  14
BRANCH  10  24
HETATM   24  C12 UNL     1      25.797   4.515  49.391  1.00  0.00     0.154 C 
BRANCH  24  25
HETATM   25  C13 UNL     1      25.879   5.942  49.847  1.00  0.00     0.292 C 
BRANCH  25  26
HETATM   26  N6  UNL     1      24.600   6.608  49.748  1.00  0.00     0.090 N 
HETATM   27  C14 UNL     1      23.624   5.721  49.091  1.00  0.00     0.272 C 
HETATM   28  C15 UNL     1      22.263   6.306  49.308  1.00  0.00     0.030 C 
HETATM   29  C16 UNL     1      21.861   5.897  50.730  1.00  0.00     0.003 C 
HETATM   30  C17 UNL     1      23.113   5.922  51.585  1.00  0.00     0.030 C 
HETATM   31  C18 UNL     1      24.098   6.965  51.053  1.00  0.00     0.272 C 
ENDBRANCH  25  26
ENDBRANCH  24  25
ENDBRANCH  10  24
TORSDOF 5
ENDMDL
MODEL 6
REMARK VINA RESULT:      -7.6      2.560      3.483
REMARK  5 active torsions:
REMARK  status: ('A' for Active; 'I' for Inactive)
REMARK    1  A    between atoms: N1_1  and  C1_2 
REMARK    2  A    between atoms: N2_8  and  C6_9 
REMARK       I    between atoms: N4_15  and  C11_16 
REMARK       I    between atoms: C11_16  and  N5_18 
REMARK    3  A    between atoms: N5_18  and  C12_19 
REMARK    4  A    between atoms: C12_19  and  C13_20 
REMARK    5  A    between atoms: C13_20  and  N6_21 
ROOT
HETATM    1  C6  UNL     1      21.878   5.219  51.012  1.00  0.00     0.158 C 
HETATM    2  C7  UNL     1      21.116   6.515  50.560  1.00  0.00     0.118 C 
HETATM    3  N3  UNL     1      22.248   7.173  50.894  1.00  0.00    -0.263 NA
HETATM    4  C8  UNL     1      23.280   6.702  49.895  1.00  0.00     0.055 C 
HETATM    5  C9  UNL     1      22.853   5.851  48.976  1.00  0.00     0.033 C 
HETATM    6  C10 UNL     1      22.942   4.819  50.080  1.00  0.00     0.147 C 
HETATM    7  N4  UNL     1      24.369   4.804  50.392  1.00  0.00    -0.299 N 
HETATM    8  C11 UNL     1      24.984   3.548  50.806  1.00  0.00     0.323 C 
HETATM    9  O1  UNL     1      24.143   2.622  50.831  1.00  0.00    -0.247 OA
HETATM   10  N5  UNL     1      26.346   3.409  51.132  1.00  0.00    -0.341 N 
HETATM   11  C19 UNL     1      25.313   5.996  50.263  1.00  0.00     0.099 C 
HETATM   12  C20 UNL     1      24.505   7.020  50.712  1.00  0.00     0.048 C 
HETATM   13  H9  UNL     1      26.899   4.282  51.060  1.00  0.00     0.164 HD
ENDROOT
BRANCH   1  14
HETATM   14  N2  UNL     1      20.827   4.184  50.881  1.00  0.00    -0.330 N 
HETATM   15  C1  UNL     1      20.607   2.879  51.365  1.00  0.00     0.119 C 
HETATM   16  C2  UNL     1      19.514   2.219  51.058  1.00  0.00     0.055 C 
HETATM   17 BR1  UNL     1      19.376   0.507  51.878  1.00  0.00    -0.047 Br
HETATM   18  C3  UNL     1      18.475   2.713  50.171  1.00  0.00     0.036 C 
HETATM   19  C4  UNL     1      18.575   4.000  49.991  1.00  0.00    -0.007 C 
HETATM   20  C5  UNL     1      19.713   4.620  50.062  1.00  0.00     0.106 C 
BRANCH  15  21
HETATM   21  N1  UNL     1      21.597   2.366  52.229  1.00  0.00    -0.384 N 
HETATM   22  H1  UNL     1      22.069   2.763  53.097  1.00  0.00     0.157 HD
HETATM   23  H2  UNL     1      22.262   1.587  52.518  1.00  0.00     0.157 HD
ENDBRANCH  15  21
ENDBRANCH   1  14
BRANCH  10  24
HETATM   24  C12 UNL     1      26.838   2.077  51.535  1.00  0.00     0.154 C 
BRANCH  24  25
HETATM   25  C13 UNL     1      26.783   2.058  53.035  1.00  0.00     0.292 C 
BRANCH  25  26
HETATM   26  N6  UNL     1      26.930   0.719  53.556  1.00  0.00     0.090 N 
HETATM   27  C14 UNL     1      27.101  -0.235  52.446  1.00  0.00     0.272 C 
HETATM   28  C15 UNL     1      27.574  -1.529  53.030  1.00  0.00     0.030 C 
HETATM   29  C16 UNL     1      29.078  -1.348  53.269  1.00  0.00     0.003 C 
HETATM   30  C17 UNL     1      29.304   0.089  53.696  1.00  0.00     0.030 C 
HETATM   31  C18 UNL     1      28.073   0.623  54.431  1.00  0.00     0.272 C 
ENDBRANCH  25  26
ENDBRANCH  24  25
ENDBRANCH  10  24
TORSDOF 5
ENDMDL
MODEL 7
REMARK VINA RESULT:      -7.6      3.128      4.846
REMARK  5 active torsions:
REMARK  status: ('A' for Active; 'I' for Inactive)
REMARK    1  A    between atoms: N1_1  and  C1_2 
REMARK    2  A    between atoms: N2_8  and  C6_9 
REMARK       I    between atoms: N4_15  and  C11_16 
REMARK       I    between atoms: C11_16  and  N5_18 
REMARK    3  A    between atoms: N5_18  and  C12_19 
REMARK    4  A    between atoms: C12_19  and  C13_20 
REMARK    5  A    between atoms: C13_20  and  N6_21 
ROOT
HETATM    1  C6  UNL     1      21.207   3.077  50.171  1.00  0.00     0.158 C 
HETATM    2  C7  UNL     1      19.658   3.307  50.055  1.00  0.00     0.118 C 
HETATM    3  N3  UNL     1      19.548   1.983  50.305  1.00  0.00    -0.263 NA
HETATM    4  C8  UNL     1      20.026   1.816  51.729  1.00  0.00     0.055 C 
HETATM    5  C9  UNL     1      20.378   2.926  52.358  1.00  0.00     0.033 C 
HETATM    6  C10 UNL     1      21.652   2.824  51.548  1.00  0.00     0.147 C 
HETATM    7  N4  UNL     1      22.238   1.574  52.026  1.00  0.00    -0.299 N 
HETATM    8  C11 UNL     1      23.689   1.458  52.094  1.00  0.00     0.323 C 
HETATM    9  O1  UNL     1      24.243   2.514  51.712  1.00  0.00    -0.247 OA
HETATM   10  N5  UNL     1      24.368   0.307  52.536  1.00  0.00    -0.341 N 
HETATM   11  C19 UNL     1      21.450   0.367  52.529  1.00  0.00     0.099 C 
HETATM   12  C20 UNL     1      20.392   0.357  51.644  1.00  0.00     0.048 C 
HETATM   13  H9  UNL     1      23.751  -0.478  52.813  1.00  0.00     0.164 HD
ENDROOT
BRANCH   1  14
HETATM   14  N2  UNL     1      21.742   4.412  49.821  1.00  0.00    -0.330 N 
HETATM   15  C1  UNL     1      22.965   4.939  49.359  1.00  0.00     0.119 C 
HETATM   16  C2  UNL     1      23.103   6.223  49.122  1.00  0.00     0.055 C 
HETATM   17 BR1  UNL     1      24.806   6.714  48.430  1.00  0.00    -0.047 Br
HETATM   18  C3  UNL     1      22.070   7.220  49.355  1.00  0.00     0.036 C 
HETATM   19  C4  UNL     1      20.898   6.667  49.494  1.00  0.00    -0.007 C 
HETATM   20  C5  UNL     1      20.754   5.464  49.961  1.00  0.00     0.106 C 
BRANCH  15  21
HETATM   21  N1  UNL     1      23.991   4.000  49.123  1.00  0.00    -0.384 N 
HETATM   22  H1  UNL     1      25.053   4.074  49.151  1.00  0.00     0.157 HD
HETATM   23  H2  UNL     1      24.307   3.014  48.879  1.00  0.00     0.157 HD
ENDBRANCH  15  21
ENDBRANCH   1  14
BRANCH  10  24
HETATM   24  C12 UNL     1      25.843   0.327  52.556  1.00  0.00     0.154 C 
BRANCH  24  25
HETATM   25  C13 UNL     1      26.231   0.434  54.002  1.00  0.00     0.292 C 
BRANCH  25  26
HETATM   26  N6  UNL     1      27.360  -0.412  54.314  1.00  0.00     0.090 N 
HETATM   27  C14 UNL     1      27.878  -1.032  53.082  1.00  0.00     0.272 C 
HETATM   28  C15 UNL     1      29.219  -1.616  53.398  1.00  0.00     0.030 C 
HETATM   29  C16 UNL     1      30.200  -0.439  53.364  1.00  0.00     0.003 C 
HETATM   30  C17 UNL     1      29.478   0.775  53.916  1.00  0.00     0.030 C 
HETATM   31  C18 UNL     1      28.420   0.345  54.934  1.00  0.00     0.272 C 
ENDBRANCH  25  26
ENDBRANCH  24  25
ENDBRANCH  10  24
TORSDOF 5
ENDMDL
MODEL 8
REMARK VINA RESULT:      -7.5      1.545      1.922
REMARK  5 active torsions:
REMARK  status: ('A' for Active; 'I' for Inactive)
REMARK    1  A    between atoms: N1_1  and  C1_2 
REMARK    2  A    between atoms: N2_8  and  C6_9 
REMARK       I    between atoms: N4_15  and  C11_16 
REMARK       I    between atoms: C11_16  and  N5_18 
REMARK    3  A    between atoms: N5_18  and  C12_19 
REMARK    4  A    between atoms: C12_19  and  C13_20 
REMARK    5  A    between atoms: C13_20  and  N6_21 
ROOT
HETATM    1  C6  UNL     1      20.216   2.346  50.192  1.00  0.00     0.158 C 
HETATM    2  C7  UNL     1      19.525   2.954  48.920  1.00  0.00     0.118 C 
HETATM    3  N3  UNL     1      20.543   3.842  48.918  1.00  0.00    -0.263 NA
HETATM    4  C8  UNL     1      21.773   3.023  48.602  1.00  0.00     0.055 C 
HETATM    5  C9  UNL     1      21.571   1.734  48.380  1.00  0.00     0.033 C 
HETATM    6  C10 UNL     1      21.461   1.628  49.886  1.00  0.00     0.147 C 
HETATM    7  N4  UNL     1      22.793   2.026  50.335  1.00  0.00    -0.299 N 
HETATM    8  C11 UNL     1      23.346   1.404  51.532  1.00  0.00     0.323 C 
HETATM    9  O1  UNL     1      22.546   0.572  52.017  1.00  0.00    -0.247 OA
HETATM   10  N5  UNL     1      24.615   1.704  52.061  1.00  0.00    -0.341 N 
HETATM   11  C19 UNL     1      23.706   3.015  49.616  1.00  0.00     0.099 C 
HETATM   12  C20 UNL     1      22.793   3.959  49.196  1.00  0.00     0.048 C 
HETATM   13  H9  UNL     1      25.144   2.421  51.531  1.00  0.00     0.164 HD
ENDROOT
BRANCH   1  14
HETATM   14  N2  UNL     1      19.246   1.304  50.598  1.00  0.00    -0.330 N 
HETATM   15  C1  UNL     1      19.049   0.464  51.713  1.00  0.00     0.119 C 
HETATM   16  C2  UNL     1      18.036  -0.369  51.762  1.00  0.00     0.055 C 
HETATM   17 BR1  UNL     1      17.906  -1.351  53.387  1.00  0.00    -0.047 Br
HETATM   18  C3  UNL     1      17.073  -0.560  50.690  1.00  0.00     0.036 C 
HETATM   19  C4  UNL     1      17.119   0.418  49.829  1.00  0.00    -0.007 C 
HETATM   20  C5  UNL     1      18.206   1.094  49.610  1.00  0.00     0.106 C 
BRANCH  15  21
HETATM   21  N1  UNL     1      19.966   0.621  52.773  1.00  0.00    -0.384 N 
HETATM   22  H1  UNL     1      20.939   0.225  52.946  1.00  0.00     0.157 HD
HETATM   23  H2  UNL     1      20.236   1.048  53.710  1.00  0.00     0.157 HD
ENDBRANCH  15  21
ENDBRANCH   1  14
BRANCH  10  24
HETATM   24  C12 UNL     1      25.052   0.997  53.279  1.00  0.00     0.154 C 
BRANCH  24  25
HETATM   25  C13 UNL     1      26.551   1.073  53.280  1.00  0.00     0.292 C 
BRANCH  25  26
HETATM   26  N6  UNL     1      27.146  -0.147  53.775  1.00  0.00     0.090 N 
HETATM   27  C14 UNL     1      27.673  -0.939  52.650  1.00  0.00     0.272 C 
HETATM   28  C15 UNL     1      28.556  -2.004  53.220  1.00  0.00     0.030 C 
HETATM   29  C16 UNL     1      29.892  -1.314  53.521  1.00  0.00     0.003 C 
HETATM   30  C17 UNL     1      29.585   0.094  53.991  1.00  0.00     0.030 C 
HETATM   31  C18 UNL     1      28.225   0.134  54.690  1.00  0.00     0.272 C 
ENDBRANCH  25  26
ENDBRANCH  24  25
ENDBRANCH  10  24
TORSDOF 5
ENDMDL
MODEL 9
REMARK VINA RESULT:      -7.4      3.093      6.937
REMARK  5 active torsions:
REMARK  status: ('A' for Active; 'I' for Inactive)
REMARK    1  A    between atoms: N1_1  and  C1_2 
REMARK    2  A    between atoms: N2_8  and  C6_9 
REMARK       I    between atoms: N4_15  and  C11_16 
REMARK       I    between atoms: C11_16  and  N5_18 
REMARK    3  A    between atoms: N5_18  and  C12_19 
REMARK    4  A    between atoms: C12_19  and  C13_20 
REMARK    5  A    between atoms: C13_20  and  N6_21 
ROOT
HETATM    1  C6  UNL     1      24.009   0.606  52.146  1.00  0.00     0.158 C 
HETATM    2  C7  UNL     1      24.952  -0.048  53.218  1.00  0.00     0.118 C 
HETATM    3  N3  UNL     1      25.964   0.323  52.403  1.00  0.00    -0.263 NA
HETATM    4  C8  UNL     1      25.962   1.833  52.443  1.00  0.00     0.055 C 
HETATM    5  C9  UNL     1      25.062   2.392  53.237  1.00  0.00     0.033 C 
HETATM    6  C10 UNL     1      24.082   2.073  52.129  1.00  0.00     0.147 C 
HETATM    7  N4  UNL     1      24.580   2.877  51.016  1.00  0.00    -0.299 N 
HETATM    8  C11 UNL     1      23.622   3.438  50.071  1.00  0.00     0.323 C 
HETATM    9  O1  UNL     1      22.450   3.126  50.379  1.00  0.00    -0.247 OA
HETATM   10  N5  UNL     1      23.981   4.227  48.962  1.00  0.00    -0.341 N 
HETATM   11  C19 UNL     1      26.042   3.244  50.779  1.00  0.00     0.099 C 
HETATM   12  C20 UNL     1      26.669   2.067  51.134  1.00  0.00     0.048 C 
HETATM   13  H9  UNL     1      24.999   4.384  48.855  1.00  0.00     0.164 HD
ENDROOT
BRANCH   1  14
HETATM   14  N2  UNL     1      22.667   0.280  52.679  1.00  0.00    -0.330 N 
HETATM   15  C1  UNL     1      21.346   0.256  52.189  1.00  0.00     0.119 C 
HETATM   16  C2  UNL     1      20.346  -0.114  52.954  1.00  0.00     0.055 C 
HETATM   17 BR1  UNL     1      18.658  -0.152  52.076  1.00  0.00    -0.047 Br
HETATM   18  C3  UNL     1      20.471  -0.469  54.358  1.00  0.00     0.036 C 
HETATM   19  C4  UNL     1      21.711  -0.713  54.679  1.00  0.00    -0.007 C 
HETATM   20  C5  UNL     1      22.706  -0.151  54.063  1.00  0.00     0.106 C 
BRANCH  15  21
HETATM   21  N1  UNL     1      21.187   0.598  50.829  1.00  0.00    -0.384 N 
HETATM   22  H1  UNL     1      20.406   0.413  50.129  1.00  0.00     0.157 HD
HETATM   23  H2  UNL     1      21.542   1.069  49.944  1.00  0.00     0.157 HD
ENDBRANCH  15  21
ENDBRANCH   1  14
BRANCH  10  24
HETATM   24  C12 UNL     1      22.908   4.733  48.085  1.00  0.00     0.154 C 
BRANCH  24  25
HETATM   25  C13 UNL     1      23.329   6.115  47.679  1.00  0.00     0.292 C 
BRANCH  25  26
HETATM   26  N6  UNL     1      22.391   7.114  48.137  1.00  0.00     0.090 N 
HETATM   27  C14 UNL     1      21.218   6.460  48.741  1.00  0.00     0.272 C 
HETATM   28  C15 UNL     1      20.450   7.508  49.486  1.00  0.00     0.030 C 
HETATM   29  C16 UNL     1      21.187   7.691  50.817  1.00  0.00     0.003 C 
HETATM   30  C17 UNL     1      22.671   7.538  50.544  1.00  0.00     0.030 C 
HETATM   31  C18 UNL     1      22.996   7.983  49.117  1.00  0.00     0.272 C 
ENDBRANCH  25  26
ENDBRANCH  24  25
ENDBRANCH  10  24
TORSDOF 5
ENDMDL
