MODEL 1
REMARK VINA RESULT:      -8.1      0.000      0.000
REMARK  5 active torsions:
REMARK  status: ('A' for Active; 'I' for Inactive)
REMARK    1  A    between atoms: O1_1  and  C1_2 
REMARK    2  A    between atoms: N1_4  and  S1_5 
REMARK    3  A    between atoms: C3_7  and  C4_8 
REMARK    4  A    between atoms: C4_8  and  C5_9 
REMARK    5  A    between atoms: C5_9  and  C6_10 
ROOT
HETATM    1  C1  UNL     1      20.696   3.019  52.000  1.00  0.00     0.181 C 
HETATM    2  C2  UNL     1      21.709   3.559  51.327  1.00  0.00     0.195 C 
HETATM    3  N1  UNL     1      22.798   2.698  51.331  1.00  0.00    -0.174 N 
HETATM    4  N2  UNL     1      23.842   2.037  51.688  1.00  0.00    -0.318 NA
HETATM    5  C3  UNL     1      24.818   1.476  51.965  1.00  0.00     0.108 C 
HETATM    6  C12 UNL     1      24.395   0.465  52.936  1.00  0.00     0.036 C 
HETATM    7  C13 UNL     1      23.232   0.179  53.485  1.00  0.00     0.121 A 
HETATM    8  C14 UNL     1      21.851   0.215  53.820  1.00  0.00     0.086 A 
HETATM    9 CL1  UNL     1      22.639  -1.141  54.700  1.00  0.00    -0.194 Cl
HETATM   10  C15 UNL     1      20.618   0.105  54.233  1.00  0.00     0.021 C 
HETATM   11  C16 UNL     1      20.092   1.221  53.472  1.00  0.00     0.117 C 
HETATM   12  N3  UNL     1      19.802   2.234  52.749  1.00  0.00    -0.236 NA
ENDROOT
BRANCH   5  13
HETATM   13  C4  UNL     1      26.261   1.251  51.781  1.00  0.00     0.079 C 
BRANCH  13  14
HETATM   14  C5  UNL     1      26.911   1.150  53.144  1.00  0.00     0.045 C 
BRANCH  14  15
HETATM   15  C6  UNL     1      27.888   0.056  53.222  1.00  0.00    -0.058 A 
HETATM   16  C7  UNL     1      29.221   0.219  53.614  1.00  0.00     0.007 A 
HETATM   17  C8  UNL     1      30.007  -0.903  53.639  1.00  0.00     0.001 A 
HETATM   18  C9  UNL     1      29.544  -2.156  53.301  1.00  0.00     0.000 A 
HETATM   19  C10 UNL     1      28.250  -2.338  52.916  1.00  0.00     0.001 A 
HETATM   20  C11 UNL     1      27.439  -1.223  52.882  1.00  0.00     0.007 A 
ENDBRANCH  14  15
ENDBRANCH  13  14
ENDBRANCH   5  13
BRANCH   3  21
HETATM   21  S1  UNL     1      22.570   2.094  49.667  1.00  0.00    -0.030 SA
HETATM   22  H3  UNL     1      23.890   1.828  49.180  1.00  0.00     0.129 HD
ENDBRANCH   3  21
BRANCH   1  23
HETATM   23  O1  UNL     1      19.517   3.802  52.067  1.00  0.00    -0.344 OA
HETATM   24  H1  UNL     1      18.993   3.984  51.214  1.00  0.00     0.219 HD
ENDBRANCH   1  23
TORSDOF 5
ENDMDL
MODEL 2
REMARK VINA RESULT:      -8.1      1.666      2.343
REMARK  5 active torsions:
REMARK  status: ('A' for Active; 'I' for Inactive)
REMARK    1  A    between atoms: O1_1  and  C1_2 
REMARK    2  A    between atoms: N1_4  and  S1_5 
REMARK    3  A    between atoms: C3_7  and  C4_8 
REMARK    4  A    between atoms: C4_8  and  C5_9 
REMARK    5  A    between atoms: C5_9  and  C6_10 
ROOT
HETATM    1  C1  UNL     1      22.515   4.505  52.163  1.00  0.00     0.181 C 
HETATM    2  C2  UNL     1      23.795   4.307  52.467  1.00  0.00     0.195 C 
HETATM    3  N1  UNL     1      24.061   2.947  52.548  1.00  0.00    -0.174 N 
HETATM    4  N2  UNL     1      24.134   1.730  52.959  1.00  0.00    -0.318 NA
HETATM    5  C3  UNL     1      24.267   0.641  53.333  1.00  0.00     0.108 C 
HETATM    6  C12 UNL     1      22.919   0.070  53.279  1.00  0.00     0.036 C 
HETATM    7  C13 UNL     1      21.746   0.569  52.948  1.00  0.00     0.121 A 
HETATM    8  C14 UNL     1      20.732   1.473  52.531  1.00  0.00     0.086 A 
HETATM    9 CL1  UNL     1      20.001  -0.145  52.820  1.00  0.00    -0.194 Cl
HETATM   10  C15 UNL     1      19.686   2.163  52.163  1.00  0.00     0.021 C 
HETATM   11  C16 UNL     1      20.384   3.417  51.960  1.00  0.00     0.117 C 
HETATM   12  N3  UNL     1      21.147   4.435  51.842  1.00  0.00    -0.236 NA
ENDROOT
BRANCH   5  13
HETATM   13  C4  UNL     1      25.132  -0.459  53.788  1.00  0.00     0.079 C 
BRANCH  13  14
HETATM   14  C5  UNL     1      26.017  -0.884  52.637  1.00  0.00     0.045 C 
BRANCH  14  15
HETATM   15  C6  UNL     1      27.443  -0.879  52.992  1.00  0.00    -0.058 A 
HETATM   16  C7  UNL     1      28.261  -2.014  52.979  1.00  0.00     0.007 A 
HETATM   17  C8  UNL     1      29.573  -1.844  53.333  1.00  0.00     0.001 A 
HETATM   18  C9  UNL     1      30.105  -0.624  53.692  1.00  0.00     0.000 A 
HETATM   19  C10 UNL     1      29.328   0.494  53.712  1.00  0.00     0.001 A 
HETATM   20  C11 UNL     1      28.002   0.348  53.359  1.00  0.00     0.007 A 
ENDBRANCH  14  15
ENDBRANCH  13  14
ENDBRANCH   5  13
BRANCH   3  21
HETATM   21  S1  UNL     1      24.857   2.813  50.956  1.00  0.00    -0.030 SA
HETATM   22  H3  UNL     1      24.801   1.421  50.624  1.00  0.00     0.129 HD
ENDBRANCH   3  21
BRANCH   1  23
HETATM   23  O1  UNL     1      22.114   5.860  52.047  1.00  0.00    -0.344 OA
HETATM   24  H1  UNL     1      21.242   6.158  52.478  1.00  0.00     0.219 HD
ENDBRANCH   1  23
TORSDOF 5
ENDMDL
MODEL 3
REMARK VINA RESULT:      -7.9      3.592      7.247
REMARK  5 active torsions:
REMARK  status: ('A' for Active; 'I' for Inactive)
REMARK    1  A    between atoms: O1_1  and  C1_2 
REMARK    2  A    between atoms: N1_4  and  S1_5 
REMARK    3  A    between atoms: C3_7  and  C4_8 
REMARK    4  A    between atoms: C4_8  and  C5_9 
REMARK    5  A    between atoms: C5_9  and  C6_10 
ROOT
HETATM    1  C1  UNL     1      27.147   2.040  52.595  1.00  0.00     0.181 C 
HETATM    2  C2  UNL     1      26.891   1.183  53.580  1.00  0.00     0.195 C 
HETATM    3  N1  UNL     1      25.697   0.518  53.334  1.00  0.00    -0.174 N 
HETATM    4  N2  UNL     1      24.447   0.233  53.228  1.00  0.00    -0.318 NA
HETATM    5  C3  UNL     1      23.329  -0.069  53.180  1.00  0.00     0.108 C 
HETATM    6  C12 UNL     1      22.795   0.686  52.045  1.00  0.00     0.036 C 
HETATM    7  C13 UNL     1      23.329   1.562  51.219  1.00  0.00     0.121 A 
HETATM    8  C14 UNL     1      24.263   2.425  50.584  1.00  0.00     0.086 A 
HETATM    9 CL1  UNL     1      22.688   2.518  49.720  1.00  0.00    -0.194 Cl
HETATM   10  C15 UNL     1      24.987   3.258  49.886  1.00  0.00     0.021 C 
HETATM   11  C16 UNL     1      26.204   3.100  50.658  1.00  0.00     0.117 C 
HETATM   12  N3  UNL     1      27.178   2.851  51.446  1.00  0.00    -0.236 NA
ENDROOT
BRANCH   5  13
HETATM   13  C4  UNL     1      22.199  -0.874  53.671  1.00  0.00     0.079 C 
BRANCH  13  14
HETATM   14  C5  UNL     1      21.053   0.056  54.006  1.00  0.00     0.045 C 
BRANCH  14  15
HETATM   15  C6  UNL     1      19.793  -0.351  53.370  1.00  0.00    -0.058 A 
HETATM   16  C7  UNL     1      19.026  -1.449  53.774  1.00  0.00     0.007 A 
HETATM   17  C8  UNL     1      17.871  -1.695  53.080  1.00  0.00     0.001 A 
HETATM   18  C9  UNL     1      17.447  -0.919  52.022  1.00  0.00     0.000 A 
HETATM   19  C10 UNL     1      18.178   0.154  51.611  1.00  0.00     0.001 A 
HETATM   20  C11 UNL     1      19.345   0.422  52.295  1.00  0.00     0.007 A 
ENDBRANCH  14  15
ENDBRANCH  13  14
ENDBRANCH   5  13
BRANCH   3  21
HETATM   21  S1  UNL     1      26.439  -1.006  52.773  1.00  0.00    -0.030 SA
HETATM   22  H3  UNL     1      27.834  -0.717  52.640  1.00  0.00     0.129 HD
ENDBRANCH   3  21
BRANCH   1  23
HETATM   23  O1  UNL     1      28.347   2.784  52.725  1.00  0.00    -0.344 OA
HETATM   24  H1  UNL     1      28.750   2.915  53.650  1.00  0.00     0.219 HD
ENDBRANCH   1  23
TORSDOF 5
ENDMDL
MODEL 4
REMARK VINA RESULT:      -7.9      3.164      4.796
REMARK  5 active torsions:
REMARK  status: ('A' for Active; 'I' for Inactive)
REMARK    1  A    between atoms: O1_1  and  C1_2 
REMARK    2  A    between atoms: N1_4  and  S1_5 
REMARK    3  A    between atoms: C3_7  and  C4_8 
REMARK    4  A    between atoms: C4_8  and  C5_9 
REMARK    5  A    between atoms: C5_9  and  C6_10 
ROOT
HETATM    1  C1  UNL     1      20.665   3.146  51.970  1.00  0.00     0.181 C 
HETATM    2  C2  UNL     1      21.402   4.021  51.292  1.00  0.00     0.195 C 
HETATM    3  N1  UNL     1      22.672   3.503  51.070  1.00  0.00    -0.174 N 
HETATM    4  N2  UNL     1      23.890   3.124  51.228  1.00  0.00    -0.318 NA
HETATM    5  C3  UNL     1      25.007   2.829  51.328  1.00  0.00     0.108 C 
HETATM    6  C12 UNL     1      24.995   1.636  52.177  1.00  0.00     0.036 C 
HETATM    7  C13 UNL     1      24.030   0.976  52.784  1.00  0.00     0.121 A 
HETATM    8  C14 UNL     1      22.744   0.586  53.247  1.00  0.00     0.086 A 
HETATM    9 CL1  UNL     1      23.970  -0.588  53.844  1.00  0.00    -0.194 Cl
HETATM   10  C15 UNL     1      21.648   0.090  53.753  1.00  0.00     0.021 C 
HETATM   11  C16 UNL     1      20.753   1.095  53.215  1.00  0.00     0.117 C 
HETATM   12  N3  UNL     1      20.114   2.062  52.676  1.00  0.00    -0.236 NA
ENDROOT
BRANCH   5  13
HETATM   13  C4  UNL     1      26.422   3.039  50.981  1.00  0.00     0.079 C 
BRANCH  13  14
HETATM   14  C5  UNL     1      26.537   3.152  49.476  1.00  0.00     0.045 C 
BRANCH  14  15
HETATM   15  C6  UNL     1      26.726   4.538  49.028  1.00  0.00    -0.058 A 
HETATM   16  C7  UNL     1      25.717   5.507  49.020  1.00  0.00     0.007 A 
HETATM   17  C8  UNL     1      26.054   6.758  48.576  1.00  0.00     0.001 A 
HETATM   18  C9  UNL     1      27.322   7.090  48.147  1.00  0.00     0.000 A 
HETATM   19  C10 UNL     1      28.319   6.163  48.146  1.00  0.00     0.001 A 
HETATM   20  C11 UNL     1      28.004   4.895  48.589  1.00  0.00     0.007 A 
ENDBRANCH  14  15
ENDBRANCH  13  14
ENDBRANCH   5  13
BRANCH   3  21
HETATM   21  S1  UNL     1      22.399   3.055  49.363  1.00  0.00    -0.030 SA
HETATM   22  H3  UNL     1      21.950   4.255  48.726  1.00  0.00     0.129 HD
ENDBRANCH   3  21
BRANCH   1  23
HETATM   23  O1  UNL     1      19.339   3.556  52.260  1.00  0.00    -0.344 OA
HETATM   24  H1  UNL     1      18.615   3.423  51.559  1.00  0.00     0.219 HD
ENDBRANCH   1  23
TORSDOF 5
ENDMDL
MODEL 5
REMARK VINA RESULT:      -7.9      1.889      2.414
REMARK  5 active torsions:
REMARK  status: ('A' for Active; 'I' for Inactive)
REMARK    1  A    between atoms: O1_1  and  C1_2 
REMARK    2  A    between atoms: N1_4  and  S1_5 
REMARK    3  A    between atoms: C3_7  and  C4_8 
REMARK    4  A    between atoms: C4_8  and  C5_9 
REMARK    5  A    between atoms: C5_9  and  C6_10 
ROOT
HETATM    1  C1  UNL     1      22.487   5.503  51.358  1.00  0.00     0.181 C 
HETATM    2  C2  UNL     1      23.800   5.635  51.189  1.00  0.00     0.195 C 
HETATM    3  N1  UNL     1      24.403   4.384  51.145  1.00  0.00    -0.174 N 
HETATM    4  N2  UNL     1      24.908   3.250  51.480  1.00  0.00    -0.318 NA
HETATM    5  C3  UNL     1      25.424   2.250  51.762  1.00  0.00     0.108 C 
HETATM    6  C12 UNL     1      24.323   1.375  52.172  1.00  0.00     0.036 C 
HETATM    7  C13 UNL     1      23.024   1.560  52.284  1.00  0.00     0.121 A 
HETATM    8  C14 UNL     1      21.740   2.169  52.266  1.00  0.00     0.086 A 
HETATM    9 CL1  UNL     1      21.572   0.447  52.761  1.00  0.00    -0.194 Cl
HETATM   10  C15 UNL     1      20.496   2.566  52.303  1.00  0.00     0.021 C 
HETATM   11  C16 UNL     1      20.752   3.933  51.893  1.00  0.00     0.117 C 
HETATM   12  N3  UNL     1      21.155   5.091  51.535  1.00  0.00    -0.236 NA
ENDROOT
BRANCH   5  13
HETATM   13  C4  UNL     1      26.633   1.418  51.863  1.00  0.00     0.079 C 
BRANCH  13  14
HETATM   14  C5  UNL     1      26.228   0.030  52.308  1.00  0.00     0.045 C 
BRANCH  14  15
HETATM   15  C6  UNL     1      27.380  -0.794  52.700  1.00  0.00    -0.058 A 
HETATM   16  C7  UNL     1      27.416  -2.190  52.609  1.00  0.00     0.007 A 
HETATM   17  C8  UNL     1      28.568  -2.813  53.013  1.00  0.00     0.001 A 
HETATM   18  C9  UNL     1      29.666  -2.132  53.493  1.00  0.00     0.000 A 
HETATM   19  C10 UNL     1      29.652  -0.773  53.591  1.00  0.00     0.001 A 
HETATM   20  C11 UNL     1      28.503  -0.123  53.191  1.00  0.00     0.007 A 
ENDBRANCH  14  15
ENDBRANCH  13  14
ENDBRANCH   5  13
BRANCH   3  21
HETATM   21  S1  UNL     1      24.609   4.334  49.373  1.00  0.00    -0.030 SA
HETATM   22  H3  UNL     1      24.213   3.014  48.985  1.00  0.00     0.129 HD
ENDBRANCH   3  21
BRANCH   1  23
HETATM   23  O1  UNL     1      21.753   6.715  51.417  1.00  0.00    -0.344 OA
HETATM   24  H1  UNL     1      22.194   7.543  51.808  1.00  0.00     0.219 HD
ENDBRANCH   1  23
TORSDOF 5
ENDMDL
MODEL 6
REMARK VINA RESULT:      -7.8      3.638      5.585
REMARK  5 active torsions:
REMARK  status: ('A' for Active; 'I' for Inactive)
REMARK    1  A    between atoms: O1_1  and  C1_2 
REMARK    2  A    between atoms: N1_4  and  S1_5 
REMARK    3  A    between atoms: C3_7  and  C4_8 
REMARK    4  A    between atoms: C4_8  and  C5_9 
REMARK    5  A    between atoms: C5_9  and  C6_10 
ROOT
HETATM    1  C1  UNL     1      24.707  -0.484  54.216  1.00  0.00     0.181 C 
HETATM    2  C2  UNL     1      25.500   0.189  53.385  1.00  0.00     0.195 C 
HETATM    3  N1  UNL     1      24.738   0.983  52.538  1.00  0.00    -0.174 N 
HETATM    4  N2  UNL     1      23.976   1.382  51.582  1.00  0.00    -0.318 NA
HETATM    5  C3  UNL     1      23.341   1.777  50.696  1.00  0.00     0.108 C 
HETATM    6  C12 UNL     1      21.986   1.295  50.975  1.00  0.00     0.036 C 
HETATM    7  C13 UNL     1      21.478   0.552  51.936  1.00  0.00     0.121 A 
HETATM    8  C14 UNL     1      21.359  -0.247  53.105  1.00  0.00     0.086 A 
HETATM    9 CL1  UNL     1      19.735  -0.048  52.355  1.00  0.00    -0.194 Cl
HETATM   10  C15 UNL     1      21.071  -0.989  54.141  1.00  0.00     0.021 C 
HETATM   11  C16 UNL     1      22.423  -1.078  54.655  1.00  0.00     0.117 C 
HETATM   12  N3  UNL     1      23.664  -1.062  54.960  1.00  0.00    -0.236 NA
ENDROOT
BRANCH   5  13
HETATM   13  C4  UNL     1      23.221   2.562  49.457  1.00  0.00     0.079 C 
BRANCH  13  14
HETATM   14  C5  UNL     1      23.454   4.021  49.787  1.00  0.00     0.045 C 
BRANCH  14  15
HETATM   15  C6  UNL     1      24.797   4.477  49.403  1.00  0.00    -0.058 A 
HETATM   16  C7  UNL     1      25.953   3.697  49.508  1.00  0.00     0.007 A 
HETATM   17  C8  UNL     1      27.132   4.267  49.103  1.00  0.00     0.001 A 
HETATM   18  C9  UNL     1      27.218   5.550  48.609  1.00  0.00     0.000 A 
HETATM   19  C10 UNL     1      26.105   6.329  48.499  1.00  0.00     0.001 A 
HETATM   20  C11 UNL     1      24.906   5.776  48.900  1.00  0.00     0.007 A 
ENDBRANCH  14  15
ENDBRANCH  13  14
ENDBRANCH   5  13
BRANCH   3  21
HETATM   21  S1  UNL     1      25.039   2.520  53.393  1.00  0.00    -0.030 SA
HETATM   22  H3  UNL     1      23.859   2.757  54.167  1.00  0.00     0.129 HD
ENDBRANCH   3  21
BRANCH   1  23
HETATM   23  O1  UNL     1      25.367  -1.333  55.140  1.00  0.00    -0.344 OA
HETATM   24  H1  UNL     1      25.116  -1.285  56.124  1.00  0.00     0.219 HD
ENDBRANCH   1  23
TORSDOF 5
ENDMDL
MODEL 7
REMARK VINA RESULT:      -7.8      2.279      3.097
REMARK  5 active torsions:
REMARK  status: ('A' for Active; 'I' for Inactive)
REMARK    1  A    between atoms: O1_1  and  C1_2 
REMARK    2  A    between atoms: N1_4  and  S1_5 
REMARK    3  A    between atoms: C3_7  and  C4_8 
REMARK    4  A    between atoms: C4_8  and  C5_9 
REMARK    5  A    between atoms: C5_9  and  C6_10 
ROOT
HETATM    1  C1  UNL     1      19.660   1.436  51.975  1.00  0.00     0.181 C 
HETATM    2  C2  UNL     1      20.037   0.186  52.231  1.00  0.00     0.195 C 
HETATM    3  N1  UNL     1      21.315   0.176  52.776  1.00  0.00    -0.174 N 
HETATM    4  N2  UNL     1      22.592   0.223  52.917  1.00  0.00    -0.318 NA
HETATM    5  C3  UNL     1      23.743   0.201  53.060  1.00  0.00     0.108 C 
HETATM    6  C12 UNL     1      24.162   1.591  52.862  1.00  0.00     0.036 C 
HETATM    7  C13 UNL     1      23.506   2.690  52.550  1.00  0.00     0.121 A 
HETATM    8  C14 UNL     1      22.457   3.586  52.211  1.00  0.00     0.086 A 
HETATM    9 CL1  UNL     1      24.002   4.501  52.333  1.00  0.00    -0.194 Cl
HETATM   10  C15 UNL     1      21.621   4.540  51.901  1.00  0.00     0.021 C 
HETATM   11  C16 UNL     1      20.440   3.702  51.833  1.00  0.00     0.117 C 
HETATM   12  N3  UNL     1      19.512   2.824  51.806  1.00  0.00    -0.236 NA
ENDROOT
BRANCH   5  13
HETATM   13  C4  UNL     1      24.977  -0.528  53.391  1.00  0.00     0.079 C 
BRANCH  13  14
HETATM   14  C5  UNL     1      26.027  -0.196  52.354  1.00  0.00     0.045 C 
BRANCH  14  15
HETATM   15  C6  UNL     1      27.390  -0.488  52.818  1.00  0.00    -0.058 A 
HETATM   16  C7  UNL     1      27.955  -1.768  52.845  1.00  0.00     0.007 A 
HETATM   17  C8  UNL     1      29.242  -1.874  53.303  1.00  0.00     0.001 A 
HETATM   18  C9  UNL     1      29.983  -0.793  53.728  1.00  0.00     0.000 A 
HETATM   19  C10 UNL     1      29.453   0.462  53.712  1.00  0.00     0.001 A 
HETATM   20  C11 UNL     1      28.158   0.595  53.254  1.00  0.00     0.007 A 
ENDBRANCH  14  15
ENDBRANCH  13  14
ENDBRANCH   5  13
BRANCH   3  21
HETATM   21  S1  UNL     1      20.800  -0.083  54.466  1.00  0.00    -0.030 SA
HETATM   22  H3  UNL     1      20.356  -1.442  54.519  1.00  0.00     0.129 HD
ENDBRANCH   3  21
BRANCH   1  23
HETATM   23  O1  UNL     1      18.366   1.582  51.415  1.00  0.00    -0.344 OA
HETATM   24  H1  UNL     1      18.274   1.766  50.419  1.00  0.00     0.219 HD
ENDBRANCH   1  23
TORSDOF 5
ENDMDL
MODEL 8
REMARK VINA RESULT:      -7.7      3.472      5.465
REMARK  5 active torsions:
REMARK  status: ('A' for Active; 'I' for Inactive)
REMARK    1  A    between atoms: O1_1  and  C1_2 
REMARK    2  A    between atoms: N1_4  and  S1_5 
REMARK    3  A    between atoms: C3_7  and  C4_8 
REMARK    4  A    between atoms: C4_8  and  C5_9 
REMARK    5  A    between atoms: C5_9  and  C6_10 
ROOT
HETATM    1  C1  UNL     1      21.625  -0.340  54.110  1.00  0.00     0.181 C 
HETATM    2  C2  UNL     1      20.893   0.568  53.470  1.00  0.00     0.195 C 
HETATM    3  N1  UNL     1      21.703   1.342  52.650  1.00  0.00    -0.174 N 
HETATM    4  N2  UNL     1      22.539   2.221  52.223  1.00  0.00    -0.318 NA
HETATM    5  C3  UNL     1      23.242   3.044  51.807  1.00  0.00     0.108 C 
HETATM    6  C12 UNL     1      24.580   2.632  52.235  1.00  0.00     0.036 C 
HETATM    7  C13 UNL     1      25.019   1.621  52.957  1.00  0.00     0.121 A 
HETATM    8  C14 UNL     1      25.055   0.442  53.748  1.00  0.00     0.086 A 
HETATM    9 CL1  UNL     1      26.735   1.032  53.489  1.00  0.00    -0.194 Cl
HETATM   10  C15 UNL     1      25.268  -0.621  54.476  1.00  0.00     0.021 C 
HETATM   11  C16 UNL     1      23.877  -1.002  54.616  1.00  0.00     0.117 C 
HETATM   12  N3  UNL     1      22.612  -1.185  54.647  1.00  0.00    -0.236 NA
ENDROOT
BRANCH   5  13
HETATM   13  C4  UNL     1      23.451   4.269  51.019  1.00  0.00     0.079 C 
BRANCH  13  14
HETATM   14  C5  UNL     1      23.915   3.879  49.633  1.00  0.00     0.045 C 
BRANCH  14  15
HETATM   15  C6  UNL     1      25.164   4.549  49.247  1.00  0.00    -0.058 A 
HETATM   16  C7  UNL     1      26.425   3.944  49.283  1.00  0.00     0.007 A 
HETATM   17  C8  UNL     1      27.495   4.704  48.887  1.00  0.00     0.001 A 
HETATM   18  C9  UNL     1      27.377   6.010  48.464  1.00  0.00     0.000 A 
HETATM   19  C10 UNL     1      26.159   6.619  48.422  1.00  0.00     0.001 A 
HETATM   20  C11 UNL     1      25.067   5.875  48.816  1.00  0.00     0.007 A 
ENDBRANCH  14  15
ENDBRANCH  13  14
ENDBRANCH   5  13
BRANCH   3  21
HETATM   21  S1  UNL     1      21.261   0.529  51.123  1.00  0.00    -0.030 SA
HETATM   22  H3  UNL     1      22.488   0.399  50.398  1.00  0.00     0.129 HD
ENDBRANCH   3  21
BRANCH   1  23
HETATM   23  O1  UNL     1      20.911  -1.200  54.982  1.00  0.00    -0.344 OA
HETATM   24  H1  UNL     1      19.901  -1.272  54.889  1.00  0.00     0.219 HD
ENDBRANCH   1  23
TORSDOF 5
ENDMDL
MODEL 9
REMARK VINA RESULT:      -7.7      2.973      7.086
REMARK  5 active torsions:
REMARK  status: ('A' for Active; 'I' for Inactive)
REMARK    1  A    between atoms: O1_1  and  C1_2 
REMARK    2  A    between atoms: N1_4  and  S1_5 
REMARK    3  A    between atoms: C3_7  and  C4_8 
REMARK    4  A    between atoms: C4_8  and  C5_9 
REMARK    5  A    between atoms: C5_9  and  C6_10 
ROOT
HETATM    1  C1  UNL     1      26.550   2.373  52.162  1.00  0.00     0.181 C 
HETATM    2  C2  UNL     1      25.692   2.668  51.190  1.00  0.00     0.195 C 
HETATM    3  N1  UNL     1      24.439   2.148  51.486  1.00  0.00    -0.174 N 
HETATM    4  N2  UNL     1      23.447   1.344  51.646  1.00  0.00    -0.318 NA
HETATM    5  C3  UNL     1      22.522   0.652  51.741  1.00  0.00     0.108 C 
HETATM    6  C12 UNL     1      22.817  -0.196  52.897  1.00  0.00     0.036 C 
HETATM    7  C13 UNL     1      23.858  -0.289  53.698  1.00  0.00     0.121 A 
HETATM    8  C14 UNL     1      25.130  -0.066  54.292  1.00  0.00     0.086 A 
HETATM    9 CL1  UNL     1      24.256  -1.334  55.223  1.00  0.00    -0.194 Cl
HETATM   10  C15 UNL     1      26.250   0.012  54.958  1.00  0.00     0.021 C 
HETATM   11  C16 UNL     1      26.855   1.041  54.136  1.00  0.00     0.117 C 
HETATM   12  N3  UNL     1      27.238   1.934  53.307  1.00  0.00    -0.236 NA
ENDROOT
BRANCH   5  13
HETATM   13  C4  UNL     1      21.179   0.245  51.299  1.00  0.00     0.079 C 
BRANCH  13  14
HETATM   14  C5  UNL     1      20.163   0.783  52.282  1.00  0.00     0.045 C 
BRANCH  14  15
HETATM   15  C6  UNL     1      18.950  -0.043  52.349  1.00  0.00    -0.058 A 
HETATM   16  C7  UNL     1      17.838   0.123  51.516  1.00  0.00     0.007 A 
HETATM   17  C8  UNL     1      16.784  -0.733  51.700  1.00  0.00     0.001 A 
HETATM   18  C9  UNL     1      16.780  -1.728  52.654  1.00  0.00     0.000 A 
HETATM   19  C10 UNL     1      17.851  -1.908  53.477  1.00  0.00     0.001 A 
HETATM   20  C11 UNL     1      18.924  -1.058  53.310  1.00  0.00     0.007 A 
ENDBRANCH  14  15
ENDBRANCH  13  14
ENDBRANCH   5  13
BRANCH   3  21
HETATM   21  S1  UNL     1      23.712   3.689  52.017  1.00  0.00    -0.030 SA
HETATM   22  H3  UNL     1      22.693   3.322  52.953  1.00  0.00     0.129 HD
ENDBRANCH   3  21
BRANCH   1  23
HETATM   23  O1  UNL     1      27.872   2.853  51.980  1.00  0.00    -0.344 OA
HETATM   24  H1  UNL     1      28.602   2.548  52.617  1.00  0.00     0.219 HD
ENDBRANCH   1  23
TORSDOF 5
ENDMDL
