MODEL 1
REMARK VINA RESULT:      -8.6      0.000      0.000
REMARK  3 active torsions:
REMARK  status: ('A' for Active; 'I' for Inactive)
REMARK    1  A    between atoms: O1_1  and  C1_2 
REMARK    2  A    between atoms: C14_17  and  N3_18 
REMARK    3  A    between atoms: N3_18  and  C15_19 
ROOT
HETATM    1  C1  UNL     1      25.289   7.228  49.901  1.00  0.00     0.071 C 
HETATM    2  C2  UNL     1      25.480   6.609  48.713  1.00  0.00     0.067 C 
HETATM    3  C3  UNL     1      24.177   6.789  47.942  1.00  0.00     0.096 C 
HETATM    4  C4  UNL     1      23.198   6.022  48.801  1.00  0.00    -0.074 C 
HETATM    5  C5  UNL     1      22.953   6.698  49.955  1.00  0.00    -0.017 C 
HETATM    6  C6  UNL     1      23.964   7.730  50.434  1.00  0.00     0.093 C 
HETATM    7  C7  UNL     1      22.472   4.687  48.674  1.00  0.00     0.062 C 
HETATM    8  C8  UNL     1      22.697   3.970  49.986  1.00  0.00    -0.007 C 
HETATM    9  C9  UNL     1      23.951   3.678  50.252  1.00  0.00     0.007 C 
HETATM   10  C10 UNL     1      25.094   3.974  49.409  1.00  0.00     0.025 C 
HETATM   11  C11 UNL     1      26.381   3.847  49.625  1.00  0.00    -0.020 C 
HETATM   12  C12 UNL     1      27.146   4.868  48.870  1.00  0.00     0.126 C 
HETATM   13  N1  UNL     1      26.729   6.000  48.515  1.00  0.00    -0.262 NA
HETATM   14  C13 UNL     1      26.487   2.739  50.564  1.00  0.00     0.191 C 
HETATM   15  N2  UNL     1      25.641   2.984  51.764  1.00  0.00    -0.267 NA
HETATM   16  C14 UNL     1      24.356   3.135  51.539  1.00  0.00     0.133 C 
ENDROOT
BRANCH  16  17
HETATM   17  N3  UNL     1      23.421   2.779  52.538  1.00  0.00    -0.341 N 
HETATM   18  H14 UNL     1      22.982   3.590  53.013  1.00  0.00     0.167 HD
BRANCH  17  19
HETATM   19  C15 UNL     1      23.091   1.447  52.883  1.00  0.00     0.035 A 
HETATM   20  C16 UNL     1      23.931   0.421  53.221  1.00  0.00     0.029 A 
HETATM   21  C17 UNL     1      23.501  -0.845  53.549  1.00  0.00     0.004 A 
HETATM   22  C18 UNL     1      22.160  -1.156  53.555  1.00  0.00     0.019 A 
HETATM   23  C19 UNL     1      21.282  -0.141  53.218  1.00  0.00     0.013 A 
HETATM   24 BR1  UNL     1      19.423  -0.513  53.210  1.00  0.00    -0.051 Br
HETATM   25  C20 UNL     1      21.756   1.099  52.900  1.00  0.00     0.048 A 
ENDBRANCH  17  19
ENDBRANCH  16  17
BRANCH   1  26
HETATM   26  O1  UNL     1      26.411   7.435  50.738  1.00  0.00    -0.363 OA
HETATM   27  H1  UNL     1      26.518   8.427  50.993  1.00  0.00     0.217 HD
ENDBRANCH   1  26
TORSDOF 3
ENDMDL
MODEL 2
REMARK VINA RESULT:      -8.2      2.904      4.895
REMARK  3 active torsions:
REMARK  status: ('A' for Active; 'I' for Inactive)
REMARK    1  A    between atoms: O1_1  and  C1_2 
REMARK    2  A    between atoms: C14_17  and  N3_18 
REMARK    3  A    between atoms: N3_18  and  C15_19 
ROOT
HETATM    1  C1  UNL     1      20.000   2.259  51.014  1.00  0.00     0.071 C 
HETATM    2  C2  UNL     1      19.698   3.077  49.979  1.00  0.00     0.067 C 
HETATM    3  C3  UNL     1      19.862   2.229  48.723  1.00  0.00     0.096 C 
HETATM    4  C4  UNL     1      21.341   1.913  48.751  1.00  0.00    -0.074 C 
HETATM    5  C5  UNL     1      21.615   1.026  49.744  1.00  0.00    -0.017 C 
HETATM    6  C6  UNL     1      20.638   0.891  50.902  1.00  0.00     0.093 C 
HETATM    7  C7  UNL     1      22.555   2.381  47.955  1.00  0.00     0.062 C 
HETATM    8  C8  UNL     1      23.600   2.755  48.981  1.00  0.00    -0.007 C 
HETATM    9  C9  UNL     1      23.274   3.756  49.768  1.00  0.00     0.007 C 
HETATM   10  C10 UNL     1      22.035   4.508  49.722  1.00  0.00     0.025 C 
HETATM   11  C11 UNL     1      21.554   5.428  50.524  1.00  0.00    -0.020 C 
HETATM   12  C12 UNL     1      20.072   5.397  50.535  1.00  0.00     0.126 C 
HETATM   13  N1  UNL     1      19.346   4.397  50.303  1.00  0.00    -0.262 NA
HETATM   14  C13 UNL     1      22.731   6.074  51.087  1.00  0.00     0.191 C 
HETATM   15  N2  UNL     1      23.637   5.069  51.708  1.00  0.00    -0.267 NA
HETATM   16  C14 UNL     1      24.095   4.136  50.907  1.00  0.00     0.133 C 
ENDROOT
BRANCH  16  17
HETATM   17  N3  UNL     1      25.346   3.533  51.172  1.00  0.00    -0.341 N 
HETATM   18  H14 UNL     1      26.160   4.131  50.938  1.00  0.00     0.167 HD
BRANCH  17  19
HETATM   19  C15 UNL     1      25.508   2.234  51.709  1.00  0.00     0.035 A 
HETATM   20  C16 UNL     1      26.622   1.440  51.699  1.00  0.00     0.029 A 
HETATM   21  C17 UNL     1      26.673   0.185  52.262  1.00  0.00     0.004 A 
HETATM   22  C18 UNL     1      25.571  -0.355  52.884  1.00  0.00     0.019 A 
HETATM   23  C19 UNL     1      24.426   0.422  52.913  1.00  0.00     0.013 A 
HETATM   24 BR1  UNL     1      22.878  -0.273  53.758  1.00  0.00    -0.051 Br
HETATM   25  C20 UNL     1      24.424   1.661  52.342  1.00  0.00     0.048 A 
ENDBRANCH  17  19
ENDBRANCH  16  17
BRANCH   1  26
HETATM   26  O1  UNL     1      19.704   2.699  52.325  1.00  0.00    -0.363 OA
HETATM   27  H1  UNL     1      19.835   1.949  53.018  1.00  0.00     0.217 HD
ENDBRANCH   1  26
TORSDOF 3
ENDMDL
MODEL 3
REMARK VINA RESULT:      -8.0      3.208      4.929
REMARK  3 active torsions:
REMARK  status: ('A' for Active; 'I' for Inactive)
REMARK    1  A    between atoms: O1_1  and  C1_2 
REMARK    2  A    between atoms: C14_17  and  N3_18 
REMARK    3  A    between atoms: N3_18  and  C15_19 
ROOT
HETATM    1  C1  UNL     1      20.325   4.074  50.602  1.00  0.00     0.071 C 
HETATM    2  C2  UNL     1      20.445   3.289  49.506  1.00  0.00     0.067 C 
HETATM    3  C3  UNL     1      19.770   1.971  49.870  1.00  0.00     0.096 C 
HETATM    4  C4  UNL     1      20.648   1.470  50.994  1.00  0.00    -0.074 C 
HETATM    5  C5  UNL     1      20.455   2.219  52.113  1.00  0.00    -0.017 C 
HETATM    6  C6  UNL     1      19.872   3.617  51.972  1.00  0.00     0.093 C 
HETATM    7  C7  UNL     1      21.690   0.366  51.134  1.00  0.00     0.062 C 
HETATM    8  C8  UNL     1      22.894   1.015  51.778  1.00  0.00    -0.007 C 
HETATM    9  C9  UNL     1      23.462   1.963  51.066  1.00  0.00     0.007 C 
HETATM   10  C10 UNL     1      23.042   2.411  49.752  1.00  0.00     0.025 C 
HETATM   11  C11 UNL     1      23.447   3.417  49.014  1.00  0.00    -0.020 C 
HETATM   12  C12 UNL     1      22.346   3.920  48.158  1.00  0.00     0.126 C 
HETATM   13  N1  UNL     1      21.115   3.844  48.405  1.00  0.00    -0.262 NA
HETATM   14  C13 UNL     1      24.837   3.616  49.397  1.00  0.00     0.191 C 
HETATM   15  N2  UNL     1      24.957   3.793  50.870  1.00  0.00    -0.267 NA
HETATM   16  C14 UNL     1      24.527   2.794  51.605  1.00  0.00     0.133 C 
ENDROOT
BRANCH  16  17
HETATM   17  N3  UNL     1      25.096   2.562  52.879  1.00  0.00    -0.341 N 
HETATM   18  H14 UNL     1      24.551   2.964  53.663  1.00  0.00     0.167 HD
BRANCH  17  19
HETATM   19  C15 UNL     1      26.300   1.850  53.097  1.00  0.00     0.035 A 
HETATM   20  C16 UNL     1      27.497   2.323  53.561  1.00  0.00     0.029 A 
HETATM   21  C17 UNL     1      28.612   1.535  53.746  1.00  0.00     0.004 A 
HETATM   22  C18 UNL     1      28.579   0.189  53.461  1.00  0.00     0.019 A 
HETATM   23  C19 UNL     1      27.383  -0.322  52.990  1.00  0.00     0.013 A 
HETATM   24 BR1  UNL     1      27.282  -2.171  52.583  1.00  0.00    -0.051 Br
HETATM   25  C20 UNL     1      26.305   0.498  52.824  1.00  0.00     0.048 A 
ENDBRANCH  17  19
ENDBRANCH  16  17
BRANCH   1  26
HETATM   26  O1  UNL     1      20.647   5.446  50.482  1.00  0.00    -0.363 OA
HETATM   27  H1  UNL     1      19.814   6.017  50.282  1.00  0.00     0.217 HD
ENDBRANCH   1  26
TORSDOF 3
ENDMDL
MODEL 4
REMARK VINA RESULT:      -7.8      2.822      4.609
REMARK  3 active torsions:
REMARK  status: ('A' for Active; 'I' for Inactive)
REMARK    1  A    between atoms: O1_1  and  C1_2 
REMARK    2  A    between atoms: C14_17  and  N3_18 
REMARK    3  A    between atoms: N3_18  and  C15_19 
ROOT
HETATM    1  C1  UNL     1      23.960   3.985  52.021  1.00  0.00     0.071 C 
HETATM    2  C2  UNL     1      24.730   3.050  51.419  1.00  0.00     0.067 C 
HETATM    3  C3  UNL     1      24.471   3.205  49.924  1.00  0.00     0.096 C 
HETATM    4  C4  UNL     1      23.005   2.848  49.823  1.00  0.00    -0.074 C 
HETATM    5  C5  UNL     1      22.241   3.836  50.359  1.00  0.00    -0.017 C 
HETATM    6  C6  UNL     1      22.872   4.799  51.353  1.00  0.00     0.093 C 
HETATM    7  C7  UNL     1      22.224   1.648  49.297  1.00  0.00     0.062 C 
HETATM    8  C8  UNL     1      21.244   1.284  50.388  1.00  0.00    -0.007 C 
HETATM    9  C9  UNL     1      21.791   0.895  51.519  1.00  0.00     0.007 C 
HETATM   10  C10 UNL     1      23.212   0.783  51.786  1.00  0.00     0.025 C 
HETATM   11  C11 UNL     1      23.864   0.532  52.896  1.00  0.00    -0.020 C 
HETATM   12  C12 UNL     1      25.192   1.191  52.889  1.00  0.00     0.126 C 
HETATM   13  N1  UNL     1      25.503   2.235  52.260  1.00  0.00    -0.262 NA
HETATM   14  C13 UNL     1      22.950  -0.286  53.680  1.00  0.00     0.191 C 
HETATM   15  N2  UNL     1      21.633   0.391  53.831  1.00  0.00    -0.267 NA
HETATM   16  C14 UNL     1      20.997   0.663  52.715  1.00  0.00     0.133 C 
ENDROOT
BRANCH  16  17
HETATM   17  N3  UNL     1      19.584   0.728  52.710  1.00  0.00    -0.341 N 
HETATM   18  H14 UNL     1      19.207   1.687  52.596  1.00  0.00     0.167 HD
BRANCH  17  19
HETATM   19  C15 UNL     1      18.733  -0.395  52.846  1.00  0.00     0.035 A 
HETATM   20  C16 UNL     1      18.920  -1.518  53.606  1.00  0.00     0.029 A 
HETATM   21  C17 UNL     1      18.017  -2.556  53.673  1.00  0.00     0.004 A 
HETATM   22  C18 UNL     1      16.844  -2.518  52.955  1.00  0.00     0.019 A 
HETATM   23  C19 UNL     1      16.624  -1.396  52.175  1.00  0.00     0.013 A 
HETATM   24 BR1  UNL     1      15.023  -1.291  51.166  1.00  0.00    -0.051 Br
HETATM   25  C20 UNL     1      17.547  -0.392  52.142  1.00  0.00     0.048 A 
ENDBRANCH  17  19
ENDBRANCH  16  17
BRANCH   1  26
HETATM   26  O1  UNL     1      24.170   4.243  53.396  1.00  0.00    -0.363 OA
HETATM   27  H1  UNL     1      25.137   4.032  53.680  1.00  0.00     0.217 HD
ENDBRANCH   1  26
TORSDOF 3
ENDMDL
MODEL 5
REMARK VINA RESULT:      -7.7      7.432     10.037
REMARK  3 active torsions:
REMARK  status: ('A' for Active; 'I' for Inactive)
REMARK    1  A    between atoms: O1_1  and  C1_2 
REMARK    2  A    between atoms: C14_17  and  N3_18 
REMARK    3  A    between atoms: N3_18  and  C15_19 
ROOT
HETATM    1  C1  UNL     1      30.223   8.955  45.596  1.00  0.00     0.071 C 
HETATM    2  C2  UNL     1      29.355   9.396  46.536  1.00  0.00     0.067 C 
HETATM    3  C3  UNL     1      30.099  10.481  47.307  1.00  0.00     0.096 C 
HETATM    4  C4  UNL     1      31.228   9.697  47.937  1.00  0.00    -0.074 C 
HETATM    5  C5  UNL     1      32.135   9.332  46.991  1.00  0.00    -0.017 C 
HETATM    6  C6  UNL     1      31.700   9.283  45.534  1.00  0.00     0.093 C 
HETATM    7  C7  UNL     1      31.546   9.216  49.349  1.00  0.00     0.062 C 
HETATM    8  C8  UNL     1      31.892   7.751  49.216  1.00  0.00    -0.007 C 
HETATM    9  C9  UNL     1      30.916   6.985  48.782  1.00  0.00     0.007 C 
HETATM   10  C10 UNL     1      29.575   7.422  48.442  1.00  0.00     0.025 C 
HETATM   11  C11 UNL     1      28.573   6.782  47.889  1.00  0.00    -0.020 C 
HETATM   12  C12 UNL     1      27.723   7.710  47.105  1.00  0.00     0.126 C 
HETATM   13  N1  UNL     1      28.093   8.782  46.563  1.00  0.00    -0.262 NA
HETATM   14  C13 UNL     1      28.765   5.393  48.281  1.00  0.00     0.191 C 
HETATM   15  N2  UNL     1      30.129   4.925  47.911  1.00  0.00    -0.267 NA
HETATM   16  C14 UNL     1      31.128   5.586  48.448  1.00  0.00     0.133 C 
ENDROOT
BRANCH  16  17
HETATM   17  N3  UNL     1      32.361   4.932  48.675  1.00  0.00    -0.341 N 
HETATM   18  H14 UNL     1      32.563   4.748  49.675  1.00  0.00     0.167 HD
BRANCH  17  19
HETATM   19  C15 UNL     1      33.262   4.551  47.651  1.00  0.00     0.035 A 
HETATM   20  C16 UNL     1      34.145   3.505  47.639  1.00  0.00     0.029 A 
HETATM   21  C17 UNL     1      34.975   3.217  46.580  1.00  0.00     0.004 A 
HETATM   22  C18 UNL     1      34.962   3.990  45.442  1.00  0.00     0.019 A 
HETATM   23  C19 UNL     1      34.081   5.056  45.420  1.00  0.00     0.013 A 
HETATM   24 BR1  UNL     1      34.020   6.155  43.877  1.00  0.00    -0.051 Br
HETATM   25  C20 UNL     1      33.276   5.303  46.494  1.00  0.00     0.048 A 
ENDBRANCH  17  19
ENDBRANCH  16  17
BRANCH   1  26
HETATM   26  O1  UNL     1      29.732   8.112  44.572  1.00  0.00    -0.363 OA
HETATM   27  H1  UNL     1      30.355   8.106  43.752  1.00  0.00     0.217 HD
ENDBRANCH   1  26
TORSDOF 3
ENDMDL
MODEL 6
REMARK VINA RESULT:      -7.7      3.936      7.368
REMARK  3 active torsions:
REMARK  status: ('A' for Active; 'I' for Inactive)
REMARK    1  A    between atoms: O1_1  and  C1_2 
REMARK    2  A    between atoms: C14_17  and  N3_18 
REMARK    3  A    between atoms: N3_18  and  C15_19 
ROOT
HETATM    1  C1  UNL     1      23.406   4.440  52.780  1.00  0.00     0.071 C 
HETATM    2  C2  UNL     1      22.390   4.595  51.899  1.00  0.00     0.067 C 
HETATM    3  C3  UNL     1      22.112   3.203  51.343  1.00  0.00     0.096 C 
HETATM    4  C4  UNL     1      23.406   2.889  50.628  1.00  0.00    -0.074 C 
HETATM    5  C5  UNL     1      24.398   2.654  51.528  1.00  0.00    -0.017 C 
HETATM    6  C6  UNL     1      24.253   3.196  52.942  1.00  0.00     0.093 C 
HETATM    7  C7  UNL     1      23.836   2.810  49.166  1.00  0.00     0.062 C 
HETATM    8  C8  UNL     1      25.103   3.627  49.065  1.00  0.00    -0.007 C 
HETATM    9  C9  UNL     1      24.963   4.906  49.335  1.00  0.00     0.007 C 
HETATM   10  C10 UNL     1      23.727   5.571  49.700  1.00  0.00     0.025 C 
HETATM   11  C11 UNL     1      23.494   6.796  50.107  1.00  0.00    -0.020 C 
HETATM   12  C12 UNL     1      22.316   6.838  51.006  1.00  0.00     0.126 C 
HETATM   13  N1  UNL     1      21.898   5.899  51.731  1.00  0.00    -0.262 NA
HETATM   14  C13 UNL     1      24.549   7.592  49.496  1.00  0.00     0.191 C 
HETATM   15  N2  UNL     1      25.889   7.033  49.827  1.00  0.00    -0.267 NA
HETATM   16  C14 UNL     1      26.107   5.798  49.439  1.00  0.00     0.133 C 
ENDROOT
BRANCH  16  17
HETATM   17  N3  UNL     1      27.425   5.376  49.146  1.00  0.00    -0.341 N 
HETATM   18  H14 UNL     1      27.696   4.490  49.610  1.00  0.00     0.167 HD
BRANCH  17  19
HETATM   19  C15 UNL     1      28.317   6.078  48.300  1.00  0.00     0.035 A 
HETATM   20  C16 UNL     1      28.048   7.120  47.455  1.00  0.00     0.029 A 
HETATM   21  C17 UNL     1      29.000   7.740  46.677  1.00  0.00     0.004 A 
HETATM   22  C18 UNL     1      30.313   7.330  46.708  1.00  0.00     0.019 A 
HETATM   23  C19 UNL     1      30.620   6.278  47.553  1.00  0.00     0.013 A 
HETATM   24 BR1  UNL     1      32.415   5.674  47.637  1.00  0.00    -0.051 Br
HETATM   25  C20 UNL     1      29.643   5.696  48.306  1.00  0.00     0.048 A 
ENDBRANCH  17  19
ENDBRANCH  16  17
BRANCH   1  26
HETATM   26  O1  UNL     1      23.724   5.521  53.634  1.00  0.00    -0.363 OA
HETATM   27  H1  UNL     1      22.921   5.796  54.217  1.00  0.00     0.217 HD
ENDBRANCH   1  26
TORSDOF 3
ENDMDL
MODEL 7
REMARK VINA RESULT:      -7.5      3.221      4.375
REMARK  3 active torsions:
REMARK  status: ('A' for Active; 'I' for Inactive)
REMARK    1  A    between atoms: O1_1  and  C1_2 
REMARK    2  A    between atoms: C14_17  and  N3_18 
REMARK    3  A    between atoms: N3_18  and  C15_19 
ROOT
HETATM    1  C1  UNL     1      19.028   3.569  50.166  1.00  0.00     0.071 C 
HETATM    2  C2  UNL     1      19.665   4.402  49.311  1.00  0.00     0.067 C 
HETATM    3  C3  UNL     1      19.748   3.649  47.988  1.00  0.00     0.096 C 
HETATM    4  C4  UNL     1      20.623   2.472  48.353  1.00  0.00    -0.074 C 
HETATM    5  C5  UNL     1      19.940   1.603  49.145  1.00  0.00    -0.017 C 
HETATM    6  C6  UNL     1      18.730   2.105  49.917  1.00  0.00     0.093 C 
HETATM    7  C7  UNL     1      22.067   2.074  48.062  1.00  0.00     0.062 C 
HETATM    8  C8  UNL     1      22.667   1.698  49.397  1.00  0.00    -0.007 C 
HETATM    9  C9  UNL     1      22.729   2.675  50.275  1.00  0.00     0.007 C 
HETATM   10  C10 UNL     1      22.289   4.041  50.063  1.00  0.00     0.025 C 
HETATM   11  C11 UNL     1      22.185   5.052  50.893  1.00  0.00    -0.020 C 
HETATM   12  C12 UNL     1      21.090   5.962  50.481  1.00  0.00     0.126 C 
HETATM   13  N1  UNL     1      20.064   5.646  49.826  1.00  0.00    -0.262 NA
HETATM   14  C13 UNL     1      23.209   4.807  51.898  1.00  0.00     0.191 C 
HETATM   15  N2  UNL     1      23.050   3.451  52.492  1.00  0.00    -0.267 NA
HETATM   16  C14 UNL     1      23.129   2.444  51.654  1.00  0.00     0.133 C 
ENDROOT
BRANCH  16  17
HETATM   17  N3  UNL     1      23.586   1.185  52.108  1.00  0.00    -0.341 N 
HETATM   18  H14 UNL     1      24.543   0.945  51.791  1.00  0.00     0.167 HD
BRANCH  17  19
HETATM   19  C15 UNL     1      22.830   0.310  52.924  1.00  0.00     0.035 A 
HETATM   20  C16 UNL     1      23.257  -0.462  53.970  1.00  0.00     0.029 A 
HETATM   21  C17 UNL     1      22.429  -1.278  54.708  1.00  0.00     0.004 A 
HETATM   22  C18 UNL     1      21.085  -1.364  54.422  1.00  0.00     0.019 A 
HETATM   23  C19 UNL     1      20.620  -0.596  53.369  1.00  0.00     0.013 A 
HETATM   24 BR1  UNL     1      18.777  -0.675  52.932  1.00  0.00    -0.051 Br
HETATM   25  C20 UNL     1      21.479   0.199  52.668  1.00  0.00     0.048 A 
ENDBRANCH  17  19
ENDBRANCH  16  17
BRANCH   1  26
HETATM   26  O1  UNL     1      18.591   4.087  51.407  1.00  0.00    -0.363 OA
HETATM   27  H1  UNL     1      17.624   3.804  51.620  1.00  0.00     0.217 HD
ENDBRANCH   1  26
TORSDOF 3
ENDMDL
MODEL 8
REMARK VINA RESULT:      -7.5      2.651      4.027
REMARK  3 active torsions:
REMARK  status: ('A' for Active; 'I' for Inactive)
REMARK    1  A    between atoms: O1_1  and  C1_2 
REMARK    2  A    between atoms: C14_17  and  N3_18 
REMARK    3  A    between atoms: N3_18  and  C15_19 
ROOT
HETATM    1  C1  UNL     1      21.345   5.921  50.820  1.00  0.00     0.071 C 
HETATM    2  C2  UNL     1      21.134   6.212  49.515  1.00  0.00     0.067 C 
HETATM    3  C3  UNL     1      20.298   5.061  48.967  1.00  0.00     0.096 C 
HETATM    4  C4  UNL     1      21.243   3.891  49.115  1.00  0.00    -0.074 C 
HETATM    5  C5  UNL     1      21.380   3.557  50.426  1.00  0.00    -0.017 C 
HETATM    6  C6  UNL     1      21.049   4.595  51.488  1.00  0.00     0.093 C 
HETATM    7  C7  UNL     1      22.074   3.050  48.150  1.00  0.00     0.062 C 
HETATM    8  C8  UNL     1      23.466   3.005  48.736  1.00  0.00    -0.007 C 
HETATM    9  C9  UNL     1      24.072   4.169  48.819  1.00  0.00     0.007 C 
HETATM   10  C10 UNL     1      23.529   5.446  48.397  1.00  0.00     0.025 C 
HETATM   11  C11 UNL     1      23.984   6.667  48.544  1.00  0.00    -0.020 C 
HETATM   12  C12 UNL     1      22.867   7.639  48.627  1.00  0.00     0.126 C 
HETATM   13  N1  UNL     1      21.702   7.403  49.037  1.00  0.00    -0.262 NA
HETATM   14  C13 UNL     1      25.431   6.516  48.591  1.00  0.00     0.191 C 
HETATM   15  N2  UNL     1      25.824   5.538  49.641  1.00  0.00    -0.267 NA
HETATM   16  C14 UNL     1      25.346   4.323  49.502  1.00  0.00     0.133 C 
ENDROOT
BRANCH  16  17
HETATM   17  N3  UNL     1      26.067   3.221  50.018  1.00  0.00    -0.341 N 
HETATM   18  H14 UNL     1      26.880   2.942  49.439  1.00  0.00     0.167 HD
BRANCH  17  19
HETATM   19  C15 UNL     1      25.734   2.539  51.213  1.00  0.00     0.035 A 
HETATM   20  C16 UNL     1      24.781   2.861  52.140  1.00  0.00     0.029 A 
HETATM   21  C17 UNL     1      24.532   2.118  53.272  1.00  0.00     0.004 A 
HETATM   22  C18 UNL     1      25.253   0.977  53.540  1.00  0.00     0.019 A 
HETATM   23  C19 UNL     1      26.225   0.621  52.622  1.00  0.00     0.013 A 
HETATM   24 BR1  UNL     1      27.247  -0.943  52.940  1.00  0.00    -0.051 Br
HETATM   25  C20 UNL     1      26.435   1.389  51.513  1.00  0.00     0.048 A 
ENDBRANCH  17  19
ENDBRANCH  16  17
BRANCH   1  26
HETATM   26  O1  UNL     1      21.889   6.926  51.652  1.00  0.00    -0.363 OA
HETATM   27  H1  UNL     1      21.828   7.857  51.215  1.00  0.00     0.217 HD
ENDBRANCH   1  26
TORSDOF 3
ENDMDL
MODEL 9
REMARK VINA RESULT:      -7.4      2.361      3.402
REMARK  3 active torsions:
REMARK  status: ('A' for Active; 'I' for Inactive)
REMARK    1  A    between atoms: O1_1  and  C1_2 
REMARK    2  A    between atoms: C14_17  and  N3_18 
REMARK    3  A    between atoms: N3_18  and  C15_19 
ROOT
HETATM    1  C1  UNL     1      20.768   5.446  47.424  1.00  0.00     0.071 C 
HETATM    2  C2  UNL     1      21.944   5.273  46.778  1.00  0.00     0.067 C 
HETATM    3  C3  UNL     1      21.815   3.946  46.038  1.00  0.00     0.096 C 
HETATM    4  C4  UNL     1      21.673   2.965  47.179  1.00  0.00    -0.074 C 
HETATM    5  C5  UNL     1      20.453   3.095  47.765  1.00  0.00    -0.017 C 
HETATM    6  C6  UNL     1      19.688   4.398  47.590  1.00  0.00     0.093 C 
HETATM    7  C7  UNL     1      22.581   1.916  47.814  1.00  0.00     0.062 C 
HETATM    8  C8  UNL     1      22.525   2.172  49.303  1.00  0.00    -0.007 C 
HETATM    9  C9  UNL     1      22.994   3.339  49.685  1.00  0.00     0.007 C 
HETATM   10  C10 UNL     1      23.551   4.360  48.819  1.00  0.00     0.025 C 
HETATM   11  C11 UNL     1      23.927   5.592  49.068  1.00  0.00    -0.020 C 
HETATM   12  C12 UNL     1      23.746   6.450  47.873  1.00  0.00     0.126 C 
HETATM   13  N1  UNL     1      22.910   6.277  46.950  1.00  0.00    -0.262 NA
HETATM   14  C13 UNL     1      24.341   5.572  50.463  1.00  0.00     0.191 C 
HETATM   15  N2  UNL     1      23.258   5.029  51.327  1.00  0.00    -0.267 NA
HETATM   16  C14 UNL     1      22.868   3.805  51.057  1.00  0.00     0.133 C 
ENDROOT
BRANCH  16  17
HETATM   17  N3  UNL     1      22.340   2.992  52.087  1.00  0.00    -0.341 N 
HETATM   18  H14 UNL     1      21.398   3.279  52.409  1.00  0.00     0.167 HD
BRANCH  17  19
HETATM   19  C15 UNL     1      23.012   1.879  52.648  1.00  0.00     0.035 A 
HETATM   20  C16 UNL     1      24.358   1.681  52.793  1.00  0.00     0.029 A 
HETATM   21  C17 UNL     1      24.909   0.556  53.365  1.00  0.00     0.004 A 
HETATM   22  C18 UNL     1      24.109  -0.460  53.835  1.00  0.00     0.019 A 
HETATM   23  C19 UNL     1      22.742  -0.292  53.705  1.00  0.00     0.013 A 
HETATM   24 BR1  UNL     1      21.593  -1.661  54.336  1.00  0.00    -0.051 Br
HETATM   25  C20 UNL     1      22.242   0.841  53.131  1.00  0.00     0.048 A 
ENDBRANCH  17  19
ENDBRANCH  16  17
BRANCH   1  26
HETATM   26  O1  UNL     1      20.501   6.708  48.004  1.00  0.00    -0.363 OA
HETATM   27  H1  UNL     1      19.617   7.107  47.658  1.00  0.00     0.217 HD
ENDBRANCH   1  26
TORSDOF 3
ENDMDL
