MODEL 1
REMARK VINA RESULT:      -7.7      0.000      0.000
REMARK  2 active torsions:
REMARK  status: ('A' for Active; 'I' for Inactive)
REMARK    1  A    between atoms: C5_6  and  O1_7 
REMARK    2  A    between atoms: O1_7  and  C6_8 
ROOT
HETATM    1  C6  UNL     1      23.361  -0.649  53.662  1.00  0.00     0.156 C 
HETATM    2  C7  UNL     1      22.814   0.421  52.787  1.00  0.00     0.002 C 
HETATM    3  C8  UNL     1      22.197   0.599  51.640  1.00  0.00    -0.026 C 
HETATM    4  C9  UNL     1      21.547   1.285  50.510  1.00  0.00     0.053 C 
HETATM    5  C10 UNL     1      20.126   0.931  50.248  1.00  0.00     0.178 C 
HETATM    6  O2  UNL     1      19.208   1.208  51.245  1.00  0.00    -0.361 OA
HETATM    7  C11 UNL     1      17.894   0.799  51.090  1.00  0.00     0.153 C 
HETATM    8  C12 UNL     1      17.555  -0.219  51.895  1.00  0.00     0.142 C 
HETATM    9  N1  UNL     1      18.039  -1.100  52.908  1.00  0.00    -0.252 NA
HETATM   10  C13 UNL     1      19.206  -0.873  53.404  1.00  0.00     0.231 C 
HETATM   11  N2  UNL     1      20.512  -0.565  53.913  1.00  0.00    -0.258 NA
HETATM   12  C14 UNL     1      21.194  -1.589  54.369  1.00  0.00     0.093 C 
HETATM   13  C15 UNL     1      22.480  -1.005  54.824  1.00  0.00     0.083 C 
ENDROOT
BRANCH   1  14
HETATM   14  O1  UNL     1      24.557  -0.129  54.222  1.00  0.00    -0.342 OA
BRANCH  14  15
HETATM   15  C5  UNL     1      25.833  -0.415  53.795  1.00  0.00     0.071 A 
HETATM   16  C4  UNL     1      26.367  -1.464  53.076  1.00  0.00     0.037 A 
HETATM   17  C3  UNL     1      27.708  -1.502  52.781  1.00  0.00     0.004 A 
HETATM   18  C2  UNL     1      28.581  -0.514  53.178  1.00  0.00     0.019 A 
HETATM   19  C1  UNL     1      28.072   0.541  53.896  1.00  0.00     0.013 A 
HETATM   20 BR1  UNL     1      29.309   1.888  54.429  1.00  0.00    -0.051 Br
HETATM   21  C16 UNL     1      26.711   0.595  54.205  1.00  0.00     0.055 A 
ENDBRANCH  14  15
ENDBRANCH   1  14
TORSDOF 2
ENDMDL
MODEL 2
REMARK VINA RESULT:      -7.7      3.885      8.038
REMARK  2 active torsions:
REMARK  status: ('A' for Active; 'I' for Inactive)
REMARK    1  A    between atoms: C5_6  and  O1_7 
REMARK    2  A    between atoms: O1_7  and  C6_8 
ROOT
HETATM    1  C6  UNL     1      23.578   0.703  52.431  1.00  0.00     0.156 C 
HETATM    2  C7  UNL     1      24.491  -0.358  52.933  1.00  0.00     0.002 C 
HETATM    3  C8  UNL     1      25.649  -0.926  52.679  1.00  0.00    -0.026 C 
HETATM    4  C9  UNL     1      26.805  -1.828  52.808  1.00  0.00     0.053 C 
HETATM    5  C10 UNL     1      28.130  -1.183  53.018  1.00  0.00     0.178 C 
HETATM    6  O2  UNL     1      28.295  -0.429  54.166  1.00  0.00    -0.361 OA
HETATM    7  C11 UNL     1      29.472   0.276  54.351  1.00  0.00     0.153 C 
HETATM    8  C12 UNL     1      29.322   1.604  54.225  1.00  0.00     0.142 C 
HETATM    9  N1  UNL     1      28.375   2.638  53.962  1.00  0.00    -0.252 NA
HETATM   10  C13 UNL     1      27.128   2.320  53.903  1.00  0.00     0.231 C 
HETATM   11  N2  UNL     1      25.757   1.899  53.849  1.00  0.00    -0.258 NA
HETATM   12  C14 UNL     1      24.974   2.626  53.087  1.00  0.00     0.093 C 
HETATM   13  C15 UNL     1      23.642   1.986  53.207  1.00  0.00     0.083 C 
ENDROOT
BRANCH   1  14
HETATM   14  O1  UNL     1      22.260   0.205  52.602  1.00  0.00    -0.342 OA
BRANCH  14  15
HETATM   15  C5  UNL     1      21.205   0.419  51.748  1.00  0.00     0.071 A 
HETATM   16  C4  UNL     1      21.114   0.989  50.495  1.00  0.00     0.037 A 
HETATM   17  C3  UNL     1      19.905   1.077  49.849  1.00  0.00     0.004 A 
HETATM   18  C2  UNL     1      18.734   0.612  50.405  1.00  0.00     0.019 A 
HETATM   19  C1  UNL     1      18.800   0.041  51.652  1.00  0.00     0.013 A 
HETATM   20 BR1  UNL     1      17.160  -0.591  52.390  1.00  0.00    -0.051 Br
HETATM   21  C16 UNL     1      20.021  -0.058  52.323  1.00  0.00     0.055 A 
ENDBRANCH  14  15
ENDBRANCH   1  14
TORSDOF 2
ENDMDL
MODEL 3
REMARK VINA RESULT:      -7.6      5.346      7.021
REMARK  2 active torsions:
REMARK  status: ('A' for Active; 'I' for Inactive)
REMARK    1  A    between atoms: C5_6  and  O1_7 
REMARK    2  A    between atoms: O1_7  and  C6_8 
ROOT
HETATM    1  C6  UNL     1      26.037   3.524  50.254  1.00  0.00     0.156 C 
HETATM    2  C7  UNL     1      26.613   2.313  50.897  1.00  0.00     0.002 C 
HETATM    3  C8  UNL     1      26.845   1.785  52.079  1.00  0.00    -0.026 C 
HETATM    4  C9  UNL     1      27.292   0.825  53.101  1.00  0.00     0.053 C 
HETATM    5  C10 UNL     1      26.243   0.289  54.011  1.00  0.00     0.178 C 
HETATM    6  O2  UNL     1      25.218  -0.443  53.438  1.00  0.00    -0.361 OA
HETATM    7  C11 UNL     1      24.165  -0.870  54.229  1.00  0.00     0.153 C 
HETATM    8  C12 UNL     1      23.019  -0.214  53.989  1.00  0.00     0.142 C 
HETATM    9  N1  UNL     1      22.420   0.809  53.194  1.00  0.00    -0.252 NA
HETATM   10  C13 UNL     1      23.107   1.307  52.225  1.00  0.00     0.231 C 
HETATM   11  N2  UNL     1      23.925   1.820  51.163  1.00  0.00    -0.258 NA
HETATM   12  C14 UNL     1      23.681   3.060  50.813  1.00  0.00     0.093 C 
HETATM   13  C15 UNL     1      24.646   3.334  49.721  1.00  0.00     0.083 C 
ENDROOT
BRANCH   1  14
HETATM   14  O1  UNL     1      26.855   3.801  49.128  1.00  0.00    -0.342 OA
BRANCH  14  15
HETATM   15  C5  UNL     1      27.235   5.051  48.701  1.00  0.00     0.071 A 
HETATM   16  C4  UNL     1      26.544   6.232  48.527  1.00  0.00     0.037 A 
HETATM   17  C3  UNL     1      27.184   7.361  48.077  1.00  0.00     0.004 A 
HETATM   18  C2  UNL     1      28.528   7.379  47.778  1.00  0.00     0.019 A 
HETATM   19  C1  UNL     1      29.237   6.215  47.943  1.00  0.00     0.013 A 
HETATM   20 BR1  UNL     1      31.094   6.277  47.520  1.00  0.00    -0.051 Br
HETATM   21  C16 UNL     1      28.603   5.058  48.400  1.00  0.00     0.055 A 
ENDBRANCH  14  15
ENDBRANCH   1  14
TORSDOF 2
ENDMDL
MODEL 4
REMARK VINA RESULT:      -7.5      5.389      7.165
REMARK  2 active torsions:
REMARK  status: ('A' for Active; 'I' for Inactive)
REMARK    1  A    between atoms: C5_6  and  O1_7 
REMARK    2  A    between atoms: O1_7  and  C6_8 
ROOT
HETATM    1  C6  UNL     1      25.699   3.630  50.156  1.00  0.00     0.156 C 
HETATM    2  C7  UNL     1      26.546   2.587  50.794  1.00  0.00     0.002 C 
HETATM    3  C8  UNL     1      26.956   2.171  51.972  1.00  0.00    -0.026 C 
HETATM    4  C9  UNL     1      27.651   1.366  52.990  1.00  0.00     0.053 C 
HETATM    5  C10 UNL     1      26.793   0.678  53.991  1.00  0.00     0.178 C 
HETATM    6  O2  UNL     1      25.898  -0.267  53.520  1.00  0.00    -0.361 OA
HETATM    7  C11 UNL     1      25.006  -0.855  54.400  1.00  0.00     0.153 C 
HETATM    8  C12 UNL     1      23.739  -0.449  54.224  1.00  0.00     0.142 C 
HETATM    9  N1  UNL     1      22.897   0.398  53.443  1.00  0.00    -0.252 NA
HETATM   10  C13 UNL     1      23.406   0.976  52.410  1.00  0.00     0.231 C 
HETATM   11  N2  UNL     1      24.034   1.589  51.274  1.00  0.00    -0.258 NA
HETATM   12  C14 UNL     1      23.524   2.739  50.902  1.00  0.00     0.093 C 
HETATM   13  C15 UNL     1      24.342   3.146  49.733  1.00  0.00     0.083 C 
ENDROOT
BRANCH   1  14
HETATM   14  O1  UNL     1      26.370   4.009  48.964  1.00  0.00    -0.342 OA
BRANCH  14  15
HETATM   15  C5  UNL     1      27.102   5.159  48.787  1.00  0.00     0.071 A 
HETATM   16  C4  UNL     1      28.383   5.393  48.333  1.00  0.00     0.037 A 
HETATM   17  C3  UNL     1      28.878   6.672  48.254  1.00  0.00     0.004 A 
HETATM   18  C2  UNL     1      28.138   7.775  48.619  1.00  0.00     0.019 A 
HETATM   19  C1  UNL     1      26.860   7.566  49.076  1.00  0.00     0.013 A 
HETATM   20 BR1  UNL     1      25.867   9.115  49.572  1.00  0.00    -0.051 Br
HETATM   21  C16 UNL     1      26.341   6.273  49.162  1.00  0.00     0.055 A 
ENDBRANCH  14  15
ENDBRANCH   1  14
TORSDOF 2
ENDMDL
MODEL 5
REMARK VINA RESULT:      -7.5      9.244     10.990
REMARK  2 active torsions:
REMARK  status: ('A' for Active; 'I' for Inactive)
REMARK    1  A    between atoms: C5_6  and  O1_7 
REMARK    2  A    between atoms: O1_7  and  C6_8 
ROOT
HETATM    1  C6  UNL     1      30.837   6.431  48.157  1.00  0.00     0.156 C 
HETATM    2  C7  UNL     1      29.455   5.956  47.880  1.00  0.00     0.002 C 
HETATM    3  C8  UNL     1      28.364   5.548  48.489  1.00  0.00    -0.026 C 
HETATM    4  C9  UNL     1      26.990   5.056  48.685  1.00  0.00     0.053 C 
HETATM    5  C10 UNL     1      26.076   5.934  49.465  1.00  0.00     0.178 C 
HETATM    6  O2  UNL     1      25.802   7.187  48.948  1.00  0.00    -0.361 OA
HETATM    7  C11 UNL     1      25.045   8.077  49.690  1.00  0.00     0.153 C 
HETATM    8  C12 UNL     1      25.758   9.101  50.184  1.00  0.00     0.142 C 
HETATM    9  N1  UNL     1      27.065   9.671  50.250  1.00  0.00    -0.252 NA
HETATM   10  C13 UNL     1      27.990   9.158  49.513  1.00  0.00     0.231 C 
HETATM   11  N2  UNL     1      28.973   8.541  48.669  1.00  0.00    -0.258 NA
HETATM   12  C14 UNL     1      30.211   8.624  49.094  1.00  0.00     0.093 C 
HETATM   13  C15 UNL     1      31.006   7.919  48.059  1.00  0.00     0.083 C 
ENDROOT
BRANCH   1  14
HETATM   14  O1  UNL     1      31.657   5.875  47.141  1.00  0.00    -0.342 OA
BRANCH  14  15
HETATM   15  C5  UNL     1      32.600   4.890  47.321  1.00  0.00     0.071 A 
HETATM   16  C4  UNL     1      33.917   4.918  47.731  1.00  0.00     0.037 A 
HETATM   17  C3  UNL     1      34.648   3.759  47.826  1.00  0.00     0.004 A 
HETATM   18  C2  UNL     1      34.118   2.524  47.522  1.00  0.00     0.019 A 
HETATM   19  C1  UNL     1      32.808   2.472  47.112  1.00  0.00     0.013 A 
HETATM   20 BR1  UNL     1      32.110   0.748  46.700  1.00  0.00    -0.051 Br
HETATM   21  C16 UNL     1      32.051   3.641  47.010  1.00  0.00     0.055 A 
ENDBRANCH  14  15
ENDBRANCH   1  14
TORSDOF 2
ENDMDL
MODEL 6
REMARK VINA RESULT:      -7.4      4.758      6.257
REMARK  2 active torsions:
REMARK  status: ('A' for Active; 'I' for Inactive)
REMARK    1  A    between atoms: C5_6  and  O1_7 
REMARK    2  A    between atoms: O1_7  and  C6_8 
ROOT
HETATM    1  C6  UNL     1      24.995   2.397  50.899  1.00  0.00     0.156 C 
HETATM    2  C7  UNL     1      23.687   2.043  51.512  1.00  0.00     0.002 C 
HETATM    3  C8  UNL     1      22.906   1.013  51.750  1.00  0.00    -0.026 C 
HETATM    4  C9  UNL     1      21.748   0.233  52.220  1.00  0.00     0.053 C 
HETATM    5  C10 UNL     1      22.026  -0.826  53.228  1.00  0.00     0.178 C 
HETATM    6  O2  UNL     1      22.544  -0.424  54.446  1.00  0.00    -0.361 OA
HETATM    7  C11 UNL     1      22.918  -1.382  55.373  1.00  0.00     0.153 C 
HETATM    8  C12 UNL     1      24.248  -1.485  55.525  1.00  0.00     0.142 C 
HETATM    9  N1  UNL     1      25.503  -0.969  55.084  1.00  0.00    -0.252 NA
HETATM   10  C13 UNL     1      25.499   0.070  54.321  1.00  0.00     0.231 C 
HETATM   11  N2  UNL     1      25.425   1.226  53.475  1.00  0.00    -0.258 NA
HETATM   12  C14 UNL     1      26.419   1.370  52.630  1.00  0.00     0.093 C 
HETATM   13  C15 UNL     1      26.100   2.616  51.891  1.00  0.00     0.083 C 
ENDROOT
BRANCH   1  14
HETATM   14  O1  UNL     1      24.801   3.642  50.246  1.00  0.00    -0.342 OA
BRANCH  14  15
HETATM   15  C5  UNL     1      25.787   4.405  49.666  1.00  0.00     0.071 A 
HETATM   16  C4  UNL     1      26.970   4.085  49.034  1.00  0.00     0.037 A 
HETATM   17  C3  UNL     1      27.789   5.068  48.534  1.00  0.00     0.004 A 
HETATM   18  C2  UNL     1      27.482   6.407  48.635  1.00  0.00     0.019 A 
HETATM   19  C1  UNL     1      26.309   6.751  49.261  1.00  0.00     0.013 A 
HETATM   20 BR1  UNL     1      25.918   8.611  49.382  1.00  0.00    -0.051 Br
HETATM   21  C16 UNL     1      25.465   5.764  49.775  1.00  0.00     0.055 A 
ENDBRANCH  14  15
ENDBRANCH   1  14
TORSDOF 2
ENDMDL
MODEL 7
REMARK VINA RESULT:      -7.3      2.707      3.621
REMARK  2 active torsions:
REMARK  status: ('A' for Active; 'I' for Inactive)
REMARK    1  A    between atoms: C5_6  and  O1_7 
REMARK    2  A    between atoms: O1_7  and  C6_8 
ROOT
HETATM    1  C6  UNL     1      24.724   2.726  52.452  1.00  0.00     0.156 C 
HETATM    2  C7  UNL     1      23.988   1.470  52.149  1.00  0.00     0.002 C 
HETATM    3  C8  UNL     1      23.064   0.673  52.640  1.00  0.00    -0.026 C 
HETATM    4  C9  UNL     1      22.138  -0.466  52.754  1.00  0.00     0.053 C 
HETATM    5  C10 UNL     1      20.689  -0.136  52.834  1.00  0.00     0.178 C 
HETATM    6  O2  UNL     1      20.124   0.515  51.752  1.00  0.00    -0.361 OA
HETATM    7  C11 UNL     1      18.807   0.937  51.826  1.00  0.00     0.153 C 
HETATM    8  C12 UNL     1      18.680   2.269  51.926  1.00  0.00     0.142 C 
HETATM    9  N1  UNL     1      19.405   3.496  51.988  1.00  0.00    -0.252 NA
HETATM   10  C13 UNL     1      20.676   3.462  51.779  1.00  0.00     0.231 C 
HETATM   11  N2  UNL     1      22.087   3.355  51.537  1.00  0.00    -0.258 NA
HETATM   12  C14 UNL     1      22.829   4.267  52.120  1.00  0.00     0.093 C 
HETATM   13  C15 UNL     1      24.215   3.930  51.715  1.00  0.00     0.083 C 
ENDROOT
BRANCH   1  14
HETATM   14  O1  UNL     1      26.055   2.522  52.001  1.00  0.00    -0.342 OA
BRANCH  14  15
HETATM   15  C5  UNL     1      27.033   1.830  52.675  1.00  0.00     0.071 A 
HETATM   16  C4  UNL     1      28.070   2.230  53.491  1.00  0.00     0.037 A 
HETATM   17  C3  UNL     1      28.921   1.308  54.049  1.00  0.00     0.004 A 
HETATM   18  C2  UNL     1      28.791  -0.046  53.829  1.00  0.00     0.019 A 
HETATM   19  C1  UNL     1      27.765  -0.468  53.019  1.00  0.00     0.013 A 
HETATM   20 BR1  UNL     1      27.617  -2.347  52.738  1.00  0.00    -0.051 Br
HETATM   21  C16 UNL     1      26.891   0.456  52.444  1.00  0.00     0.055 A 
ENDBRANCH  14  15
ENDBRANCH   1  14
TORSDOF 2
ENDMDL
MODEL 8
REMARK VINA RESULT:      -7.3      7.432      9.787
REMARK  2 active torsions:
REMARK  status: ('A' for Active; 'I' for Inactive)
REMARK    1  A    between atoms: C5_6  and  O1_7 
REMARK    2  A    between atoms: O1_7  and  C6_8 
ROOT
HETATM    1  C6  UNL     1      24.943   4.998  49.503  1.00  0.00     0.156 C 
HETATM    2  C7  UNL     1      26.422   5.035  49.354  1.00  0.00     0.002 C 
HETATM    3  C8  UNL     1      27.367   5.502  48.569  1.00  0.00    -0.026 C 
HETATM    4  C9  UNL     1      28.712   5.788  48.041  1.00  0.00     0.053 C 
HETATM    5  C10 UNL     1      29.090   7.223  47.932  1.00  0.00     0.178 C 
HETATM    6  O2  UNL     1      29.140   7.958  49.103  1.00  0.00    -0.361 OA
HETATM    7  C11 UNL     1      29.383   9.320  49.040  1.00  0.00     0.153 C 
HETATM    8  C12 UNL     1      28.305  10.066  49.329  1.00  0.00     0.142 C 
HETATM    9  N1  UNL     1      26.928  10.010  49.697  1.00  0.00    -0.252 NA
HETATM   10  C13 UNL     1      26.426   8.862  50.000  1.00  0.00     0.231 C 
HETATM   11  N2  UNL     1      25.929   7.556  50.324  1.00  0.00    -0.258 NA
HETATM   12  C14 UNL     1      24.648   7.370  50.105  1.00  0.00     0.093 C 
HETATM   13  C15 UNL     1      24.402   5.966  50.515  1.00  0.00     0.083 C 
ENDROOT
BRANCH   1  14
HETATM   14  O1  UNL     1      24.627   3.703  49.990  1.00  0.00    -0.342 OA
BRANCH  14  15
HETATM   15  C5  UNL     1      23.590   2.912  49.554  1.00  0.00     0.071 A 
HETATM   16  C4  UNL     1      22.980   2.762  48.326  1.00  0.00     0.037 A 
HETATM   17  C3  UNL     1      21.939   1.880  48.162  1.00  0.00     0.004 A 
HETATM   18  C2  UNL     1      21.453   1.110  49.196  1.00  0.00     0.019 A 
HETATM   19  C1  UNL     1      22.045   1.244  50.428  1.00  0.00     0.013 A 
HETATM   20 BR1  UNL     1      21.346   0.164  51.833  1.00  0.00    -0.051 Br
HETATM   21  C16 UNL     1      23.104   2.135  50.612  1.00  0.00     0.055 A 
ENDBRANCH  14  15
ENDBRANCH   1  14
TORSDOF 2
ENDMDL
MODEL 9
REMARK VINA RESULT:      -7.3      3.732      7.943
REMARK  2 active torsions:
REMARK  status: ('A' for Active; 'I' for Inactive)
REMARK    1  A    between atoms: C5_6  and  O1_7 
REMARK    2  A    between atoms: O1_7  and  C6_8 
ROOT
HETATM    1  C6  UNL     1      22.378   1.705  51.814  1.00  0.00     0.156 C 
HETATM    2  C7  UNL     1      22.913   1.096  53.061  1.00  0.00     0.002 C 
HETATM    3  C8  UNL     1      23.721   0.148  53.480  1.00  0.00    -0.026 C 
HETATM    4  C9  UNL     1      24.472  -0.724  54.399  1.00  0.00     0.053 C 
HETATM    5  C10 UNL     1      25.955  -0.685  54.286  1.00  0.00     0.178 C 
HETATM    6  O2  UNL     1      26.581   0.521  54.547  1.00  0.00    -0.361 OA
HETATM    7  C11 UNL     1      27.947   0.633  54.351  1.00  0.00     0.153 C 
HETATM    8  C12 UNL     1      28.272   1.384  53.288  1.00  0.00     0.142 C 
HETATM    9  N1  UNL     1      27.738   2.160  52.216  1.00  0.00    -0.252 NA
HETATM   10  C13 UNL     1      26.470   2.394  52.208  1.00  0.00     0.231 C 
HETATM   11  N2  UNL     1      25.054   2.616  52.258  1.00  0.00    -0.258 NA
HETATM   12  C14 UNL     1      24.471   2.792  51.096  1.00  0.00     0.093 C 
HETATM   13  C15 UNL     1      23.039   2.995  51.426  1.00  0.00     0.083 C 
ENDROOT
BRANCH   1  14
HETATM   14  O1  UNL     1      21.020   2.023  52.080  1.00  0.00    -0.342 OA
BRANCH  14  15
HETATM   15  C5  UNL     1      19.927   1.370  51.562  1.00  0.00     0.071 A 
HETATM   16  C4  UNL     1      19.218   1.516  50.387  1.00  0.00     0.037 A 
HETATM   17  C3  UNL     1      18.140   0.711  50.113  1.00  0.00     0.004 A 
HETATM   18  C2  UNL     1      17.711  -0.270  50.979  1.00  0.00     0.019 A 
HETATM   19  C1  UNL     1      18.401  -0.434  52.155  1.00  0.00     0.013 A 
HETATM   20 BR1  UNL     1      17.778  -1.800  53.328  1.00  0.00    -0.051 Br
HETATM   21  C16 UNL     1      19.499   0.376  52.450  1.00  0.00     0.055 A 
ENDBRANCH  14  15
ENDBRANCH   1  14
TORSDOF 2
ENDMDL
