MODEL 1
REMARK VINA RESULT:      -8.1      0.000      0.000
REMARK  4 active torsions:
REMARK  status: ('A' for Active; 'I' for Inactive)
REMARK    1  A    between atoms: C6_6  and  S1_7 
REMARK    2  A    between atoms: S1_7  and  N1_10 
REMARK       I    between atoms: N1_10  and  C7_11 
REMARK    3  A    between atoms: C7_11  and  C8_13 
REMARK    4  A    between atoms: C8_13  and  C9_14 
ROOT
HETATM    1  N1  UNL     1      25.340   1.821  51.341  1.00  0.00    -0.250 N 
HETATM    2  C7  UNL     1      26.425   2.569  50.806  1.00  0.00     0.235 C 
HETATM    3  O3  UNL     1      27.481   2.794  51.465  1.00  0.00    -0.272 OA
HETATM    4  H6  UNL     1      24.452   1.616  50.823  1.00  0.00     0.181 HD
ENDROOT
BRANCH   1   5
HETATM    5  S1  UNL     1      25.585   1.247  52.959  1.00  0.00     0.261 S 
HETATM    6  O1  UNL     1      26.023   2.379  53.855  1.00  0.00    -0.200 OA
HETATM    7  O2  UNL     1      24.265   0.779  53.552  1.00  0.00    -0.200 OA
BRANCH   5   8
HETATM    8  C6  UNL     1      26.787  -0.024  53.008  1.00  0.00     0.061 A 
HETATM    9  C5  UNL     1      26.340  -1.190  52.575  1.00  0.00     0.021 A 
HETATM   10  C4  UNL     1      27.203  -2.364  52.544  1.00  0.00     0.002 A 
HETATM   11  C3  UNL     1      28.476  -2.331  52.945  1.00  0.00     0.007 A 
HETATM   12  C2  UNL     1      28.941  -1.031  53.417  1.00  0.00    -0.063 A 
HETATM   13  C1  UNL     1      30.196  -0.933  53.829  1.00  0.00     0.019 C 
HETATM   14  C15 UNL     1      28.160   0.231  53.495  1.00  0.00     0.090 A 
ENDBRANCH   5   8
ENDBRANCH   1   5
BRANCH   2  15
HETATM   15  C8  UNL     1      26.290   3.095  49.423  1.00  0.00     0.142 C 
BRANCH  15  16
HETATM   16  C9  UNL     1      26.397   4.560  49.369  1.00  0.00    -0.049 A 
HETATM   17  C10 UNL     1      27.430   5.100  48.626  1.00  0.00     0.011 A 
HETATM   18  C11 UNL     1      27.657   6.454  48.482  1.00  0.00     0.043 A 
HETATM   19  C12 UNL     1      26.783   7.307  49.130  1.00  0.00     0.116 A 
HETATM   20  F1  UNL     1      26.977   8.626  49.010  1.00  0.00    -0.206 F 
HETATM   21  C13 UNL     1      25.719   6.826  49.897  1.00  0.00     0.043 A 
HETATM   22  C14 UNL     1      25.560   5.465  49.991  1.00  0.00     0.011 A 
ENDBRANCH  15  16
ENDBRANCH   2  15
TORSDOF 4
ENDMDL
MODEL 2
REMARK VINA RESULT:      -7.9      4.139      6.386
REMARK  4 active torsions:
REMARK  status: ('A' for Active; 'I' for Inactive)
REMARK    1  A    between atoms: C6_6  and  S1_7 
REMARK    2  A    between atoms: S1_7  and  N1_10 
REMARK       I    between atoms: N1_10  and  C7_11 
REMARK    3  A    between atoms: C7_11  and  C8_13 
REMARK    4  A    between atoms: C8_13  and  C9_14 
ROOT
HETATM    1  N1  UNL     1      24.942   1.642  51.478  1.00  0.00    -0.250 N 
HETATM    2  C7  UNL     1      25.626   2.234  52.576  1.00  0.00     0.235 C 
HETATM    3  O3  UNL     1      25.012   2.775  53.542  1.00  0.00    -0.272 OA
HETATM    4  H6  UNL     1      25.418   1.186  50.663  1.00  0.00     0.181 HD
ENDROOT
BRANCH   1   5
HETATM    5  S1  UNL     1      23.212   1.722  51.574  1.00  0.00     0.261 S 
HETATM    6  O1  UNL     1      22.773   3.110  51.969  1.00  0.00    -0.200 OA
HETATM    7  O2  UNL     1      22.603   1.506  50.197  1.00  0.00    -0.200 OA
BRANCH   5   8
HETATM    8  C6  UNL     1      22.585   0.569  52.732  1.00  0.00     0.061 A 
HETATM    9  C5  UNL     1      21.292   0.334  52.596  1.00  0.00     0.021 A 
HETATM   10  C4  UNL     1      20.599  -0.600  53.474  1.00  0.00     0.002 A 
HETATM   11  C3  UNL     1      21.221  -1.263  54.452  1.00  0.00     0.007 A 
HETATM   12  C2  UNL     1      22.647  -0.984  54.577  1.00  0.00    -0.063 A 
HETATM   13  C1  UNL     1      23.322  -1.611  55.530  1.00  0.00     0.019 C 
HETATM   14  C15 UNL     1      23.460  -0.058  53.746  1.00  0.00     0.090 A 
ENDBRANCH   5   8
ENDBRANCH   1   5
BRANCH   2  15
HETATM   15  C8  UNL     1      27.111   2.205  52.566  1.00  0.00     0.142 C 
BRANCH  15  16
HETATM   16  C9  UNL     1      27.646   0.857  52.800  1.00  0.00    -0.049 A 
HETATM   17  C10 UNL     1      28.912   0.756  53.345  1.00  0.00     0.011 A 
HETATM   18  C11 UNL     1      29.545  -0.439  53.621  1.00  0.00     0.043 A 
HETATM   19  C12 UNL     1      28.850  -1.598  53.327  1.00  0.00     0.116 A 
HETATM   20  F1  UNL     1      29.438  -2.773  53.584  1.00  0.00    -0.206 F 
HETATM   21  C13 UNL     1      27.567  -1.566  52.776  1.00  0.00     0.043 A 
HETATM   22  C14 UNL     1      27.005  -0.336  52.531  1.00  0.00     0.011 A 
ENDBRANCH  15  16
ENDBRANCH   2  15
TORSDOF 4
ENDMDL
MODEL 3
REMARK VINA RESULT:      -7.8      2.962      7.007
REMARK  4 active torsions:
REMARK  status: ('A' for Active; 'I' for Inactive)
REMARK    1  A    between atoms: C6_6  and  S1_7 
REMARK    2  A    between atoms: S1_7  and  N1_10 
REMARK       I    between atoms: N1_10  and  C7_11 
REMARK    3  A    between atoms: C7_11  and  C8_13 
REMARK    4  A    between atoms: C8_13  and  C9_14 
ROOT
HETATM    1  N1  UNL     1      24.715   1.786  52.072  1.00  0.00    -0.250 N 
HETATM    2  C7  UNL     1      23.830   0.974  52.833  1.00  0.00     0.235 C 
HETATM    3  O3  UNL     1      22.653   1.341  53.120  1.00  0.00    -0.272 OA
HETATM    4  H6  UNL     1      25.695   1.513  51.817  1.00  0.00     0.181 HD
ENDROOT
BRANCH   1   5
HETATM    5  S1  UNL     1      24.052   3.309  51.573  1.00  0.00     0.261 S 
HETATM    6  O1  UNL     1      22.725   3.102  50.885  1.00  0.00    -0.200 OA
HETATM    7  O2  UNL     1      23.723   4.158  52.791  1.00  0.00    -0.200 OA
BRANCH   5   8
HETATM    8  C6  UNL     1      25.138   4.151  50.489  1.00  0.00     0.061 A 
HETATM    9  C5  UNL     1      26.142   3.405  50.062  1.00  0.00     0.021 A 
HETATM   10  C4  UNL     1      27.146   3.940  49.152  1.00  0.00     0.002 A 
HETATM   11  C3  UNL     1      27.110   5.196  48.701  1.00  0.00     0.007 A 
HETATM   12  C2  UNL     1      25.990   5.995  49.188  1.00  0.00    -0.063 A 
HETATM   13  C1  UNL     1      25.899   7.252  48.777  1.00  0.00     0.019 C 
HETATM   14  C15 UNL     1      24.910   5.563  50.113  1.00  0.00     0.090 A 
ENDBRANCH   5   8
ENDBRANCH   1   5
BRANCH   2  15
HETATM   15  C8  UNL     1      24.326  -0.347  53.298  1.00  0.00     0.142 C 
BRANCH  15  16
HETATM   16  C9  UNL     1      25.768  -0.335  53.582  1.00  0.00    -0.049 A 
HETATM   17  C10 UNL     1      26.594  -1.039  52.727  1.00  0.00     0.011 A 
HETATM   18  C11 UNL     1      27.966  -1.120  52.865  1.00  0.00     0.043 A 
HETATM   19  C12 UNL     1      28.528  -0.445  53.933  1.00  0.00     0.116 A 
HETATM   20  F1  UNL     1      29.856  -0.504  54.093  1.00  0.00    -0.206 F 
HETATM   21  C13 UNL     1      27.749   0.286  54.833  1.00  0.00     0.043 A 
HETATM   22  C14 UNL     1      26.391   0.318  54.627  1.00  0.00     0.011 A 
ENDBRANCH  15  16
ENDBRANCH   2  15
TORSDOF 4
ENDMDL
MODEL 4
REMARK VINA RESULT:      -7.7      3.273      7.187
REMARK  4 active torsions:
REMARK  status: ('A' for Active; 'I' for Inactive)
REMARK    1  A    between atoms: C6_6  and  S1_7 
REMARK    2  A    between atoms: S1_7  and  N1_10 
REMARK       I    between atoms: N1_10  and  C7_11 
REMARK    3  A    between atoms: C7_11  and  C8_13 
REMARK    4  A    between atoms: C8_13  and  C9_14 
ROOT
HETATM    1  N1  UNL     1      25.342   3.730  51.367  1.00  0.00    -0.250 N 
HETATM    2  C7  UNL     1      24.366   2.977  52.077  1.00  0.00     0.235 C 
HETATM    3  O3  UNL     1      23.189   2.813  51.639  1.00  0.00    -0.272 OA
HETATM    4  H6  UNL     1      26.324   3.885  51.700  1.00  0.00     0.181 HD
ENDROOT
BRANCH   1   5
HETATM    5  S1  UNL     1      24.790   4.398  49.865  1.00  0.00     0.261 S 
HETATM    6  O1  UNL     1      24.320   3.300  48.944  1.00  0.00    -0.200 OA
HETATM    7  O2  UNL     1      23.556   5.256  50.099  1.00  0.00    -0.200 OA
BRANCH   5   8
HETATM    8  C6  UNL     1      26.055   5.311  49.072  1.00  0.00     0.061 A 
HETATM    9  C5  UNL     1      25.650   6.478  48.602  1.00  0.00     0.021 A 
HETATM   10  C4  UNL     1      26.568   7.374  47.911  1.00  0.00     0.002 A 
HETATM   11  C3  UNL     1      27.854   7.073  47.717  1.00  0.00     0.007 A 
HETATM   12  C2  UNL     1      28.273   5.780  48.247  1.00  0.00    -0.063 A 
HETATM   13  C1  UNL     1      29.539   5.423  48.084  1.00  0.00     0.019 C 
HETATM   14  C15 UNL     1      27.434   4.786  48.965  1.00  0.00     0.090 A 
ENDBRANCH   5   8
ENDBRANCH   1   5
BRANCH   2  15
HETATM   15  C8  UNL     1      24.763   2.372  53.373  1.00  0.00     0.142 C 
BRANCH  15  16
HETATM   16  C9  UNL     1      25.830   1.373  53.222  1.00  0.00    -0.049 A 
HETATM   17  C10 UNL     1      27.053   1.649  53.803  1.00  0.00     0.011 A 
HETATM   18  C11 UNL     1      28.147   0.809  53.745  1.00  0.00     0.043 A 
HETATM   19  C12 UNL     1      27.987  -0.380  53.057  1.00  0.00     0.116 A 
HETATM   20  F1  UNL     1      29.031  -1.216  52.984  1.00  0.00    -0.206 F 
HETATM   21  C13 UNL     1      26.778  -0.719  52.448  1.00  0.00     0.043 A 
HETATM   22  C14 UNL     1      25.736   0.170  52.550  1.00  0.00     0.011 A 
ENDBRANCH  15  16
ENDBRANCH   2  15
TORSDOF 4
ENDMDL
MODEL 5
REMARK VINA RESULT:      -7.7      2.892      3.950
REMARK  4 active torsions:
REMARK  status: ('A' for Active; 'I' for Inactive)
REMARK    1  A    between atoms: C6_6  and  S1_7 
REMARK    2  A    between atoms: S1_7  and  N1_10 
REMARK       I    between atoms: N1_10  and  C7_11 
REMARK    3  A    between atoms: C7_11  and  C8_13 
REMARK    4  A    between atoms: C8_13  and  C9_14 
ROOT
HETATM    1  N1  UNL     1      25.096   2.080  51.128  1.00  0.00    -0.250 N 
HETATM    2  C7  UNL     1      26.376   2.594  50.781  1.00  0.00     0.235 C 
HETATM    3  O3  UNL     1      27.314   2.698  51.625  1.00  0.00    -0.272 OA
HETATM    4  H6  UNL     1      24.298   1.980  50.455  1.00  0.00     0.181 HD
ENDROOT
BRANCH   1   5
HETATM    5  S1  UNL     1      24.929   1.612  52.789  1.00  0.00     0.261 S 
HETATM    6  O1  UNL     1      25.963   0.574  53.148  1.00  0.00    -0.200 OA
HETATM    7  O2  UNL     1      25.241   2.792  53.697  1.00  0.00    -0.200 OA
BRANCH   5   8
HETATM    8  C6  UNL     1      23.333   0.970  53.112  1.00  0.00     0.061 A 
HETATM    9  C5  UNL     1      22.354   1.761  52.709  1.00  0.00     0.021 A 
HETATM   10  C4  UNL     1      20.958   1.388  52.895  1.00  0.00     0.002 A 
HETATM   11  C3  UNL     1      20.592   0.243  53.476  1.00  0.00     0.007 A 
HETATM   12  C2  UNL     1      21.693  -0.609  53.910  1.00  0.00    -0.063 A 
HETATM   13  C1  UNL     1      21.395  -1.761  54.494  1.00  0.00     0.019 C 
HETATM   14  C15 UNL     1      23.148  -0.339  53.776  1.00  0.00     0.090 A 
ENDBRANCH   5   8
ENDBRANCH   1   5
BRANCH   2  15
HETATM   15  C8  UNL     1      26.597   3.017  49.374  1.00  0.00     0.142 C 
BRANCH  15  16
HETATM   16  C9  UNL     1      26.680   4.477  49.236  1.00  0.00    -0.049 A 
HETATM   17  C10 UNL     1      27.772   4.996  48.566  1.00  0.00     0.011 A 
HETATM   18  C11 UNL     1      27.987   6.344  48.358  1.00  0.00     0.043 A 
HETATM   19  C12 UNL     1      27.035   7.213  48.859  1.00  0.00     0.116 A 
HETATM   20  F1  UNL     1      27.214   8.527  48.672  1.00  0.00    -0.206 F 
HETATM   21  C13 UNL     1      25.908   6.754  49.544  1.00  0.00     0.043 A 
HETATM   22  C14 UNL     1      25.767   5.397  49.711  1.00  0.00     0.011 A 
ENDBRANCH  15  16
ENDBRANCH   2  15
TORSDOF 4
ENDMDL
MODEL 6
REMARK VINA RESULT:      -7.7      3.178      4.372
REMARK  4 active torsions:
REMARK  status: ('A' for Active; 'I' for Inactive)
REMARK    1  A    between atoms: C6_6  and  S1_7 
REMARK    2  A    between atoms: S1_7  and  N1_10 
REMARK       I    between atoms: N1_10  and  C7_11 
REMARK    3  A    between atoms: C7_11  and  C8_13 
REMARK    4  A    between atoms: C8_13  and  C9_14 
ROOT
HETATM    1  N1  UNL     1      26.691   0.459  52.072  1.00  0.00    -0.250 N 
HETATM    2  C7  UNL     1      26.508   1.861  52.231  1.00  0.00     0.235 C 
HETATM    3  O3  UNL     1      26.179   2.379  53.338  1.00  0.00    -0.272 OA
HETATM    4  H6  UNL     1      26.963  -0.001  51.171  1.00  0.00     0.181 HD
ENDROOT
BRANCH   1   5
HETATM    5  S1  UNL     1      26.429  -0.472  53.511  1.00  0.00     0.261 S 
HETATM    6  O1  UNL     1      26.997  -1.860  53.347  1.00  0.00    -0.200 OA
HETATM    7  O2  UNL     1      27.211   0.127  54.670  1.00  0.00    -0.200 OA
BRANCH   5   8
HETATM    8  C6  UNL     1      24.725  -0.589  53.891  1.00  0.00     0.061 A 
HETATM    9  C5  UNL     1      24.482  -1.157  55.059  1.00  0.00     0.021 A 
HETATM   10  C4  UNL     1      23.118  -1.338  55.541  1.00  0.00     0.002 A 
HETATM   11  C3  UNL     1      22.051  -0.946  54.841  1.00  0.00     0.007 A 
HETATM   12  C2  UNL     1      22.351  -0.322  53.557  1.00  0.00    -0.063 A 
HETATM   13  C1  UNL     1      21.333   0.088  52.814  1.00  0.00     0.019 C 
HETATM   14  C15 UNL     1      23.691  -0.084  52.961  1.00  0.00     0.090 A 
ENDBRANCH   5   8
ENDBRANCH   1   5
BRANCH   2  15
HETATM   15  C8  UNL     1      26.714   2.728  51.042  1.00  0.00     0.142 C 
BRANCH  15  16
HETATM   16  C9  UNL     1      25.446   3.155  50.435  1.00  0.00    -0.049 A 
HETATM   17  C10 UNL     1      25.463   4.293  49.651  1.00  0.00     0.011 A 
HETATM   18  C11 UNL     1      24.353   4.815  49.016  1.00  0.00     0.043 A 
HETATM   19  C12 UNL     1      23.159   4.140  49.188  1.00  0.00     0.116 A 
HETATM   20  F1  UNL     1      22.065   4.621  48.585  1.00  0.00    -0.206 F 
HETATM   21  C13 UNL     1      23.074   2.984  49.967  1.00  0.00     0.043 A 
HETATM   22  C14 UNL     1      24.223   2.527  50.566  1.00  0.00     0.011 A 
ENDBRANCH  15  16
ENDBRANCH   2  15
TORSDOF 4
ENDMDL
MODEL 7
REMARK VINA RESULT:      -7.2      4.861      7.369
REMARK  4 active torsions:
REMARK  status: ('A' for Active; 'I' for Inactive)
REMARK    1  A    between atoms: C6_6  and  S1_7 
REMARK    2  A    between atoms: S1_7  and  N1_10 
REMARK       I    between atoms: N1_10  and  C7_11 
REMARK    3  A    between atoms: C7_11  and  C8_13 
REMARK    4  A    between atoms: C8_13  and  C9_14 
ROOT
HETATM    1  N1  UNL     1      21.404   2.758  51.541  1.00  0.00    -0.250 N 
HETATM    2  C7  UNL     1      21.437   1.596  50.721  1.00  0.00     0.235 C 
HETATM    3  O3  UNL     1      22.016   1.578  49.596  1.00  0.00    -0.272 OA
HETATM    4  H6  UNL     1      20.935   2.807  52.477  1.00  0.00     0.181 HD
ENDROOT
BRANCH   1   5
HETATM    5  S1  UNL     1      22.216   4.138  50.873  1.00  0.00     0.261 S 
HETATM    6  O1  UNL     1      21.581   4.536  49.563  1.00  0.00    -0.200 OA
HETATM    7  O2  UNL     1      22.019   5.346  51.776  1.00  0.00    -0.200 OA
BRANCH   5   8
HETATM    8  C6  UNL     1      23.916   3.811  50.614  1.00  0.00     0.061 A 
HETATM    9  C5  UNL     1      24.429   4.468  49.588  1.00  0.00     0.021 A 
HETATM   10  C4  UNL     1      25.832   4.319  49.223  1.00  0.00     0.002 A 
HETATM   11  C3  UNL     1      26.668   3.523  49.894  1.00  0.00     0.007 A 
HETATM   12  C2  UNL     1      26.073   2.811  51.020  1.00  0.00    -0.063 A 
HETATM   13  C1  UNL     1      26.852   2.004  51.726  1.00  0.00     0.019 C 
HETATM   14  C15 UNL     1      24.664   2.881  51.487  1.00  0.00     0.090 A 
ENDBRANCH   5   8
ENDBRANCH   1   5
BRANCH   2  15
HETATM   15  C8  UNL     1      20.763   0.372  51.225  1.00  0.00     0.142 C 
BRANCH  15  16
HETATM   16  C9  UNL     1      21.361  -0.124  52.472  1.00  0.00    -0.049 A 
HETATM   17  C10 UNL     1      22.740  -0.123  52.566  1.00  0.00     0.011 A 
HETATM   18  C11 UNL     1      23.443  -0.558  53.672  1.00  0.00     0.043 A 
HETATM   19  C12 UNL     1      22.700  -1.018  54.744  1.00  0.00     0.116 A 
HETATM   20  F1  UNL     1      23.354  -1.445  55.831  1.00  0.00    -0.206 F 
HETATM   21  C13 UNL     1      21.305  -1.044  54.714  1.00  0.00     0.043 A 
HETATM   22  C14 UNL     1      20.679  -0.595  53.576  1.00  0.00     0.011 A 
ENDBRANCH  15  16
ENDBRANCH   2  15
TORSDOF 4
ENDMDL
MODEL 8
REMARK VINA RESULT:      -7.2      4.064      7.025
REMARK  4 active torsions:
REMARK  status: ('A' for Active; 'I' for Inactive)
REMARK    1  A    between atoms: C6_6  and  S1_7 
REMARK    2  A    between atoms: S1_7  and  N1_10 
REMARK       I    between atoms: N1_10  and  C7_11 
REMARK    3  A    between atoms: C7_11  and  C8_13 
REMARK    4  A    between atoms: C8_13  and  C9_14 
ROOT
HETATM    1  N1  UNL     1      25.808   3.041  51.639  1.00  0.00    -0.250 N 
HETATM    2  C7  UNL     1      25.314   2.950  52.970  1.00  0.00     0.235 C 
HETATM    3  O3  UNL     1      24.181   3.405  53.304  1.00  0.00    -0.272 OA
HETATM    4  H6  UNL     1      26.740   2.675  51.330  1.00  0.00     0.181 HD
ENDROOT
BRANCH   1   5
HETATM    5  S1  UNL     1      24.736   3.821  50.521  1.00  0.00     0.261 S 
HETATM    6  O1  UNL     1      24.117   5.042  51.154  1.00  0.00    -0.200 OA
HETATM    7  O2  UNL     1      25.521   4.360  49.335  1.00  0.00    -0.200 OA
BRANCH   5   8
HETATM    8  C6  UNL     1      23.465   2.737  49.998  1.00  0.00     0.061 A 
HETATM    9  C5  UNL     1      23.201   2.818  48.706  1.00  0.00     0.021 A 
HETATM   10  C4  UNL     1      22.170   1.988  48.093  1.00  0.00     0.002 A 
HETATM   11  C3  UNL     1      21.445   1.112  48.792  1.00  0.00     0.007 A 
HETATM   12  C2  UNL     1      21.759   1.045  50.215  1.00  0.00    -0.063 A 
HETATM   13  C1  UNL     1      21.072   0.194  50.963  1.00  0.00     0.019 C 
HETATM   14  C15 UNL     1      22.781   1.835  50.950  1.00  0.00     0.090 A 
ENDBRANCH   5   8
ENDBRANCH   1   5
BRANCH   2  15
HETATM   15  C8  UNL     1      26.176   2.294  53.987  1.00  0.00     0.142 C 
BRANCH  15  16
HETATM   16  C9  UNL     1      26.586   0.942  53.585  1.00  0.00    -0.049 A 
HETATM   17  C10 UNL     1      25.590   0.031  53.289  1.00  0.00     0.011 A 
HETATM   18  C11 UNL     1      25.820  -1.272  52.898  1.00  0.00     0.043 A 
HETATM   19  C12 UNL     1      27.141  -1.672  52.802  1.00  0.00     0.116 A 
HETATM   20  F1  UNL     1      27.397  -2.931  52.425  1.00  0.00    -0.206 F 
HETATM   21  C13 UNL     1      28.195  -0.801  53.086  1.00  0.00     0.043 A 
HETATM   22  C14 UNL     1      27.883   0.481  53.469  1.00  0.00     0.011 A 
ENDBRANCH  15  16
ENDBRANCH   2  15
TORSDOF 4
ENDMDL
MODEL 9
REMARK VINA RESULT:      -7.2      5.784      7.476
REMARK  4 active torsions:
REMARK  status: ('A' for Active; 'I' for Inactive)
REMARK    1  A    between atoms: C6_6  and  S1_7 
REMARK    2  A    between atoms: S1_7  and  N1_10 
REMARK       I    between atoms: N1_10  and  C7_11 
REMARK    3  A    between atoms: C7_11  and  C8_13 
REMARK    4  A    between atoms: C8_13  and  C9_14 
ROOT
HETATM    1  N1  UNL     1      30.089   6.450  47.791  1.00  0.00    -0.250 N 
HETATM    2  C7  UNL     1      29.127   7.389  48.255  1.00  0.00     0.235 C 
HETATM    3  O3  UNL     1      29.438   8.363  49.001  1.00  0.00    -0.272 OA
HETATM    4  H6  UNL     1      29.865   5.633  47.172  1.00  0.00     0.181 HD
ENDROOT
BRANCH   1   5
HETATM    5  S1  UNL     1      31.710   6.749  48.328  1.00  0.00     0.261 S 
HETATM    6  O1  UNL     1      32.301   7.921  47.584  1.00  0.00    -0.200 OA
HETATM    7  O2  UNL     1      31.705   7.184  49.785  1.00  0.00    -0.200 OA
BRANCH   5   8
HETATM    8  C6  UNL     1      32.728   5.345  48.091  1.00  0.00     0.061 A 
HETATM    9  C5  UNL     1      33.997   5.555  48.394  1.00  0.00     0.021 A 
HETATM   10  C4  UNL     1      34.990   4.497  48.258  1.00  0.00     0.002 A 
HETATM   11  C3  UNL     1      34.681   3.273  47.826  1.00  0.00     0.007 A 
HETATM   12  C2  UNL     1      33.273   3.070  47.500  1.00  0.00    -0.063 A 
HETATM   13  C1  UNL     1      32.902   1.875  47.065  1.00  0.00     0.019 C 
HETATM   14  C15 UNL     1      32.174   4.066  47.597  1.00  0.00     0.090 A 
ENDBRANCH   5   8
ENDBRANCH   1   5
BRANCH   2  15
HETATM   15  C8  UNL     1      27.714   7.200  47.838  1.00  0.00     0.142 C 
BRANCH  15  16
HETATM   16  C9  UNL     1      27.039   6.146  48.608  1.00  0.00    -0.049 A 
HETATM   17  C10 UNL     1      25.916   6.501  49.332  1.00  0.00     0.011 A 
HETATM   18  C11 UNL     1      25.179   5.623  50.101  1.00  0.00     0.043 A 
HETATM   19  C12 UNL     1      25.608   4.309  50.135  1.00  0.00     0.116 A 
HETATM   20  F1  UNL     1      24.914   3.433  50.872  1.00  0.00    -0.206 F 
HETATM   21  C13 UNL     1      26.735   3.885  49.426  1.00  0.00     0.043 A 
HETATM   22  C14 UNL     1      27.415   4.819  48.683  1.00  0.00     0.011 A 
ENDBRANCH  15  16
ENDBRANCH   2  15
TORSDOF 4
ENDMDL
