MODEL 1
REMARK VINA RESULT:      -9.2      0.000      0.000
REMARK  6 active torsions:
REMARK  status: ('A' for Active; 'I' for Inactive)
REMARK       I    between atoms: C1_2  and  N1_3 
REMARK       I    between atoms: C1_2  and  N2_10 
REMARK    1  A    between atoms: N1_3  and  C2_4 
REMARK    2  A    between atoms: N2_10  and  C8_11 
REMARK    3  A    between atoms: N2_10  and  C15_19 
REMARK    4  A    between atoms: C8_11  and  C9_12 
REMARK    5  A    between atoms: C12_15  and  O2_16 
REMARK    6  A    between atoms: C15_19  and  C16_20 
ROOT
HETATM    1  O1  UNL     1      24.040   1.697  52.753  1.00  0.00    -0.247 OA
HETATM    2  C1  UNL     1      24.520   2.002  51.605  1.00  0.00     0.323 C 
HETATM    3  N1  UNL     1      23.449   2.102  50.698  1.00  0.00    -0.309 N 
HETATM    4  N2  UNL     1      25.936   2.194  51.381  1.00  0.00    -0.326 N 
HETATM    5  H1  UNL     1      23.673   2.351  49.727  1.00  0.00     0.170 HD
ENDROOT
BRANCH   4   6
HETATM    6  C8  UNL     1      26.747   2.020  52.568  1.00  0.00     0.166 C 
BRANCH   6   7
HETATM    7  C9  UNL     1      27.262   0.648  52.766  1.00  0.00    -0.040 A 
HETATM    8  C10 UNL     1      28.463   0.313  53.349  1.00  0.00     0.011 A 
HETATM    9  C11 UNL     1      28.946  -0.958  53.524  1.00  0.00     0.037 A 
HETATM   10  C12 UNL     1      28.186  -2.023  53.090  1.00  0.00     0.065 A 
HETATM   11  C13 UNL     1      26.971  -1.785  52.496  1.00  0.00     0.037 A 
HETATM   12  C14 UNL     1      26.556  -0.488  52.355  1.00  0.00     0.011 A 
BRANCH  10  13
HETATM   13  O2  UNL     1      28.643  -3.322  53.252  1.00  0.00    -0.361 OA
HETATM   14  H11 UNL     1      28.036  -4.055  52.881  1.00  0.00     0.217 HD
ENDBRANCH  10  13
ENDBRANCH   6   7
ENDBRANCH   4   6
BRANCH   4  15
HETATM   15  C15 UNL     1      26.314   2.527  50.025  1.00  0.00     0.166 C 
BRANCH  15  16
HETATM   16  C16 UNL     1      26.371   3.949  49.709  1.00  0.00    -0.039 A 
HETATM   17  C17 UNL     1      27.393   4.411  48.869  1.00  0.00     0.009 A 
HETATM   18  C18 UNL     1      27.585   5.716  48.465  1.00  0.00     0.002 A 
HETATM   19  C19 UNL     1      26.697   6.664  48.925  1.00  0.00     0.019 A 
HETATM   20  C20 UNL     1      25.667   6.297  49.752  1.00  0.00     0.011 A 
HETATM   21 BR1  UNL     1      24.418   7.579  50.410  1.00  0.00    -0.051 Br
HETATM   22  C21 UNL     1      25.542   4.974  50.109  1.00  0.00     0.027 A 
ENDBRANCH  15  16
ENDBRANCH   4  15
BRANCH   3  23
HETATM   23  C2  UNL     1      22.142   1.850  51.224  1.00  0.00     0.036 A 
HETATM   24  C3  UNL     1      21.576   0.594  51.151  1.00  0.00     0.029 A 
HETATM   25  C4  UNL     1      20.323   0.305  51.642  1.00  0.00     0.002 A 
HETATM   26  C5  UNL     1      19.600   1.340  52.241  1.00  0.00     0.000 A 
HETATM   27  C6  UNL     1      20.156   2.597  52.319  1.00  0.00     0.002 A 
HETATM   28  C7  UNL     1      21.408   2.857  51.820  1.00  0.00     0.029 A 
ENDBRANCH   3  23
TORSDOF 6
ENDMDL
MODEL 2
REMARK VINA RESULT:      -8.9      2.845      7.327
REMARK  6 active torsions:
REMARK  status: ('A' for Active; 'I' for Inactive)
REMARK       I    between atoms: C1_2  and  N1_3 
REMARK       I    between atoms: C1_2  and  N2_10 
REMARK    1  A    between atoms: N1_3  and  C2_4 
REMARK    2  A    between atoms: N2_10  and  C8_11 
REMARK    3  A    between atoms: N2_10  and  C15_19 
REMARK    4  A    between atoms: C8_11  and  C9_12 
REMARK    5  A    between atoms: C12_15  and  O2_16 
REMARK    6  A    between atoms: C15_19  and  C16_20 
ROOT
HETATM    1  O1  UNL     1      26.905   1.475  51.052  1.00  0.00    -0.247 OA
HETATM    2  C1  UNL     1      26.033   1.961  51.855  1.00  0.00     0.323 C 
HETATM    3  N1  UNL     1      26.319   1.487  53.148  1.00  0.00    -0.309 N 
HETATM    4  N2  UNL     1      24.974   2.839  51.411  1.00  0.00    -0.326 N 
HETATM    5  H1  UNL     1      25.707   1.798  53.912  1.00  0.00     0.170 HD
ENDROOT
BRANCH   4   6
HETATM    6  C8  UNL     1      25.001   3.123  49.991  1.00  0.00     0.166 C 
BRANCH   6   7
HETATM    7  C9  UNL     1      25.712   4.368  49.627  1.00  0.00    -0.040 A 
HETATM    8  C10 UNL     1      25.282   5.649  49.888  1.00  0.00     0.011 A 
HETATM    9  C11 UNL     1      25.936   6.804  49.542  1.00  0.00     0.037 A 
HETATM   10  C12 UNL     1      27.136   6.712  48.872  1.00  0.00     0.065 A 
HETATM   11  C13 UNL     1      27.645   5.473  48.569  1.00  0.00     0.037 A 
HETATM   12  C14 UNL     1      26.934   4.365  48.946  1.00  0.00     0.011 A 
BRANCH  10  13
HETATM   13  O2  UNL     1      27.824   7.859  48.508  1.00  0.00    -0.361 OA
HETATM   14  H11 UNL     1      28.832   7.748  48.374  1.00  0.00     0.217 HD
ENDBRANCH  10  13
ENDBRANCH   6   7
ENDBRANCH   4   6
BRANCH   4  15
HETATM   15  C15 UNL     1      24.066   3.294  52.442  1.00  0.00     0.166 C 
BRANCH  15  16
HETATM   16  C16 UNL     1      22.854   2.502  52.620  1.00  0.00    -0.039 A 
HETATM   17  C17 UNL     1      21.633   3.033  52.181  1.00  0.00     0.009 A 
HETATM   18  C18 UNL     1      20.403   2.416  52.265  1.00  0.00     0.002 A 
HETATM   19  C19 UNL     1      20.355   1.161  52.833  1.00  0.00     0.019 A 
HETATM   20  C20 UNL     1      21.503   0.569  53.289  1.00  0.00     0.011 A 
HETATM   21 BR1  UNL     1      21.478  -1.166  54.081  1.00  0.00    -0.051 Br
HETATM   22  C21 UNL     1      22.693   1.249  53.169  1.00  0.00     0.027 A 
ENDBRANCH  15  16
ENDBRANCH   4  15
BRANCH   3  23
HETATM   23  C2  UNL     1      27.450   0.617  53.273  1.00  0.00     0.036 A 
HETATM   24  C3  UNL     1      27.332  -0.738  53.042  1.00  0.00     0.029 A 
HETATM   25  C4  UNL     1      28.389  -1.613  53.151  1.00  0.00     0.002 A 
HETATM   26  C5  UNL     1      29.635  -1.093  53.511  1.00  0.00     0.000 A 
HETATM   27  C6  UNL     1      29.763   0.258  53.743  1.00  0.00     0.002 A 
HETATM   28  C7  UNL     1      28.690   1.107  53.628  1.00  0.00     0.029 A 
ENDBRANCH   3  23
TORSDOF 6
ENDMDL
MODEL 3
REMARK VINA RESULT:      -8.7      3.105      7.506
REMARK  6 active torsions:
REMARK  status: ('A' for Active; 'I' for Inactive)
REMARK       I    between atoms: C1_2  and  N1_3 
REMARK       I    between atoms: C1_2  and  N2_10 
REMARK    1  A    between atoms: N1_3  and  C2_4 
REMARK    2  A    between atoms: N2_10  and  C8_11 
REMARK    3  A    between atoms: N2_10  and  C15_19 
REMARK    4  A    between atoms: C8_11  and  C9_12 
REMARK    5  A    between atoms: C12_15  and  O2_16 
REMARK    6  A    between atoms: C15_19  and  C16_20 
ROOT
HETATM    1  O1  UNL     1      26.615   1.665  51.041  1.00  0.00    -0.247 OA
HETATM    2  C1  UNL     1      25.713   2.089  51.846  1.00  0.00     0.323 C 
HETATM    3  N1  UNL     1      26.036   1.640  53.139  1.00  0.00    -0.309 N 
HETATM    4  N2  UNL     1      24.592   2.889  51.403  1.00  0.00    -0.326 N 
HETATM    5  H1  UNL     1      25.405   1.908  53.904  1.00  0.00     0.170 HD
ENDROOT
BRANCH   4   6
HETATM    6  C8  UNL     1      24.595   3.171  49.983  1.00  0.00     0.166 C 
BRANCH   6   7
HETATM    7  C9  UNL     1      23.287   2.991  49.317  1.00  0.00    -0.040 A 
HETATM    8  C10 UNL     1      22.646   1.791  49.109  1.00  0.00     0.011 A 
HETATM    9  C11 UNL     1      21.437   1.621  48.484  1.00  0.00     0.037 A 
HETATM   10  C12 UNL     1      20.775   2.732  48.008  1.00  0.00     0.065 A 
HETATM   11  C13 UNL     1      21.338   3.973  48.171  1.00  0.00     0.037 A 
HETATM   12  C14 UNL     1      22.549   4.063  48.805  1.00  0.00     0.011 A 
BRANCH  10  13
HETATM   13  O2  UNL     1      19.550   2.597  47.371  1.00  0.00    -0.361 OA
HETATM   14  H11 UNL     1      19.588   2.277  46.401  1.00  0.00     0.217 HD
ENDBRANCH  10  13
ENDBRANCH   6   7
ENDBRANCH   4   6
BRANCH   4  15
HETATM   15  C15 UNL     1      23.657   3.280  52.436  1.00  0.00     0.166 C 
BRANCH  15  16
HETATM   16  C16 UNL     1      22.531   2.379  52.652  1.00  0.00    -0.039 A 
HETATM   17  C17 UNL     1      21.250   2.801  52.270  1.00  0.00     0.009 A 
HETATM   18  C18 UNL     1      20.085   2.073  52.395  1.00  0.00     0.002 A 
HETATM   19  C19 UNL     1      20.175   0.814  52.946  1.00  0.00     0.019 A 
HETATM   20  C20 UNL     1      21.390   0.323  53.348  1.00  0.00     0.011 A 
HETATM   21 BR1  UNL     1      21.555  -1.414  54.115  1.00  0.00    -0.051 Br
HETATM   22  C21 UNL     1      22.508   1.111  53.189  1.00  0.00     0.027 A 
ENDBRANCH  15  16
ENDBRANCH   4  15
BRANCH   3  23
HETATM   23  C2  UNL     1      27.225   0.853  53.262  1.00  0.00     0.036 A 
HETATM   24  C3  UNL     1      27.197  -0.513  53.072  1.00  0.00     0.029 A 
HETATM   25  C4  UNL     1      28.314  -1.311  53.181  1.00  0.00     0.002 A 
HETATM   26  C5  UNL     1      29.527  -0.696  53.498  1.00  0.00     0.000 A 
HETATM   27  C6  UNL     1      29.567   0.667  53.690  1.00  0.00     0.002 A 
HETATM   28  C7  UNL     1      28.436   1.437  53.576  1.00  0.00     0.029 A 
ENDBRANCH   3  23
TORSDOF 6
ENDMDL
MODEL 4
REMARK VINA RESULT:      -8.7      2.847      7.518
REMARK  6 active torsions:
REMARK  status: ('A' for Active; 'I' for Inactive)
REMARK       I    between atoms: C1_2  and  N1_3 
REMARK       I    between atoms: C1_2  and  N2_10 
REMARK    1  A    between atoms: N1_3  and  C2_4 
REMARK    2  A    between atoms: N2_10  and  C8_11 
REMARK    3  A    between atoms: N2_10  and  C15_19 
REMARK    4  A    between atoms: C8_11  and  C9_12 
REMARK    5  A    between atoms: C12_15  and  O2_16 
REMARK    6  A    between atoms: C15_19  and  C16_20 
ROOT
HETATM    1  O1  UNL     1      26.510   0.906  51.322  1.00  0.00    -0.247 OA
HETATM    2  C1  UNL     1      25.621   1.151  52.212  1.00  0.00     0.323 C 
HETATM    3  N1  UNL     1      26.089   0.658  53.443  1.00  0.00    -0.309 N 
HETATM    4  N2  UNL     1      24.380   1.828  51.904  1.00  0.00    -0.326 N 
HETATM    5  H1  UNL     1      25.486   0.787  54.264  1.00  0.00     0.170 HD
ENDROOT
BRANCH   4   6
HETATM    6  C8  UNL     1      24.247   2.207  50.513  1.00  0.00     0.166 C 
BRANCH   6   7
HETATM    7  C9  UNL     1      24.853   3.512  50.171  1.00  0.00    -0.040 A 
HETATM    8  C10 UNL     1      25.989   3.702  49.418  1.00  0.00     0.011 A 
HETATM    9  C11 UNL     1      26.557   4.912  49.108  1.00  0.00     0.037 A 
HETATM   10  C12 UNL     1      25.962   6.063  49.575  1.00  0.00     0.065 A 
HETATM   11  C13 UNL     1      24.823   5.972  50.336  1.00  0.00     0.037 A 
HETATM   12  C14 UNL     1      24.315   4.729  50.605  1.00  0.00     0.011 A 
BRANCH  10  13
HETATM   13  O2  UNL     1      26.510   7.303  49.281  1.00  0.00    -0.361 OA
HETATM   14  H11 UNL     1      26.007   8.110  49.656  1.00  0.00     0.217 HD
ENDBRANCH  10  13
ENDBRANCH   6   7
ENDBRANCH   4   6
BRANCH   4  15
HETATM   15  C15 UNL     1      23.480   2.019  53.020  1.00  0.00     0.166 C 
BRANCH  15  16
HETATM   16  C16 UNL     1      22.403   1.045  53.146  1.00  0.00    -0.039 A 
HETATM   17  C17 UNL     1      22.554  -0.011  54.055  1.00  0.00     0.009 A 
HETATM   18  C18 UNL     1      21.634  -1.008  54.303  1.00  0.00     0.002 A 
HETATM   19  C19 UNL     1      20.451  -0.975  53.596  1.00  0.00     0.019 A 
HETATM   20  C20 UNL     1      20.222   0.024  52.686  1.00  0.00     0.011 A 
HETATM   21 BR1  UNL     1      18.599   0.104  51.688  1.00  0.00    -0.051 Br
HETATM   22  C21 UNL     1      21.190   0.983  52.496  1.00  0.00     0.027 A 
ENDBRANCH  15  16
ENDBRANCH   4  15
BRANCH   3  23
HETATM   23  C2  UNL     1      27.374   0.026  53.429  1.00  0.00     0.036 A 
HETATM   24  C3  UNL     1      27.504  -1.313  53.124  1.00  0.00     0.029 A 
HETATM   25  C4  UNL     1      28.717  -1.964  53.100  1.00  0.00     0.002 A 
HETATM   26  C5  UNL     1      29.863  -1.223  53.399  1.00  0.00     0.000 A 
HETATM   27  C6  UNL     1      29.744   0.114  53.705  1.00  0.00     0.002 A 
HETATM   28  C7  UNL     1      28.520   0.737  53.723  1.00  0.00     0.029 A 
ENDBRANCH   3  23
TORSDOF 6
ENDMDL
MODEL 5
REMARK VINA RESULT:      -8.7      2.229      5.902
REMARK  6 active torsions:
REMARK  status: ('A' for Active; 'I' for Inactive)
REMARK       I    between atoms: C1_2  and  N1_3 
REMARK       I    between atoms: C1_2  and  N2_10 
REMARK    1  A    between atoms: N1_3  and  C2_4 
REMARK    2  A    between atoms: N2_10  and  C8_11 
REMARK    3  A    between atoms: N2_10  and  C15_19 
REMARK    4  A    between atoms: C8_11  and  C9_12 
REMARK    5  A    between atoms: C12_15  and  O2_16 
REMARK    6  A    between atoms: C15_19  and  C16_20 
ROOT
HETATM    1  O1  UNL     1      25.293   1.130  53.682  1.00  0.00    -0.247 OA
HETATM    2  C1  UNL     1      25.061   1.296  52.432  1.00  0.00     0.323 C 
HETATM    3  N1  UNL     1      26.205   0.893  51.719  1.00  0.00    -0.309 N 
HETATM    4  N2  UNL     1      23.804   1.814  51.939  1.00  0.00    -0.326 N 
HETATM    5  H1  UNL     1      26.171   0.959  50.695  1.00  0.00     0.170 HD
ENDROOT
BRANCH   4   6
HETATM    6  C8  UNL     1      22.842   2.112  52.979  1.00  0.00     0.166 C 
BRANCH   6   7
HETATM    7  C9  UNL     1      21.824   1.061  53.193  1.00  0.00    -0.040 A 
HETATM    8  C10 UNL     1      20.603   0.978  52.562  1.00  0.00     0.011 A 
HETATM    9  C11 UNL     1      19.655   0.009  52.767  1.00  0.00     0.037 A 
HETATM   10  C12 UNL     1      19.913  -0.990  53.681  1.00  0.00     0.065 A 
HETATM   11  C13 UNL     1      21.106  -0.990  54.359  1.00  0.00     0.037 A 
HETATM   12  C14 UNL     1      22.004   0.012  54.102  1.00  0.00     0.011 A 
BRANCH  10  13
HETATM   13  O2  UNL     1      18.977  -1.986  53.912  1.00  0.00    -0.361 OA
HETATM   14  H11 UNL     1      19.356  -2.906  54.145  1.00  0.00     0.217 HD
ENDBRANCH  10  13
ENDBRANCH   6   7
ENDBRANCH   4   6
BRANCH   4  15
HETATM   15  C15 UNL     1      23.706   1.949  50.501  1.00  0.00     0.166 C 
BRANCH  15  16
HETATM   16  C16 UNL     1      24.188   3.207  49.944  1.00  0.00    -0.039 A 
HETATM   17  C17 UNL     1      23.266   4.236  49.709  1.00  0.00     0.009 A 
HETATM   18  C18 UNL     1      23.554   5.484  49.197  1.00  0.00     0.002 A 
HETATM   19  C19 UNL     1      24.868   5.757  48.882  1.00  0.00     0.019 A 
HETATM   20  C20 UNL     1      25.834   4.806  49.080  1.00  0.00     0.011 A 
HETATM   21 BR1  UNL     1      27.662   5.145  48.656  1.00  0.00    -0.051 Br
HETATM   22  C21 UNL     1      25.467   3.584  49.596  1.00  0.00     0.027 A 
ENDBRANCH  15  16
ENDBRANCH   4  15
BRANCH   3  23
HETATM   23  C2  UNL     1      27.308   0.420  52.499  1.00  0.00     0.036 A 
HETATM   24  C3  UNL     1      27.523  -0.930  52.681  1.00  0.00     0.029 A 
HETATM   25  C4  UNL     1      28.569  -1.432  53.422  1.00  0.00     0.002 A 
HETATM   26  C5  UNL     1      29.448  -0.521  54.013  1.00  0.00     0.000 A 
HETATM   27  C6  UNL     1      29.243   0.829  53.837  1.00  0.00     0.002 A 
HETATM   28  C7  UNL     1      28.190   1.301  53.093  1.00  0.00     0.029 A 
ENDBRANCH   3  23
TORSDOF 6
ENDMDL
MODEL 6
REMARK VINA RESULT:      -8.7      2.743      6.864
REMARK  6 active torsions:
REMARK  status: ('A' for Active; 'I' for Inactive)
REMARK       I    between atoms: C1_2  and  N1_3 
REMARK       I    between atoms: C1_2  and  N2_10 
REMARK    1  A    between atoms: N1_3  and  C2_4 
REMARK    2  A    between atoms: N2_10  and  C8_11 
REMARK    3  A    between atoms: N2_10  and  C15_19 
REMARK    4  A    between atoms: C8_11  and  C9_12 
REMARK    5  A    between atoms: C12_15  and  O2_16 
REMARK    6  A    between atoms: C15_19  and  C16_20 
ROOT
HETATM    1  O1  UNL     1      23.916   3.041  49.647  1.00  0.00    -0.247 OA
HETATM    2  C1  UNL     1      24.206   2.759  50.864  1.00  0.00     0.323 C 
HETATM    3  N1  UNL     1      25.264   3.593  51.265  1.00  0.00    -0.309 N 
HETATM    4  N2  UNL     1      23.503   1.740  51.611  1.00  0.00    -0.326 N 
HETATM    5  H1  UNL     1      25.607   3.492  52.228  1.00  0.00     0.170 HD
ENDROOT
BRANCH   4   6
HETATM    6  C8  UNL     1      22.447   1.087  50.867  1.00  0.00     0.166 C 
BRANCH   6   7
HETATM    7  C9  UNL     1      21.375   0.503  51.703  1.00  0.00    -0.040 A 
HETATM    8  C10 UNL     1      21.559  -0.256  52.836  1.00  0.00     0.011 A 
HETATM    9  C11 UNL     1      20.568  -0.806  53.607  1.00  0.00     0.037 A 
HETATM   10  C12 UNL     1      19.254  -0.600  53.244  1.00  0.00     0.065 A 
HETATM   11  C13 UNL     1      18.973   0.145  52.126  1.00  0.00     0.037 A 
HETATM   12  C14 UNL     1      20.018   0.662  51.406  1.00  0.00     0.011 A 
BRANCH  10  13
HETATM   13  O2  UNL     1      18.226  -1.141  54.001  1.00  0.00    -0.361 OA
HETATM   14  H11 UNL     1      18.504  -1.847  54.687  1.00  0.00     0.217 HD
ENDBRANCH  10  13
ENDBRANCH   6   7
ENDBRANCH   4   6
BRANCH   4  15
HETATM   15  C15 UNL     1      23.958   1.538  52.970  1.00  0.00     0.166 C 
BRANCH  15  16
HETATM   16  C16 UNL     1      25.228   0.838  53.121  1.00  0.00    -0.039 A 
HETATM   17  C17 UNL     1      25.296  -0.516  52.767  1.00  0.00     0.009 A 
HETATM   18  C18 UNL     1      26.416  -1.319  52.839  1.00  0.00     0.002 A 
HETATM   19  C19 UNL     1      27.581  -0.748  53.302  1.00  0.00     0.019 A 
HETATM   20  C20 UNL     1      27.602   0.571  53.671  1.00  0.00     0.011 A 
HETATM   21 BR1  UNL     1      29.195   1.396  54.317  1.00  0.00    -0.051 Br
HETATM   22  C21 UNL     1      26.444   1.307  53.569  1.00  0.00     0.027 A 
ENDBRANCH  15  16
ENDBRANCH   4  15
BRANCH   3  23
HETATM   23  C2  UNL     1      25.758   4.514  50.286  1.00  0.00     0.036 A 
HETATM   24  C3  UNL     1      25.160   5.743  50.101  1.00  0.00     0.029 A 
HETATM   25  C4  UNL     1      25.598   6.660  49.172  1.00  0.00     0.002 A 
HETATM   26  C5  UNL     1      26.700   6.318  48.385  1.00  0.00     0.000 A 
HETATM   27  C6  UNL     1      27.304   5.093  48.561  1.00  0.00     0.002 A 
HETATM   28  C7  UNL     1      26.845   4.198  49.496  1.00  0.00     0.029 A 
ENDBRANCH   3  23
TORSDOF 6
ENDMDL
MODEL 7
REMARK VINA RESULT:      -8.6      1.989      5.952
REMARK  6 active torsions:
REMARK  status: ('A' for Active; 'I' for Inactive)
REMARK       I    between atoms: C1_2  and  N1_3 
REMARK       I    between atoms: C1_2  and  N2_10 
REMARK    1  A    between atoms: N1_3  and  C2_4 
REMARK    2  A    between atoms: N2_10  and  C8_11 
REMARK    3  A    between atoms: N2_10  and  C15_19 
REMARK    4  A    between atoms: C8_11  and  C9_12 
REMARK    5  A    between atoms: C12_15  and  O2_16 
REMARK    6  A    between atoms: C15_19  and  C16_20 
ROOT
HETATM    1  O1  UNL     1      25.348   2.372  53.164  1.00  0.00    -0.247 OA
HETATM    2  C1  UNL     1      25.462   2.510  51.894  1.00  0.00     0.323 C 
HETATM    3  N1  UNL     1      26.702   1.971  51.507  1.00  0.00    -0.309 N 
HETATM    4  N2  UNL     1      24.434   3.126  51.085  1.00  0.00    -0.326 N 
HETATM    5  H1  UNL     1      26.939   1.999  50.509  1.00  0.00     0.170 HD
ENDROOT
BRANCH   4   6
HETATM    6  C8  UNL     1      23.273   3.556  51.836  1.00  0.00     0.166 C 
BRANCH   6   7
HETATM    7  C9  UNL     1      22.129   2.620  51.789  1.00  0.00    -0.040 A 
HETATM    8  C10 UNL     1      20.842   2.898  52.188  1.00  0.00     0.011 A 
HETATM    9  C11 UNL     1      19.782   2.028  52.154  1.00  0.00     0.037 A 
HETATM   10  C12 UNL     1      19.988   0.750  51.681  1.00  0.00     0.065 A 
HETATM   11  C13 UNL     1      21.241   0.382  51.260  1.00  0.00     0.037 A 
HETATM   12  C14 UNL     1      22.250   1.306  51.325  1.00  0.00     0.011 A 
BRANCH  10  13
HETATM   13  O2  UNL     1      18.939  -0.155  51.632  1.00  0.00    -0.361 OA
HETATM   14  H11 UNL     1      18.452  -0.221  50.736  1.00  0.00     0.217 HD
ENDBRANCH  10  13
ENDBRANCH   6   7
ENDBRANCH   4   6
BRANCH   4  15
HETATM   15  C15 UNL     1      24.722   3.213  49.670  1.00  0.00     0.166 C 
BRANCH  15  16
HETATM   16  C16 UNL     1      25.458   4.396  49.239  1.00  0.00    -0.039 A 
HETATM   17  C17 UNL     1      24.760   5.600  49.074  1.00  0.00     0.009 A 
HETATM   18  C18 UNL     1      25.303   6.806  48.683  1.00  0.00     0.002 A 
HETATM   19  C19 UNL     1      26.656   6.844  48.427  1.00  0.00     0.019 A 
HETATM   20  C20 UNL     1      27.414   5.711  48.563  1.00  0.00     0.011 A 
HETATM   21 BR1  UNL     1      29.289   5.723  48.217  1.00  0.00    -0.051 Br
HETATM   22  C21 UNL     1      26.799   4.545  48.958  1.00  0.00     0.027 A 
ENDBRANCH  15  16
ENDBRANCH   4  15
BRANCH   3  23
HETATM   23  C2  UNL     1      27.514   1.425  52.552  1.00  0.00     0.036 A 
HETATM   24  C3  UNL     1      28.340   2.233  53.306  1.00  0.00     0.029 A 
HETATM   25  C4  UNL     1      29.140   1.754  54.320  1.00  0.00     0.002 A 
HETATM   26  C5  UNL     1      29.103   0.384  54.589  1.00  0.00     0.000 A 
HETATM   27  C6  UNL     1      28.282  -0.432  53.843  1.00  0.00     0.002 A 
HETATM   28  C7  UNL     1      27.497   0.074  52.837  1.00  0.00     0.029 A 
ENDBRANCH   3  23
TORSDOF 6
ENDMDL
MODEL 8
REMARK VINA RESULT:      -8.0      3.282      6.250
REMARK  6 active torsions:
REMARK  status: ('A' for Active; 'I' for Inactive)
REMARK       I    between atoms: C1_2  and  N1_3 
REMARK       I    between atoms: C1_2  and  N2_10 
REMARK    1  A    between atoms: N1_3  and  C2_4 
REMARK    2  A    between atoms: N2_10  and  C8_11 
REMARK    3  A    between atoms: N2_10  and  C15_19 
REMARK    4  A    between atoms: C8_11  and  C9_12 
REMARK    5  A    between atoms: C12_15  and  O2_16 
REMARK    6  A    between atoms: C15_19  and  C16_20 
ROOT
HETATM    1  O1  UNL     1      25.391   2.551  50.880  1.00  0.00    -0.247 OA
HETATM    2  C1  UNL     1      24.873   3.620  51.360  1.00  0.00     0.323 C 
HETATM    3  N1  UNL     1      24.599   3.398  52.722  1.00  0.00    -0.309 N 
HETATM    4  N2  UNL     1      24.649   4.802  50.557  1.00  0.00    -0.326 N 
HETATM    5  H1  UNL     1      24.185   4.173  53.253  1.00  0.00     0.170 HD
ENDROOT
BRANCH   4   6
HETATM    6  C8  UNL     1      25.074   4.666  49.180  1.00  0.00     0.166 C 
BRANCH   6   7
HETATM    7  C9  UNL     1      26.323   5.384  48.848  1.00  0.00    -0.040 A 
HETATM    8  C10 UNL     1      27.562   4.810  48.675  1.00  0.00     0.011 A 
HETATM    9  C11 UNL     1      28.724   5.476  48.376  1.00  0.00     0.037 A 
HETATM   10  C12 UNL     1      28.684   6.845  48.228  1.00  0.00     0.065 A 
HETATM   11  C13 UNL     1      27.490   7.505  48.382  1.00  0.00     0.037 A 
HETATM   12  C14 UNL     1      26.373   6.772  48.681  1.00  0.00     0.011 A 
BRANCH  10  13
HETATM   13  O2  UNL     1      29.839   7.550  47.926  1.00  0.00    -0.361 OA
HETATM   14  H11 UNL     1      30.712   7.134  48.258  1.00  0.00     0.217 HD
ENDBRANCH  10  13
ENDBRANCH   6   7
ENDBRANCH   4   6
BRANCH   4  15
HETATM   15  C15 UNL     1      24.047   5.921  51.249  1.00  0.00     0.166 C 
BRANCH  15  16
HETATM   16  C16 UNL     1      22.851   6.484  50.633  1.00  0.00    -0.039 A 
HETATM   17  C17 UNL     1      22.879   7.818  50.203  1.00  0.00     0.009 A 
HETATM   18  C18 UNL     1      21.844   8.498  49.597  1.00  0.00     0.002 A 
HETATM   19  C19 UNL     1      20.666   7.813  49.388  1.00  0.00     0.019 A 
HETATM   20  C20 UNL     1      20.553   6.504  49.779  1.00  0.00     0.011 A 
HETATM   21 BR1  UNL     1      18.940   5.524  49.508  1.00  0.00    -0.051 Br
HETATM   22  C21 UNL     1      21.632   5.895  50.377  1.00  0.00     0.027 A 
ENDBRANCH  15  16
ENDBRANCH   4  15
BRANCH   3  23
HETATM   23  C2  UNL     1      24.936   2.106  53.238  1.00  0.00     0.036 A 
HETATM   24  C3  UNL     1      26.128   1.893  53.898  1.00  0.00     0.029 A 
HETATM   25  C4  UNL     1      26.495   0.669  54.410  1.00  0.00     0.002 A 
HETATM   26  C5  UNL     1      25.610  -0.400  54.247  1.00  0.00     0.000 A 
HETATM   27  C6  UNL     1      24.418  -0.199  53.590  1.00  0.00     0.002 A 
HETATM   28  C7  UNL     1      24.078   1.034  53.089  1.00  0.00     0.029 A 
ENDBRANCH   3  23
TORSDOF 6
ENDMDL
MODEL 9
REMARK VINA RESULT:      -8.0      3.043      5.684
REMARK  6 active torsions:
REMARK  status: ('A' for Active; 'I' for Inactive)
REMARK       I    between atoms: C1_2  and  N1_3 
REMARK       I    between atoms: C1_2  and  N2_10 
REMARK    1  A    between atoms: N1_3  and  C2_4 
REMARK    2  A    between atoms: N2_10  and  C8_11 
REMARK    3  A    between atoms: N2_10  and  C15_19 
REMARK    4  A    between atoms: C8_11  and  C9_12 
REMARK    5  A    between atoms: C12_15  and  O2_16 
REMARK    6  A    between atoms: C15_19  and  C16_20 
ROOT
HETATM    1  O1  UNL     1      21.128   1.043  50.734  1.00  0.00    -0.247 OA
HETATM    2  C1  UNL     1      21.902   1.404  51.689  1.00  0.00     0.323 C 
HETATM    3  N1  UNL     1      21.324   0.985  52.901  1.00  0.00    -0.309 N 
HETATM    4  N2  UNL     1      23.140   2.114  51.458  1.00  0.00    -0.326 N 
HETATM    5  H1  UNL     1      21.835   1.195  53.767  1.00  0.00     0.170 HD
ENDROOT
BRANCH   4   6
HETATM    6  C8  UNL     1      23.422   2.365  50.060  1.00  0.00     0.166 C 
BRANCH   6   7
HETATM    7  C9  UNL     1      24.458   3.392  49.816  1.00  0.00    -0.040 A 
HETATM    8  C10 UNL     1      24.252   4.753  49.773  1.00  0.00     0.011 A 
HETATM    9  C11 UNL     1      25.209   5.705  49.538  1.00  0.00     0.037 A 
HETATM   10  C12 UNL     1      26.509   5.301  49.322  1.00  0.00     0.065 A 
HETATM   11  C13 UNL     1      26.810   3.962  49.346  1.00  0.00     0.037 A 
HETATM   12  C14 UNL     1      25.800   3.069  49.587  1.00  0.00     0.011 A 
BRANCH  10  13
HETATM   13  O2  UNL     1      27.503   6.238  49.082  1.00  0.00    -0.361 OA
HETATM   14  H11 UNL     1      28.354   6.134  49.638  1.00  0.00     0.217 HD
ENDBRANCH  10  13
ENDBRANCH   6   7
ENDBRANCH   4   6
BRANCH   4  15
HETATM   15  C15 UNL     1      23.895   2.456  52.645  1.00  0.00     0.166 C 
BRANCH  15  16
HETATM   16  C16 UNL     1      25.163   1.757  52.818  1.00  0.00    -0.039 A 
HETATM   17  C17 UNL     1      26.272   2.479  53.280  1.00  0.00     0.009 A 
HETATM   18  C18 UNL     1      27.534   1.972  53.506  1.00  0.00     0.002 A 
HETATM   19  C19 UNL     1      27.738   0.632  53.258  1.00  0.00     0.019 A 
HETATM   20  C20 UNL     1      26.706  -0.148  52.804  1.00  0.00     0.011 A 
HETATM   21 BR1  UNL     1      26.948  -2.006  52.449  1.00  0.00    -0.051 Br
HETATM   22  C21 UNL     1      25.475   0.432  52.603  1.00  0.00     0.027 A 
ENDBRANCH  15  16
ENDBRANCH   4  15
BRANCH   3  23
HETATM   23  C2  UNL     1      20.073   0.295  52.806  1.00  0.00     0.036 A 
HETATM   24  C3  UNL     1      19.849  -0.871  53.509  1.00  0.00     0.029 A 
HETATM   25  C4  UNL     1      18.664  -1.569  53.448  1.00  0.00     0.002 A 
HETATM   26  C5  UNL     1      17.648  -1.062  52.634  1.00  0.00     0.000 A 
HETATM   27  C6  UNL     1      17.861   0.101  51.929  1.00  0.00     0.002 A 
HETATM   28  C7  UNL     1      19.054   0.775  52.008  1.00  0.00     0.029 A 
ENDBRANCH   3  23
TORSDOF 6
ENDMDL
