MODEL 1
REMARK VINA RESULT:      -9.3      0.000      0.000
REMARK  6 active torsions:
REMARK  status: ('A' for Active; 'I' for Inactive)
REMARK    1  A    between atoms: O1_2  and  C2_3 
REMARK    2  A    between atoms: C7_8  and  C8_9 
REMARK       I    between atoms: C8_9  and  N1_11 
REMARK    3  A    between atoms: N1_11  and  C9_12 
REMARK    4  A    between atoms: C13_16  and  N2_17 
REMARK    5  A    between atoms: N2_17  and  C14_18 
REMARK    6  A    between atoms: C17_22  and  C18_23 
ROOT
HETATM    1  C9  UNL     1      23.465   3.864  49.760  1.00  0.00     0.049 C 
HETATM    2  C10 UNL     1      22.784   3.037  49.018  1.00  0.00     0.012 C 
HETATM    3  C11 UNL     1      22.178   2.085  49.710  1.00  0.00    -0.021 C 
HETATM    4  C12 UNL     1      21.452   0.833  49.331  1.00  0.00     0.051 C 
HETATM    5  C13 UNL     1      22.315   2.450  51.136  1.00  0.00     0.058 C 
HETATM    6  C23 UNL     1      23.105   3.537  51.134  1.00  0.00     0.061 C 
ENDROOT
BRANCH   5   7
HETATM    7  N2  UNL     1      21.818   1.915  52.346  1.00  0.00    -0.188 N 
HETATM    8  H12 UNL     1      20.904   2.373  52.635  1.00  0.00     0.184 HD
BRANCH   7   9
HETATM    9  C14 UNL     1      22.400   0.877  53.159  1.00  0.00     0.727 A 
HETATM   10  N3  UNL     1      21.583   0.124  53.918  1.00  0.00    -0.075 NA
HETATM   11  C15 UNL     1      22.137  -0.847  54.678  1.00  0.00     0.139 A 
HETATM   12  C16 UNL     1      23.506  -1.002  54.626  1.00  0.00     0.053 A 
HETATM   13  C17 UNL     1      24.317  -0.213  53.838  1.00  0.00     0.089 A 
HETATM   14  N5  UNL     1      23.737   0.752  53.087  1.00  0.00    -0.062 NA
BRANCH  13  15
HETATM   15  C18 UNL     1      25.745  -0.413  53.819  1.00  0.00     0.011 A 
HETATM   16  C19 UNL     1      26.476  -1.063  52.848  1.00  0.00     0.017 A 
HETATM   17  C20 UNL     1      27.848  -1.208  52.914  1.00  0.00     0.020 A 
HETATM   18  C21 UNL     1      28.555  -0.691  53.985  1.00  0.00     0.116 A 
HETATM   19  N4  UNL     1      27.848  -0.059  54.930  1.00  0.00    -0.272 NA
HETATM   20  C22 UNL     1      26.513   0.087  54.875  1.00  0.00     0.130 A 
ENDBRANCH  13  15
ENDBRANCH   7   9
ENDBRANCH   5   7
BRANCH   1  21
HETATM   21  N1  UNL     1      24.371   4.876  49.360  1.00  0.00    -0.322 N 
HETATM   22  C8  UNL     1      25.749   4.620  49.167  1.00  0.00     0.259 C 
HETATM   23  O2  UNL     1      26.006   3.411  49.401  1.00  0.00    -0.267 OA
HETATM   24  H8  UNL     1      24.040   5.844  49.195  1.00  0.00     0.169 HD
BRANCH  22  25
HETATM   25  C7  UNL     1      26.808   5.525  48.764  1.00  0.00     0.065 A 
HETATM   26  C2  UNL     1      26.737   6.878  48.566  1.00  0.00     0.084 A 
HETATM   27  C3  UNL     1      27.809   7.654  48.181  1.00  0.00     0.038 A 
HETATM   28  C4  UNL     1      29.036   7.076  47.970  1.00  0.00     0.003 A 
HETATM   29  C5  UNL     1      29.130   5.735  48.160  1.00  0.00     0.001 A 
HETATM   30  C6  UNL     1      28.059   4.987  48.542  1.00  0.00     0.020 A 
BRANCH  26  31
HETATM   31  O1  UNL     1      25.532   7.494  48.764  1.00  0.00    -0.355 OA
HETATM   32  C1  UNL     1      25.231   8.397  49.791  1.00  0.00     0.210 C 
ENDBRANCH  26  31
ENDBRANCH  22  25
ENDBRANCH   1  21
TORSDOF 6
ENDMDL
MODEL 2
REMARK VINA RESULT:      -8.8      1.928      4.712
REMARK  6 active torsions:
REMARK  status: ('A' for Active; 'I' for Inactive)
REMARK    1  A    between atoms: O1_2  and  C2_3 
REMARK    2  A    between atoms: C7_8  and  C8_9 
REMARK       I    between atoms: C8_9  and  N1_11 
REMARK    3  A    between atoms: N1_11  and  C9_12 
REMARK    4  A    between atoms: C13_16  and  N2_17 
REMARK    5  A    between atoms: N2_17  and  C14_18 
REMARK    6  A    between atoms: C17_22  and  C18_23 
ROOT
HETATM    1  C9  UNL     1      26.463   1.916  51.765  1.00  0.00     0.049 C 
HETATM    2  C10 UNL     1      26.891   0.723  51.465  1.00  0.00     0.012 C 
HETATM    3  C11 UNL     1      26.447  -0.218  52.283  1.00  0.00    -0.021 C 
HETATM    4  C12 UNL     1      26.778  -1.664  52.474  1.00  0.00     0.051 C 
HETATM    5  C13 UNL     1      25.415   0.416  53.130  1.00  0.00     0.058 C 
HETATM    6  C23 UNL     1      25.448   1.716  52.792  1.00  0.00     0.061 C 
ENDROOT
BRANCH   5   7
HETATM    7  N2  UNL     1      24.514  -0.058  54.112  1.00  0.00    -0.188 N 
HETATM    8  H12 UNL     1      24.977  -0.147  55.064  1.00  0.00     0.184 HD
BRANCH   7   9
HETATM    9  C14 UNL     1      23.125  -0.402  53.945  1.00  0.00     0.727 A 
HETATM   10  N3  UNL     1      22.573  -1.273  54.810  1.00  0.00    -0.075 NA
HETATM   11  C15 UNL     1      21.269  -1.591  54.646  1.00  0.00     0.139 A 
HETATM   12  C16 UNL     1      20.589  -1.001  53.602  1.00  0.00     0.053 A 
HETATM   13  C17 UNL     1      21.183  -0.112  52.731  1.00  0.00     0.089 A 
HETATM   14  N5  UNL     1      22.489   0.189  52.917  1.00  0.00    -0.062 NA
BRANCH  13  15
HETATM   15  C18 UNL     1      20.430   0.478  51.654  1.00  0.00     0.011 A 
HETATM   16  C19 UNL     1      19.120   0.215  51.317  1.00  0.00     0.017 A 
HETATM   17  C20 UNL     1      18.478   0.831  50.262  1.00  0.00     0.020 A 
HETATM   18  C21 UNL     1      19.144   1.762  49.485  1.00  0.00     0.116 A 
HETATM   19  N4  UNL     1      20.417   2.022  49.809  1.00  0.00    -0.272 NA
HETATM   20  C22 UNL     1      21.051   1.426  50.834  1.00  0.00     0.130 A 
ENDBRANCH  13  15
ENDBRANCH   7   9
ENDBRANCH   5   7
BRANCH   1  21
HETATM   21  N1  UNL     1      26.867   3.165  51.234  1.00  0.00    -0.322 N 
HETATM   22  C8  UNL     1      26.328   3.682  50.032  1.00  0.00     0.259 C 
HETATM   23  O2  UNL     1      25.481   2.885  49.553  1.00  0.00    -0.267 OA
HETATM   24  H8  UNL     1      27.579   3.739  51.721  1.00  0.00     0.169 HD
BRANCH  22  25
HETATM   25  C7  UNL     1      26.621   4.928  49.351  1.00  0.00     0.065 A 
HETATM   26  C2  UNL     1      25.862   6.066  49.301  1.00  0.00     0.084 A 
HETATM   27  C3  UNL     1      26.233   7.207  48.621  1.00  0.00     0.038 A 
HETATM   28  C4  UNL     1      27.424   7.245  47.940  1.00  0.00     0.003 A 
HETATM   29  C5  UNL     1      28.194   6.127  47.975  1.00  0.00     0.001 A 
HETATM   30  C6  UNL     1      27.809   5.012  48.653  1.00  0.00     0.020 A 
BRANCH  26  31
HETATM   31  O1  UNL     1      24.667   6.072  49.966  1.00  0.00    -0.355 OA
HETATM   32  C1  UNL     1      24.321   6.918  51.026  1.00  0.00     0.210 C 
ENDBRANCH  26  31
ENDBRANCH  22  25
ENDBRANCH   1  21
TORSDOF 6
ENDMDL
MODEL 3
REMARK VINA RESULT:      -8.8      2.401      7.304
REMARK  6 active torsions:
REMARK  status: ('A' for Active; 'I' for Inactive)
REMARK    1  A    between atoms: O1_2  and  C2_3 
REMARK    2  A    between atoms: C7_8  and  C8_9 
REMARK       I    between atoms: C8_9  and  N1_11 
REMARK    3  A    between atoms: N1_11  and  C9_12 
REMARK    4  A    between atoms: C13_16  and  N2_17 
REMARK    5  A    between atoms: N2_17  and  C14_18 
REMARK    6  A    between atoms: C17_22  and  C18_23 
ROOT
HETATM    1  C9  UNL     1      23.940   1.465  52.849  1.00  0.00     0.049 C 
HETATM    2  C10 UNL     1      22.684   1.191  52.644  1.00  0.00     0.012 C 
HETATM    3  C11 UNL     1      21.942   2.261  52.407  1.00  0.00    -0.021 C 
HETATM    4  C12 UNL     1      20.469   2.497  52.296  1.00  0.00     0.051 C 
HETATM    5  C13 UNL     1      22.880   3.391  52.235  1.00  0.00     0.058 C 
HETATM    6  C23 UNL     1      24.089   2.875  52.511  1.00  0.00     0.061 C 
ENDROOT
BRANCH   5   7
HETATM    7  N2  UNL     1      22.735   4.751  51.874  1.00  0.00    -0.188 N 
HETATM    8  H12 UNL     1      22.286   5.320  52.650  1.00  0.00     0.184 HD
BRANCH   7   9
HETATM    9  C14 UNL     1      23.116   5.383  50.637  1.00  0.00     0.727 A 
HETATM   10  N3  UNL     1      22.155   5.950  49.884  1.00  0.00    -0.075 NA
HETATM   11  C15 UNL     1      22.521   6.541  48.725  1.00  0.00     0.139 A 
HETATM   12  C16 UNL     1      23.858   6.525  48.389  1.00  0.00     0.053 A 
HETATM   13  C17 UNL     1      24.820   5.935  49.182  1.00  0.00     0.089 A 
HETATM   14  N5  UNL     1      24.427   5.350  50.337  1.00  0.00    -0.062 NA
BRANCH  13  15
HETATM   15  C18 UNL     1      26.206   5.944  48.787  1.00  0.00     0.011 A 
HETATM   16  C19 UNL     1      26.906   6.999  48.245  1.00  0.00     0.017 A 
HETATM   17  C20 UNL     1      28.239   6.915  47.895  1.00  0.00     0.020 A 
HETATM   18  C21 UNL     1      28.938   5.735  48.082  1.00  0.00     0.116 A 
HETATM   19  N4  UNL     1      28.262   4.706  48.608  1.00  0.00    -0.272 NA
HETATM   20  C22 UNL     1      26.963   4.779  48.951  1.00  0.00     0.130 A 
ENDBRANCH  13  15
ENDBRANCH   7   9
ENDBRANCH   5   7
BRANCH   1  21
HETATM   21  N1  UNL     1      24.974   0.610  53.303  1.00  0.00    -0.322 N 
HETATM   22  C8  UNL     1      26.137   0.362  52.537  1.00  0.00     0.259 C 
HETATM   23  O2  UNL     1      26.090   0.997  51.452  1.00  0.00    -0.267 OA
HETATM   24  H8  UNL     1      24.901   0.138  54.222  1.00  0.00     0.169 HD
BRANCH  22  25
HETATM   25  C7  UNL     1      27.282  -0.474  52.842  1.00  0.00     0.065 A 
HETATM   26  C2  UNL     1      28.507  -0.093  53.319  1.00  0.00     0.084 A 
HETATM   27  C3  UNL     1      29.536  -0.972  53.579  1.00  0.00     0.038 A 
HETATM   28  C4  UNL     1      29.366  -2.316  53.360  1.00  0.00     0.003 A 
HETATM   29  C5  UNL     1      28.158  -2.717  52.887  1.00  0.00     0.001 A 
HETATM   30  C6  UNL     1      27.154  -1.834  52.637  1.00  0.00     0.020 A 
BRANCH  26  31
HETATM   31  O1  UNL     1      28.721   1.238  53.551  1.00  0.00    -0.355 OA
HETATM   32  C1  UNL     1      29.483   1.777  54.594  1.00  0.00     0.210 C 
ENDBRANCH  26  31
ENDBRANCH  22  25
ENDBRANCH   1  21
TORSDOF 6
ENDMDL
MODEL 4
REMARK VINA RESULT:      -8.7      3.600      8.711
REMARK  6 active torsions:
REMARK  status: ('A' for Active; 'I' for Inactive)
REMARK    1  A    between atoms: O1_2  and  C2_3 
REMARK    2  A    between atoms: C7_8  and  C8_9 
REMARK       I    between atoms: C8_9  and  N1_11 
REMARK    3  A    between atoms: N1_11  and  C9_12 
REMARK    4  A    between atoms: C13_16  and  N2_17 
REMARK    5  A    between atoms: N2_17  and  C14_18 
REMARK    6  A    between atoms: C17_22  and  C18_23 
ROOT
HETATM    1  C9  UNL     1      25.723   4.374  49.965  1.00  0.00     0.049 C 
HETATM    2  C10 UNL     1      25.215   5.566  50.096  1.00  0.00     0.012 C 
HETATM    3  C11 UNL     1      25.955   6.518  49.550  1.00  0.00    -0.021 C 
HETATM    4  C12 UNL     1      25.910   8.013  49.585  1.00  0.00     0.051 C 
HETATM    5  C13 UNL     1      27.009   5.835  48.771  1.00  0.00     0.058 C 
HETATM    6  C23 UNL     1      26.843   4.530  49.044  1.00  0.00     0.061 C 
ENDROOT
BRANCH   5   7
HETATM    7  N2  UNL     1      28.033   6.270  47.898  1.00  0.00    -0.188 N 
HETATM    8  H12 UNL     1      27.723   6.245  46.882  1.00  0.00     0.184 HD
BRANCH   7   9
HETATM    9  C14 UNL     1      29.360   6.713  48.242  1.00  0.00     0.727 A 
HETATM   10  N3  UNL     1      29.519   7.970  48.696  1.00  0.00    -0.075 NA
HETATM   11  C15 UNL     1      30.768   8.377  49.016  1.00  0.00     0.139 A 
HETATM   12  C16 UNL     1      31.799   7.476  48.856  1.00  0.00     0.053 A 
HETATM   13  C17 UNL     1      31.604   6.194  48.388  1.00  0.00     0.089 A 
HETATM   14  N5  UNL     1      30.345   5.811  48.075  1.00  0.00    -0.062 NA
BRANCH  13  15
HETATM   15  C18 UNL     1      32.715   5.288  48.238  1.00  0.00     0.011 A 
HETATM   16  C19 UNL     1      34.038   5.545  48.526  1.00  0.00     0.017 A 
HETATM   17  C20 UNL     1      35.040   4.611  48.349  1.00  0.00     0.020 A 
HETATM   18  C21 UNL     1      34.743   3.351  47.864  1.00  0.00     0.116 A 
HETATM   19  N4  UNL     1      33.459   3.096  47.582  1.00  0.00    -0.272 NA
HETATM   20  C22 UNL     1      32.476   3.999  47.751  1.00  0.00     0.130 A 
ENDBRANCH  13  15
ENDBRANCH   7   9
ENDBRANCH   5   7
BRANCH   1  21
HETATM   21  N1  UNL     1      25.310   3.161  50.568  1.00  0.00    -0.322 N 
HETATM   22  C8  UNL     1      26.177   2.390  51.378  1.00  0.00     0.259 C 
HETATM   23  O2  UNL     1      27.305   2.941  51.460  1.00  0.00    -0.267 OA
HETATM   24  H8  UNL     1      24.348   2.805  50.428  1.00  0.00     0.169 HD
BRANCH  22  25
HETATM   25  C7  UNL     1      25.926   1.139  52.067  1.00  0.00     0.065 A 
HETATM   26  C2  UNL     1      24.873   0.816  52.880  1.00  0.00     0.084 A 
HETATM   27  C3  UNL     1      24.724  -0.410  53.492  1.00  0.00     0.038 A 
HETATM   28  C4  UNL     1      25.664  -1.393  53.302  1.00  0.00     0.003 A 
HETATM   29  C5  UNL     1      26.718  -1.094  52.498  1.00  0.00     0.001 A 
HETATM   30  C6  UNL     1      26.846   0.123  51.904  1.00  0.00     0.020 A 
BRANCH  26  31
HETATM   31  O1  UNL     1      23.913   1.765  53.097  1.00  0.00    -0.355 OA
HETATM   32  C1  UNL     1      22.604   1.737  52.603  1.00  0.00     0.210 C 
ENDBRANCH  26  31
ENDBRANCH  22  25
ENDBRANCH   1  21
TORSDOF 6
ENDMDL
MODEL 5
REMARK VINA RESULT:      -8.7      3.468      8.857
REMARK  6 active torsions:
REMARK  status: ('A' for Active; 'I' for Inactive)
REMARK    1  A    between atoms: O1_2  and  C2_3 
REMARK    2  A    between atoms: C7_8  and  C8_9 
REMARK       I    between atoms: C8_9  and  N1_11 
REMARK    3  A    between atoms: N1_11  and  C9_12 
REMARK    4  A    between atoms: C13_16  and  N2_17 
REMARK    5  A    between atoms: N2_17  and  C14_18 
REMARK    6  A    between atoms: C17_22  and  C18_23 
ROOT
HETATM    1  C9  UNL     1      25.512   3.814  50.818  1.00  0.00     0.049 C 
HETATM    2  C10 UNL     1      24.855   4.874  50.443  1.00  0.00     0.012 C 
HETATM    3  C11 UNL     1      25.509   5.617  49.565  1.00  0.00    -0.021 C 
HETATM    4  C12 UNL     1      25.280   6.976  48.984  1.00  0.00     0.051 C 
HETATM    5  C13 UNL     1      26.690   4.831  49.148  1.00  0.00     0.058 C 
HETATM    6  C23 UNL     1      26.665   3.739  49.929  1.00  0.00     0.061 C 
ENDROOT
BRANCH   5   7
HETATM    7  N2  UNL     1      27.710   5.014  48.186  1.00  0.00    -0.188 N 
HETATM    8  H12 UNL     1      27.508   4.482  47.289  1.00  0.00     0.184 HD
BRANCH   7   9
HETATM    9  C14 UNL     1      28.910   5.803  48.309  1.00  0.00     0.727 A 
HETATM   10  N3  UNL     1      28.788   7.129  48.500  1.00  0.00    -0.075 NA
HETATM   11  C15 UNL     1      29.919   7.862  48.613  1.00  0.00     0.139 A 
HETATM   12  C16 UNL     1      31.125   7.200  48.526  1.00  0.00     0.053 A 
HETATM   13  C17 UNL     1      31.217   5.838  48.330  1.00  0.00     0.089 A 
HETATM   14  N5  UNL     1      30.071   5.128  48.219  1.00  0.00    -0.062 NA
BRANCH  13  15
HETATM   15  C18 UNL     1      32.503   5.192  48.245  1.00  0.00     0.011 A 
HETATM   16  C19 UNL     1      33.720   5.717  48.620  1.00  0.00     0.017 A 
HETATM   17  C20 UNL     1      34.906   5.021  48.501  1.00  0.00     0.020 A 
HETATM   18  C21 UNL     1      34.915   3.736  47.989  1.00  0.00     0.116 A 
HETATM   19  N4  UNL     1      33.734   3.221  47.623  1.00  0.00    -0.272 NA
HETATM   20  C22 UNL     1      32.574   3.891  47.735  1.00  0.00     0.130 A 
ENDBRANCH  13  15
ENDBRANCH   7   9
ENDBRANCH   5   7
BRANCH   1  21
HETATM   21  N1  UNL     1      25.209   2.903  51.860  1.00  0.00    -0.322 N 
HETATM   22  C8  UNL     1      24.183   1.937  51.740  1.00  0.00     0.259 C 
HETATM   23  O2  UNL     1      23.626   2.026  50.616  1.00  0.00    -0.267 OA
HETATM   24  H8  UNL     1      25.741   2.924  52.748  1.00  0.00     0.169 HD
BRANCH  22  25
HETATM   25  C7  UNL     1      23.742   0.937  52.693  1.00  0.00     0.065 A 
HETATM   26  C2  UNL     1      24.509   0.115  53.475  1.00  0.00     0.084 A 
HETATM   27  C3  UNL     1      23.990  -0.809  54.356  1.00  0.00     0.038 A 
HETATM   28  C4  UNL     1      22.630  -0.946  54.488  1.00  0.00     0.003 A 
HETATM   29  C5  UNL     1      21.850  -0.140  53.722  1.00  0.00     0.001 A 
HETATM   30  C6  UNL     1      22.383   0.765  52.859  1.00  0.00     0.020 A 
BRANCH  26  31
HETATM   31  O1  UNL     1      25.869   0.217  53.375  1.00  0.00    -0.355 OA
HETATM   32  C1  UNL     1      26.738   0.631  54.391  1.00  0.00     0.210 C 
ENDBRANCH  26  31
ENDBRANCH  22  25
ENDBRANCH   1  21
TORSDOF 6
ENDMDL
MODEL 6
REMARK VINA RESULT:      -8.5      3.207      9.563
REMARK  6 active torsions:
REMARK  status: ('A' for Active; 'I' for Inactive)
REMARK    1  A    between atoms: O1_2  and  C2_3 
REMARK    2  A    between atoms: C7_8  and  C8_9 
REMARK       I    between atoms: C8_9  and  N1_11 
REMARK    3  A    between atoms: N1_11  and  C9_12 
REMARK    4  A    between atoms: C13_16  and  N2_17 
REMARK    5  A    between atoms: N2_17  and  C14_18 
REMARK    6  A    between atoms: C17_22  and  C18_23 
ROOT
HETATM    1  C9  UNL     1      25.448   4.110  50.154  1.00  0.00     0.049 C 
HETATM    2  C10 UNL     1      24.877   5.134  49.587  1.00  0.00     0.012 C 
HETATM    3  C11 UNL     1      25.712   5.883  48.885  1.00  0.00    -0.021 C 
HETATM    4  C12 UNL     1      25.597   7.218  48.220  1.00  0.00     0.051 C 
HETATM    5  C13 UNL     1      26.986   5.137  48.814  1.00  0.00     0.058 C 
HETATM    6  C23 UNL     1      26.795   4.062  49.598  1.00  0.00     0.061 C 
ENDROOT
BRANCH   5   7
HETATM    7  N2  UNL     1      28.215   5.339  48.146  1.00  0.00    -0.188 N 
HETATM    8  H12 UNL     1      28.291   4.744  47.269  1.00  0.00     0.184 HD
BRANCH   7   9
HETATM    9  C14 UNL     1      29.293   6.219  48.522  1.00  0.00     0.727 A 
HETATM   10  N3  UNL     1      30.490   5.677  48.813  1.00  0.00    -0.075 NA
HETATM   11  C15 UNL     1      31.495   6.510  49.165  1.00  0.00     0.139 A 
HETATM   12  C16 UNL     1      31.228   7.862  49.204  1.00  0.00     0.053 A 
HETATM   13  C17 UNL     1      29.989   8.387  48.900  1.00  0.00     0.089 A 
HETATM   14  N5  UNL     1      29.000   7.532  48.551  1.00  0.00    -0.062 NA
BRANCH  13  15
HETATM   15  C18 UNL     1      29.758   9.808  48.955  1.00  0.00     0.011 A 
HETATM   16  C19 UNL     1      30.712  10.801  48.982  1.00  0.00     0.017 A 
HETATM   17  C20 UNL     1      30.396  12.145  49.035  1.00  0.00     0.020 A 
HETATM   18  C21 UNL     1      29.074  12.551  49.064  1.00  0.00     0.116 A 
HETATM   19  N4  UNL     1      28.143  11.589  49.038  1.00  0.00    -0.272 NA
HETATM   20  C22 UNL     1      28.441  10.279  48.986  1.00  0.00     0.130 A 
ENDBRANCH  13  15
ENDBRANCH   7   9
ENDBRANCH   5   7
BRANCH   1  21
HETATM   21  N1  UNL     1      24.915   3.212  51.110  1.00  0.00    -0.322 N 
HETATM   22  C8  UNL     1      23.864   2.318  50.798  1.00  0.00     0.259 C 
HETATM   23  O2  UNL     1      23.512   2.456  49.598  1.00  0.00    -0.267 OA
HETATM   24  H8  UNL     1      25.289   3.188  52.076  1.00  0.00     0.169 HD
BRANCH  22  25
HETATM   25  C7  UNL     1      23.204   1.340  51.642  1.00  0.00     0.065 A 
HETATM   26  C2  UNL     1      23.717   0.663  52.716  1.00  0.00     0.084 A 
HETATM   27  C3  UNL     1      23.003  -0.252  53.459  1.00  0.00     0.038 A 
HETATM   28  C4  UNL     1      21.698  -0.532  53.136  1.00  0.00     0.003 A 
HETATM   29  C5  UNL     1      21.168   0.128  52.074  1.00  0.00     0.001 A 
HETATM   30  C6  UNL     1      21.890   1.028  51.354  1.00  0.00     0.020 A 
BRANCH  26  31
HETATM   31  O1  UNL     1      25.014   0.911  53.072  1.00  0.00    -0.355 OA
HETATM   32  C1  UNL     1      26.100   0.051  52.870  1.00  0.00     0.210 C 
ENDBRANCH  26  31
ENDBRANCH  22  25
ENDBRANCH   1  21
TORSDOF 6
ENDMDL
MODEL 7
REMARK VINA RESULT:      -8.5      1.967      2.928
REMARK  6 active torsions:
REMARK  status: ('A' for Active; 'I' for Inactive)
REMARK    1  A    between atoms: O1_2  and  C2_3 
REMARK    2  A    between atoms: C7_8  and  C8_9 
REMARK       I    between atoms: C8_9  and  N1_11 
REMARK    3  A    between atoms: N1_11  and  C9_12 
REMARK    4  A    between atoms: C13_16  and  N2_17 
REMARK    5  A    between atoms: N2_17  and  C14_18 
REMARK    6  A    between atoms: C17_22  and  C18_23 
ROOT
HETATM    1  C9  UNL     1      25.720   6.027  49.155  1.00  0.00     0.049 C 
HETATM    2  C10 UNL     1      24.686   5.855  48.382  1.00  0.00     0.012 C 
HETATM    3  C11 UNL     1      23.716   5.153  48.946  1.00  0.00    -0.021 C 
HETATM    4  C12 UNL     1      22.447   4.547  48.438  1.00  0.00     0.051 C 
HETATM    5  C13 UNL     1      24.079   5.007  50.372  1.00  0.00     0.058 C 
HETATM    6  C23 UNL     1      25.305   5.548  50.468  1.00  0.00     0.061 C 
ENDROOT
BRANCH   5   7
HETATM    7  N2  UNL     1      23.434   4.462  51.506  1.00  0.00    -0.188 N 
HETATM    8  H12 UNL     1      22.743   5.146  51.934  1.00  0.00     0.184 HD
BRANCH   7   9
HETATM    9  C14 UNL     1      23.618   3.156  52.086  1.00  0.00     0.727 A 
HETATM   10  N3  UNL     1      22.565   2.318  52.126  1.00  0.00    -0.075 NA
HETATM   11  C15 UNL     1      22.747   1.095  52.672  1.00  0.00     0.139 A 
HETATM   12  C16 UNL     1      24.001   0.785  53.153  1.00  0.00     0.053 A 
HETATM   13  C17 UNL     1      25.061   1.666  53.098  1.00  0.00     0.089 A 
HETATM   14  N5  UNL     1      24.852   2.884  52.547  1.00  0.00    -0.062 NA
BRANCH  13  15
HETATM   15  C18 UNL     1      26.354   1.296  53.616  1.00  0.00     0.011 A 
HETATM   16  C19 UNL     1      27.553   1.932  53.381  1.00  0.00     0.017 A 
HETATM   17  C20 UNL     1      28.749   1.503  53.922  1.00  0.00     0.020 A 
HETATM   18  C21 UNL     1      28.785   0.390  54.743  1.00  0.00     0.116 A 
HETATM   19  N4  UNL     1      27.622  -0.232  54.974  1.00  0.00    -0.272 NA
HETATM   20  C22 UNL     1      26.453   0.178  54.451  1.00  0.00     0.130 A 
ENDBRANCH  13  15
ENDBRANCH   7   9
ENDBRANCH   5   7
BRANCH   1  21
HETATM   21  N1  UNL     1      26.992   6.559  48.833  1.00  0.00    -0.322 N 
HETATM   22  C8  UNL     1      28.099   5.732  48.530  1.00  0.00     0.259 C 
HETATM   23  O2  UNL     1      27.771   4.519  48.596  1.00  0.00    -0.267 OA
HETATM   24  H8  UNL     1      27.144   7.584  48.810  1.00  0.00     0.169 HD
BRANCH  22  25
HETATM   25  C7  UNL     1      29.458   6.101  48.182  1.00  0.00     0.065 A 
HETATM   26  C2  UNL     1      30.023   7.348  48.179  1.00  0.00     0.084 A 
HETATM   27  C3  UNL     1      31.334   7.594  47.830  1.00  0.00     0.038 A 
HETATM   28  C4  UNL     1      32.153   6.559  47.455  1.00  0.00     0.003 A 
HETATM   29  C5  UNL     1      31.613   5.313  47.451  1.00  0.00     0.001 A 
HETATM   30  C6  UNL     1      30.318   5.090  47.800  1.00  0.00     0.020 A 
BRANCH  26  31
HETATM   31  O1  UNL     1      29.243   8.409  48.545  1.00  0.00    -0.355 OA
HETATM   32  C1  UNL     1      29.623   9.453  49.395  1.00  0.00     0.210 C 
ENDBRANCH  26  31
ENDBRANCH  22  25
ENDBRANCH   1  21
TORSDOF 6
ENDMDL
MODEL 8
REMARK VINA RESULT:      -8.4      4.123      9.163
REMARK  6 active torsions:
REMARK  status: ('A' for Active; 'I' for Inactive)
REMARK    1  A    between atoms: O1_2  and  C2_3 
REMARK    2  A    between atoms: C7_8  and  C8_9 
REMARK       I    between atoms: C8_9  and  N1_11 
REMARK    3  A    between atoms: N1_11  and  C9_12 
REMARK    4  A    between atoms: C13_16  and  N2_17 
REMARK    5  A    between atoms: N2_17  and  C14_18 
REMARK    6  A    between atoms: C17_22  and  C18_23 
ROOT
HETATM    1  C9  UNL     1      26.323   5.785  49.240  1.00  0.00     0.049 C 
HETATM    2  C10 UNL     1      25.599   6.535  48.459  1.00  0.00     0.012 C 
HETATM    3  C11 UNL     1      26.314   7.336  47.686  1.00  0.00    -0.021 C 
HETATM    4  C12 UNL     1      25.974   8.476  46.780  1.00  0.00     0.051 C 
HETATM    5  C13 UNL     1      27.723   6.914  47.834  1.00  0.00     0.058 C 
HETATM    6  C23 UNL     1      27.696   5.968  48.789  1.00  0.00     0.061 C 
ENDROOT
BRANCH   5   7
HETATM    7  N2  UNL     1      28.939   7.291  47.218  1.00  0.00    -0.188 N 
HETATM    8  H12 UNL     1      28.785   7.670  46.238  1.00  0.00     0.184 HD
BRANCH   7   9
HETATM    9  C14 UNL     1      30.269   7.212  47.765  1.00  0.00     0.727 A 
HETATM   10  N3  UNL     1      30.594   8.035  48.780  1.00  0.00    -0.075 NA
HETATM   11  C15 UNL     1      31.845   7.955  49.287  1.00  0.00     0.139 A 
HETATM   12  C16 UNL     1      32.707   7.034  48.731  1.00  0.00     0.053 A 
HETATM   13  C17 UNL     1      32.344   6.204  47.691  1.00  0.00     0.089 A 
HETATM   14  N5  UNL     1      31.087   6.305  47.202  1.00  0.00    -0.062 NA
BRANCH  13  15
HETATM   15  C18 UNL     1      33.282   5.257  47.143  1.00  0.00     0.011 A 
HETATM   16  C19 UNL     1      33.999   4.307  47.835  1.00  0.00     0.017 A 
HETATM   17  C20 UNL     1      34.881   3.437  47.223  1.00  0.00     0.020 A 
HETATM   18  C21 UNL     1      35.078   3.491  45.855  1.00  0.00     0.116 A 
HETATM   19  N4  UNL     1      34.383   4.414  45.177  1.00  0.00    -0.272 NA
HETATM   20  C22 UNL     1      33.523   5.264  45.765  1.00  0.00     0.130 A 
ENDBRANCH  13  15
ENDBRANCH   7   9
ENDBRANCH   5   7
BRANCH   1  21
HETATM   21  N1  UNL     1      25.907   4.956  50.310  1.00  0.00    -0.322 N 
HETATM   22  C8  UNL     1      26.090   3.553  50.290  1.00  0.00     0.259 C 
HETATM   23  O2  UNL     1      26.650   3.199  49.220  1.00  0.00    -0.267 OA
HETATM   24  H8  UNL     1      25.453   5.363  51.147  1.00  0.00     0.169 HD
BRANCH  22  25
HETATM   25  C7  UNL     1      25.730   2.561  51.285  1.00  0.00     0.065 A 
HETATM   26  C2  UNL     1      26.518   2.023  52.267  1.00  0.00     0.084 A 
HETATM   27  C3  UNL     1      26.078   1.079  53.171  1.00  0.00     0.038 A 
HETATM   28  C4  UNL     1      24.784   0.625  53.118  1.00  0.00     0.003 A 
HETATM   29  C5  UNL     1      23.985   1.146  52.151  1.00  0.00     0.001 A 
HETATM   30  C6  UNL     1      24.438   2.076  51.269  1.00  0.00     0.020 A 
BRANCH  26  31
HETATM   31  O1  UNL     1      27.815   2.446  52.357  1.00  0.00    -0.355 OA
HETATM   32  C1  UNL     1      28.613   2.409  53.505  1.00  0.00     0.210 C 
ENDBRANCH  26  31
ENDBRANCH  22  25
ENDBRANCH   1  21
TORSDOF 6
ENDMDL
MODEL 9
REMARK VINA RESULT:      -8.2      2.618      8.118
REMARK  6 active torsions:
REMARK  status: ('A' for Active; 'I' for Inactive)
REMARK    1  A    between atoms: O1_2  and  C2_3 
REMARK    2  A    between atoms: C7_8  and  C8_9 
REMARK       I    between atoms: C8_9  and  N1_11 
REMARK    3  A    between atoms: N1_11  and  C9_12 
REMARK    4  A    between atoms: C13_16  and  N2_17 
REMARK    5  A    between atoms: N2_17  and  C14_18 
REMARK    6  A    between atoms: C17_22  and  C18_23 
ROOT
HETATM    1  C9  UNL     1      24.842   3.867  50.564  1.00  0.00     0.049 C 
HETATM    2  C10 UNL     1      23.968   3.514  49.665  1.00  0.00     0.012 C 
HETATM    3  C11 UNL     1      23.619   4.500  48.854  1.00  0.00    -0.021 C 
HETATM    4  C12 UNL     1      22.556   4.657  47.813  1.00  0.00     0.051 C 
HETATM    5  C13 UNL     1      24.544   5.619  49.131  1.00  0.00     0.058 C 
HETATM    6  C23 UNL     1      25.277   5.203  50.178  1.00  0.00     0.061 C 
ENDROOT
BRANCH   5   7
HETATM    7  N2  UNL     1      24.760   6.891  48.552  1.00  0.00    -0.188 N 
HETATM    8  H12 UNL     1      23.919   7.529  48.677  1.00  0.00     0.184 HD
BRANCH   7   9
HETATM    9  C14 UNL     1      25.933   7.361  47.860  1.00  0.00     0.727 A 
HETATM   10  N3  UNL     1      25.767   8.107  46.752  1.00  0.00    -0.075 NA
HETATM   11  C15 UNL     1      26.874   8.544  46.109  1.00  0.00     0.139 A 
HETATM   12  C16 UNL     1      28.101   8.196  46.632  1.00  0.00     0.053 A 
HETATM   13  C17 UNL     1      28.238   7.429  47.770  1.00  0.00     0.089 A 
HETATM   14  N5  UNL     1      27.115   7.004  48.394  1.00  0.00    -0.062 NA
BRANCH  13  15
HETATM   15  C18 UNL     1      29.544   7.091  48.277  1.00  0.00     0.011 A 
HETATM   16  C19 UNL     1      30.486   7.960  48.782  1.00  0.00     0.017 A 
HETATM   17  C20 UNL     1      31.718   7.543  49.248  1.00  0.00     0.020 A 
HETATM   18  C21 UNL     1      32.057   6.202  49.224  1.00  0.00     0.116 A 
HETATM   19  N4  UNL     1      31.144   5.354  48.734  1.00  0.00    -0.272 NA
HETATM   20  C22 UNL     1      29.943   5.750  48.278  1.00  0.00     0.130 A 
ENDBRANCH  13  15
ENDBRANCH   7   9
ENDBRANCH   5   7
BRANCH   1  21
HETATM   21  N1  UNL     1      25.301   3.140  51.690  1.00  0.00    -0.322 N 
HETATM   22  C8  UNL     1      26.571   2.518  51.718  1.00  0.00     0.259 C 
HETATM   23  O2  UNL     1      27.179   2.713  50.634  1.00  0.00    -0.267 OA
HETATM   24  H8  UNL     1      24.708   3.047  52.534  1.00  0.00     0.169 HD
BRANCH  22  25
HETATM   25  C7  UNL     1      27.197   1.744  52.773  1.00  0.00     0.065 A 
HETATM   26  C2  UNL     1      26.773   0.564  53.323  1.00  0.00     0.084 A 
HETATM   27  C3  UNL     1      27.444  -0.097  54.329  1.00  0.00     0.038 A 
HETATM   28  C4  UNL     1      28.607   0.424  54.840  1.00  0.00     0.003 A 
HETATM   29  C5  UNL     1      29.045   1.595  54.310  1.00  0.00     0.001 A 
HETATM   30  C6  UNL     1      28.369   2.231  53.316  1.00  0.00     0.020 A 
BRANCH  26  31
HETATM   31  O1  UNL     1      25.619   0.009  52.844  1.00  0.00    -0.355 OA
HETATM   32  C1  UNL     1      24.374   0.024  53.484  1.00  0.00     0.210 C 
ENDBRANCH  26  31
ENDBRANCH  22  25
ENDBRANCH   1  21
TORSDOF 6
ENDMDL
