MODEL 1
REMARK VINA RESULT:      -7.1      0.000      0.000
REMARK  7 active torsions:
REMARK  status: ('A' for Active; 'I' for Inactive)
REMARK    1  A    between atoms: C2_2  and  C3_3 
REMARK    2  A    between atoms: C3_3  and  C4_4 
REMARK    3  A    between atoms: C5_6  and  C6_7 
REMARK    4  A    between atoms: C6_7  and  N1_8 
REMARK    5  A    between atoms: N1_8  and  C7_9 
REMARK    6  A    between atoms: C10_12  and  S1_13 
REMARK    7  A    between atoms: S1_13  and  C11_15 
ROOT
HETATM    1  C7  UNL     1      24.570   2.744  53.147  1.00  0.00     0.125 C 
HETATM    2  C8  UNL     1      23.500   1.903  52.969  1.00  0.00     0.053 C 
HETATM    3  C9  UNL     1      23.321   0.587  52.675  1.00  0.00     0.045 C 
HETATM    4  C10 UNL     1      23.455  -0.394  53.664  1.00  0.00     0.123 C 
HETATM    5  N2  UNL     1      24.673  -0.259  54.200  1.00  0.00    -0.250 NA
HETATM    6  C13 UNL     1      25.822  -0.539  53.568  1.00  0.00     0.137 C 
HETATM    7  C14 UNL     1      26.297  -0.254  52.304  1.00  0.00     0.137 C 
HETATM    8  N3  UNL     1      26.812   0.847  51.708  1.00  0.00    -0.253 NA
HETATM    9  C15 UNL     1      26.558   2.093  52.186  1.00  0.00     0.234 C 
HETATM   10  N4  UNL     1      25.793   2.192  53.304  1.00  0.00    -0.225 NA
ENDROOT
BRANCH   1  11
HETATM   11  N1  UNL     1      24.203   4.120  53.136  1.00  0.00    -0.371 N 
HETATM   12  H7  UNL     1      24.565   4.662  53.936  1.00  0.00     0.161 HD
BRANCH  11  13
HETATM   13  C6  UNL     1      23.396   4.751  52.113  1.00  0.00     0.150 C 
BRANCH  13  14
HETATM   14  C5  UNL     1      24.235   5.548  51.178  1.00  0.00     0.012 C 
HETATM   15  C4  UNL     1      24.632   5.139  49.979  1.00  0.00     0.015 C 
HETATM   16 BR1  UNL     1      24.076   3.396  49.435  1.00  0.00    -0.051 Br
BRANCH  15  17
HETATM   17  C3  UNL     1      25.415   5.620  48.856  1.00  0.00     0.069 C 
BRANCH  17  18
HETATM   18  C2  UNL     1      26.721   5.409  48.823  1.00  0.00    -0.154 C 
HETATM   19  C1  UNL     1      27.977   5.111  48.522  1.00  0.00     0.096 C 
ENDBRANCH  17  18
ENDBRANCH  15  17
ENDBRANCH  13  14
ENDBRANCH  11  13
ENDBRANCH   1  11
BRANCH   4  20
HETATM   20  S1  UNL     1      22.008  -1.435  53.848  1.00  0.00     0.074 S 
HETATM   21  O1  UNL     1      21.963  -1.990  55.266  1.00  0.00    -0.251 OA
BRANCH  20  22
HETATM   22  C11 UNL     1      20.554  -0.489  53.471  1.00  0.00     0.103 C 
HETATM   23  C12 UNL     1      19.612   0.008  52.679  1.00  0.00     0.020 C 
ENDBRANCH  20  22
ENDBRANCH   4  20
TORSDOF 7
ENDMDL
MODEL 2
REMARK VINA RESULT:      -6.8      3.074      7.002
REMARK  7 active torsions:
REMARK  status: ('A' for Active; 'I' for Inactive)
REMARK    1  A    between atoms: C2_2  and  C3_3 
REMARK    2  A    between atoms: C3_3  and  C4_4 
REMARK    3  A    between atoms: C5_6  and  C6_7 
REMARK    4  A    between atoms: C6_7  and  N1_8 
REMARK    5  A    between atoms: N1_8  and  C7_9 
REMARK    6  A    between atoms: C10_12  and  S1_13 
REMARK    7  A    between atoms: S1_13  and  C11_15 
ROOT
HETATM    1  C7  UNL     1      24.329   0.000  53.287  1.00  0.00     0.125 C 
HETATM    2  C8  UNL     1      23.907   1.202  52.778  1.00  0.00     0.053 C 
HETATM    3  C9  UNL     1      24.463   2.421  52.541  1.00  0.00     0.045 C 
HETATM    4  C10 UNL     1      25.256   2.640  51.408  1.00  0.00     0.123 C 
HETATM    5  N2  UNL     1      26.244   1.738  51.429  1.00  0.00    -0.250 NA
HETATM    6  C13 UNL     1      27.255   1.733  52.310  1.00  0.00     0.137 C 
HETATM    7  C14 UNL     1      27.316   1.899  53.678  1.00  0.00     0.137 C 
HETATM    8  N3  UNL     1      27.037   1.112  54.744  1.00  0.00    -0.253 NA
HETATM    9  C15 UNL     1      26.191   0.055  54.640  1.00  0.00     0.234 C 
HETATM   10  N4  UNL     1      25.659  -0.204  53.417  1.00  0.00    -0.225 NA
ENDROOT
BRANCH   1  11
HETATM   11  N1  UNL     1      23.253  -0.876  53.610  1.00  0.00    -0.371 N 
HETATM   12  H7  UNL     1      23.230  -1.743  53.051  1.00  0.00     0.161 HD
BRANCH  11  13
HETATM   13  C6  UNL     1      22.255  -0.616  54.626  1.00  0.00     0.150 C 
BRANCH  13  14
HETATM   14  C5  UNL     1      20.966  -1.285  54.301  1.00  0.00     0.012 C 
HETATM   15  C4  UNL     1      19.967  -0.721  53.634  1.00  0.00     0.015 C 
HETATM   16 BR1  UNL     1      20.222   1.082  53.059  1.00  0.00    -0.051 Br
BRANCH  15  17
HETATM   17  C3  UNL     1      18.635  -1.051  53.160  1.00  0.00     0.069 C 
BRANCH  17  18
HETATM   18  C2  UNL     1      18.083  -2.207  53.495  1.00  0.00    -0.154 C 
HETATM   19  C1  UNL     1      17.345  -3.300  53.622  1.00  0.00     0.096 C 
ENDBRANCH  17  18
ENDBRANCH  15  17
ENDBRANCH  13  14
ENDBRANCH  11  13
ENDBRANCH   1  11
BRANCH   4  20
HETATM   20  S1  UNL     1      24.687   3.993  50.381  1.00  0.00     0.074 S 
HETATM   21  O1  UNL     1      24.201   5.131  51.268  1.00  0.00    -0.251 OA
BRANCH  20  22
HETATM   22  C11 UNL     1      26.009   4.516  49.316  1.00  0.00     0.103 C 
HETATM   23  C12 UNL     1      27.275   4.631  48.936  1.00  0.00     0.020 C 
ENDBRANCH  20  22
ENDBRANCH   4  20
TORSDOF 7
ENDMDL
MODEL 3
REMARK VINA RESULT:      -6.5      2.457      4.029
REMARK  7 active torsions:
REMARK  status: ('A' for Active; 'I' for Inactive)
REMARK    1  A    between atoms: C2_2  and  C3_3 
REMARK    2  A    between atoms: C3_3  and  C4_4 
REMARK    3  A    between atoms: C5_6  and  C6_7 
REMARK    4  A    between atoms: C6_7  and  N1_8 
REMARK    5  A    between atoms: N1_8  and  C7_9 
REMARK    6  A    between atoms: C10_12  and  S1_13 
REMARK    7  A    between atoms: S1_13  and  C11_15 
ROOT
HETATM    1  C7  UNL     1      22.577   1.835  51.589  1.00  0.00     0.125 C 
HETATM    2  C8  UNL     1      23.739   1.845  52.319  1.00  0.00     0.053 C 
HETATM    3  C9  UNL     1      24.173   1.295  53.485  1.00  0.00     0.045 C 
HETATM    4  C10 UNL     1      24.585  -0.042  53.540  1.00  0.00     0.123 C 
HETATM    5  N2  UNL     1      23.573  -0.792  53.088  1.00  0.00    -0.250 NA
HETATM    6  C13 UNL     1      22.412  -0.977  53.731  1.00  0.00     0.137 C 
HETATM    7  C14 UNL     1      21.546  -0.120  54.381  1.00  0.00     0.137 C 
HETATM    8  N3  UNL     1      20.613   0.773  53.978  1.00  0.00    -0.253 NA
HETATM    9  C15 UNL     1      20.648   1.321  52.735  1.00  0.00     0.234 C 
HETATM   10  N4  UNL     1      21.639   0.914  51.899  1.00  0.00    -0.225 NA
ENDROOT
BRANCH   1  11
HETATM   11  N1  UNL     1      22.547   2.840  50.580  1.00  0.00    -0.371 N 
HETATM   12  H7  UNL     1      21.880   3.605  50.764  1.00  0.00     0.161 HD
BRANCH  11  13
HETATM   13  C6  UNL     1      23.362   2.831  49.383  1.00  0.00     0.150 C 
BRANCH  13  14
HETATM   14  C5  UNL     1      23.951   4.172  49.121  1.00  0.00     0.012 C 
HETATM   15  C4  UNL     1      25.224   4.492  49.320  1.00  0.00     0.015 C 
HETATM   16 BR1  UNL     1      26.364   3.117  49.993  1.00  0.00    -0.051 Br
BRANCH  15  17
HETATM   17  C3  UNL     1      26.104   5.638  49.183  1.00  0.00     0.069 C 
BRANCH  17  18
HETATM   18  C2  UNL     1      27.296   5.491  48.625  1.00  0.00    -0.154 C 
HETATM   19  C1  UNL     1      28.577   5.503  48.286  1.00  0.00     0.096 C 
ENDBRANCH  17  18
ENDBRANCH  15  17
ENDBRANCH  13  14
ENDBRANCH  11  13
ENDBRANCH   1  11
BRANCH   4  20
HETATM   20  S1  UNL     1      26.248  -0.259  54.169  1.00  0.00     0.074 S 
HETATM   21  O1  UNL     1      26.917  -1.415  53.438  1.00  0.00    -0.251 OA
BRANCH  20  22
HETATM   22  C11 UNL     1      27.154   1.254  53.964  1.00  0.00     0.103 C 
HETATM   23  C12 UNL     1      27.880   2.142  53.296  1.00  0.00     0.020 C 
ENDBRANCH  20  22
ENDBRANCH   4  20
TORSDOF 7
ENDMDL
MODEL 4
REMARK VINA RESULT:      -6.3      2.647      4.115
REMARK  7 active torsions:
REMARK  status: ('A' for Active; 'I' for Inactive)
REMARK    1  A    between atoms: C2_2  and  C3_3 
REMARK    2  A    between atoms: C3_3  and  C4_4 
REMARK    3  A    between atoms: C5_6  and  C6_7 
REMARK    4  A    between atoms: C6_7  and  N1_8 
REMARK    5  A    between atoms: N1_8  and  C7_9 
REMARK    6  A    between atoms: C10_12  and  S1_13 
REMARK    7  A    between atoms: S1_13  and  C11_15 
ROOT
HETATM    1  C7  UNL     1      22.441   4.548  52.031  1.00  0.00     0.125 C 
HETATM    2  C8  UNL     1      23.627   4.237  52.646  1.00  0.00     0.053 C 
HETATM    3  C9  UNL     1      24.215   3.115  53.140  1.00  0.00     0.045 C 
HETATM    4  C10 UNL     1      24.842   2.197  52.288  1.00  0.00     0.123 C 
HETATM    5  N2  UNL     1      23.941   1.817  51.375  1.00  0.00    -0.250 NA
HETATM    6  C13 UNL     1      22.866   1.058  51.632  1.00  0.00     0.137 C 
HETATM    7  C14 UNL     1      21.914   1.078  52.631  1.00  0.00     0.137 C 
HETATM    8  N3  UNL     1      20.824   1.838  52.890  1.00  0.00    -0.253 NA
HETATM    9  C15 UNL     1      20.694   3.087  52.372  1.00  0.00     0.234 C 
HETATM   10  N4  UNL     1      21.685   3.533  51.556  1.00  0.00    -0.225 NA
ENDROOT
BRANCH   1  11
HETATM   11  N1  UNL     1      22.185   5.949  51.991  1.00  0.00    -0.371 N 
HETATM   12  H7  UNL     1      21.934   6.361  52.903  1.00  0.00     0.161 HD
BRANCH  11  13
HETATM   13  C6  UNL     1      22.260   6.767  50.799  1.00  0.00     0.150 C 
BRANCH  13  14
HETATM   14  C5  UNL     1      23.665   7.147  50.492  1.00  0.00     0.012 C 
HETATM   15  C4  UNL     1      24.411   6.591  49.545  1.00  0.00     0.015 C 
HETATM   16 BR1  UNL     1      23.602   5.203  48.514  1.00  0.00    -0.051 Br
BRANCH  15  17
HETATM   17  C3  UNL     1      25.748   6.700  48.992  1.00  0.00     0.069 C 
BRANCH  17  18
HETATM   18  C2  UNL     1      26.480   5.611  48.813  1.00  0.00    -0.154 C 
HETATM   19  C1  UNL     1      27.357   4.619  48.861  1.00  0.00     0.096 C 
ENDBRANCH  17  18
ENDBRANCH  15  17
ENDBRANCH  13  14
ENDBRANCH  11  13
ENDBRANCH   1  11
BRANCH   4  20
HETATM   20  S1  UNL     1      26.553   1.876  52.708  1.00  0.00     0.074 S 
HETATM   21  O1  UNL     1      26.827   2.368  54.123  1.00  0.00    -0.251 OA
BRANCH  20  22
HETATM   22  C11 UNL     1      26.879   0.137  52.548  1.00  0.00     0.103 C 
HETATM   23  C12 UNL     1      26.554  -1.139  52.387  1.00  0.00     0.020 C 
ENDBRANCH  20  22
ENDBRANCH   4  20
TORSDOF 7
ENDMDL
MODEL 5
REMARK VINA RESULT:      -6.2      1.601      2.903
REMARK  7 active torsions:
REMARK  status: ('A' for Active; 'I' for Inactive)
REMARK    1  A    between atoms: C2_2  and  C3_3 
REMARK    2  A    between atoms: C3_3  and  C4_4 
REMARK    3  A    between atoms: C5_6  and  C6_7 
REMARK    4  A    between atoms: C6_7  and  N1_8 
REMARK    5  A    between atoms: N1_8  and  C7_9 
REMARK    6  A    between atoms: C10_12  and  S1_13 
REMARK    7  A    between atoms: S1_13  and  C11_15 
ROOT
HETATM    1  C7  UNL     1      24.554   2.731  52.916  1.00  0.00     0.125 C 
HETATM    2  C8  UNL     1      23.508   1.847  52.838  1.00  0.00     0.053 C 
HETATM    3  C9  UNL     1      23.364   0.506  52.658  1.00  0.00     0.045 C 
HETATM    4  C10 UNL     1      23.557  -0.386  53.720  1.00  0.00     0.123 C 
HETATM    5  N2  UNL     1      24.784  -0.170  54.207  1.00  0.00    -0.250 NA
HETATM    6  C13 UNL     1      25.924  -0.465  53.567  1.00  0.00     0.137 C 
HETATM    7  C14 UNL     1      26.356  -0.271  52.271  1.00  0.00     0.137 C 
HETATM    8  N3  UNL     1      26.818   0.792  51.572  1.00  0.00    -0.253 NA
HETATM    9  C15 UNL     1      26.536   2.065  51.954  1.00  0.00     0.234 C 
HETATM   10  N4  UNL     1      25.799   2.232  53.082  1.00  0.00    -0.225 NA
ENDROOT
BRANCH   1  11
HETATM   11  N1  UNL     1      24.142   4.091  52.804  1.00  0.00    -0.371 N 
HETATM   12  H7  UNL     1      24.056   4.583  53.706  1.00  0.00     0.161 HD
BRANCH  11  13
HETATM   13  C6  UNL     1      23.860   4.766  51.555  1.00  0.00     0.150 C 
BRANCH  13  14
HETATM   14  C5  UNL     1      22.408   4.715  51.230  1.00  0.00     0.012 C 
HETATM   15  C4  UNL     1      21.873   3.973  50.268  1.00  0.00     0.015 C 
HETATM   16 BR1  UNL     1      23.071   2.901  49.238  1.00  0.00    -0.051 Br
BRANCH  15  17
HETATM   17  C3  UNL     1      20.571   3.687  49.695  1.00  0.00     0.069 C 
BRANCH  17  18
HETATM   18  C2  UNL     1      20.055   2.472  49.803  1.00  0.00    -0.154 C 
HETATM   19  C1  UNL     1      19.498   1.282  49.629  1.00  0.00     0.096 C 
ENDBRANCH  17  18
ENDBRANCH  15  17
ENDBRANCH  13  14
ENDBRANCH  11  13
ENDBRANCH   1  11
BRANCH   4  20
HETATM   20  S1  UNL     1      22.151  -1.452  54.030  1.00  0.00     0.074 S 
HETATM   21  O1  UNL     1      22.247  -2.016  55.442  1.00  0.00    -0.251 OA
BRANCH  20  22
HETATM   22  C11 UNL     1      20.652  -0.527  53.798  1.00  0.00     0.103 C 
HETATM   23  C12 UNL     1      19.697   0.058  53.088  1.00  0.00     0.020 C 
ENDBRANCH  20  22
ENDBRANCH   4  20
TORSDOF 7
ENDMDL
MODEL 6
REMARK VINA RESULT:      -6.2      2.924      4.369
REMARK  7 active torsions:
REMARK  status: ('A' for Active; 'I' for Inactive)
REMARK    1  A    between atoms: C2_2  and  C3_3 
REMARK    2  A    between atoms: C3_3  and  C4_4 
REMARK    3  A    between atoms: C5_6  and  C6_7 
REMARK    4  A    between atoms: C6_7  and  N1_8 
REMARK    5  A    between atoms: N1_8  and  C7_9 
REMARK    6  A    between atoms: C10_12  and  S1_13 
REMARK    7  A    between atoms: S1_13  and  C11_15 
ROOT
HETATM    1  C7  UNL     1      23.497   2.635  52.378  1.00  0.00     0.125 C 
HETATM    2  C8  UNL     1      24.740   2.845  52.919  1.00  0.00     0.053 C 
HETATM    3  C9  UNL     1      25.661   2.100  53.588  1.00  0.00     0.045 C 
HETATM    4  C10 UNL     1      26.513   1.226  52.902  1.00  0.00     0.123 C 
HETATM    5  N2  UNL     1      25.745   0.387  52.197  1.00  0.00    -0.250 NA
HETATM    6  C13 UNL     1      24.966  -0.565  52.729  1.00  0.00     0.137 C 
HETATM    7  C14 UNL     1      24.086  -0.580  53.791  1.00  0.00     0.137 C 
HETATM    8  N3  UNL     1      22.823  -0.132  53.986  1.00  0.00    -0.253 NA
HETATM    9  C15 UNL     1      22.298   0.858  53.218  1.00  0.00     0.234 C 
HETATM   10  N4  UNL     1      23.077   1.359  52.224  1.00  0.00    -0.225 NA
ENDROOT
BRANCH   1  11
HETATM   11  N1  UNL     1      22.820   3.845  52.053  1.00  0.00    -0.371 N 
HETATM   12  H7  UNL     1      22.496   4.384  52.871  1.00  0.00     0.161 HD
BRANCH  11  13
HETATM   13  C6  UNL     1      22.585   4.321  50.706  1.00  0.00     0.150 C 
BRANCH  13  14
HETATM   14  C5  UNL     1      23.817   4.229  49.877  1.00  0.00     0.012 C 
HETATM   15  C4  UNL     1      24.761   5.160  49.817  1.00  0.00     0.015 C 
HETATM   16 BR1  UNL     1      24.498   6.726  50.878  1.00  0.00    -0.051 Br
BRANCH  15  17
HETATM   17  C3  UNL     1      26.030   5.399  49.154  1.00  0.00     0.069 C 
BRANCH  17  18
HETATM   18  C2  UNL     1      26.173   6.451  48.362  1.00  0.00    -0.154 C 
HETATM   19  C1  UNL     1      26.570   7.528  47.700  1.00  0.00     0.096 C 
ENDBRANCH  17  18
ENDBRANCH  15  17
ENDBRANCH  13  14
ENDBRANCH  11  13
ENDBRANCH   1  11
BRANCH   4  20
HETATM   20  S1  UNL     1      28.253   1.532  53.203  1.00  0.00     0.074 S 
HETATM   21  O1  UNL     1      28.399   2.617  54.261  1.00  0.00    -0.251 OA
BRANCH  20  22
HETATM   22  C11 UNL     1      29.035   0.019  53.707  1.00  0.00     0.103 C 
HETATM   23  C12 UNL     1      30.038  -0.844  53.803  1.00  0.00     0.020 C 
ENDBRANCH  20  22
ENDBRANCH   4  20
TORSDOF 7
ENDMDL
MODEL 7
REMARK VINA RESULT:      -6.1      3.382      5.624
REMARK  7 active torsions:
REMARK  status: ('A' for Active; 'I' for Inactive)
REMARK    1  A    between atoms: C2_2  and  C3_3 
REMARK    2  A    between atoms: C3_3  and  C4_4 
REMARK    3  A    between atoms: C5_6  and  C6_7 
REMARK    4  A    between atoms: C6_7  and  N1_8 
REMARK    5  A    between atoms: N1_8  and  C7_9 
REMARK    6  A    between atoms: C10_12  and  S1_13 
REMARK    7  A    between atoms: S1_13  and  C11_15 
ROOT
HETATM    1  C7  UNL     1      24.351   0.103  53.627  1.00  0.00     0.125 C 
HETATM    2  C8  UNL     1      24.181   1.304  52.986  1.00  0.00     0.053 C 
HETATM    3  C9  UNL     1      24.974   2.350  52.628  1.00  0.00     0.045 C 
HETATM    4  C10 UNL     1      25.786   2.278  51.490  1.00  0.00     0.123 C 
HETATM    5  N2  UNL     1      26.568   1.201  51.622  1.00  0.00    -0.250 NA
HETATM    6  C13 UNL     1      27.564   1.083  52.513  1.00  0.00     0.137 C 
HETATM    7  C14 UNL     1      27.667   1.380  53.856  1.00  0.00     0.137 C 
HETATM    8  N3  UNL     1      27.241   0.786  54.996  1.00  0.00    -0.253 NA
HETATM    9  C15 UNL     1      26.195  -0.080  54.993  1.00  0.00     0.234 C 
HETATM   10  N4  UNL     1      25.612  -0.354  53.797  1.00  0.00    -0.225 NA
ENDROOT
BRANCH   1  11
HETATM   11  N1  UNL     1      23.121  -0.494  54.026  1.00  0.00    -0.371 N 
HETATM   12  H7  UNL     1      22.980  -0.534  55.047  1.00  0.00     0.161 HD
BRANCH  11  13
HETATM   13  C6  UNL     1      22.123  -1.012  53.114  1.00  0.00     0.150 C 
BRANCH  13  14
HETATM   14  C5  UNL     1      20.857  -0.235  53.200  1.00  0.00     0.012 C 
HETATM   15  C4  UNL     1      20.366   0.524  52.227  1.00  0.00     0.015 C 
HETATM   16 BR1  UNL     1      21.375   0.610  50.609  1.00  0.00    -0.051 Br
BRANCH  15  17
HETATM   17  C3  UNL     1      19.223   1.379  51.970  1.00  0.00     0.069 C 
BRANCH  17  18
HETATM   18  C2  UNL     1      19.396   2.682  51.807  1.00  0.00    -0.154 C 
HETATM   19  C1  UNL     1      19.568   3.920  51.366  1.00  0.00     0.096 C 
ENDBRANCH  17  18
ENDBRANCH  15  17
ENDBRANCH  13  14
ENDBRANCH  11  13
ENDBRANCH   1  11
BRANCH   4  20
HETATM   20  S1  UNL     1      25.500   3.600  50.316  1.00  0.00     0.074 S 
HETATM   21  O1  UNL     1      26.724   3.758  49.424  1.00  0.00    -0.251 OA
BRANCH  20  22
HETATM   22  C11 UNL     1      24.044   3.234  49.366  1.00  0.00     0.103 C 
HETATM   23  C12 UNL     1      22.973   3.532  48.641  1.00  0.00     0.020 C 
ENDBRANCH  20  22
ENDBRANCH   4  20
TORSDOF 7
ENDMDL
MODEL 8
REMARK VINA RESULT:      -6.1      6.902     10.014
REMARK  7 active torsions:
REMARK  status: ('A' for Active; 'I' for Inactive)
REMARK    1  A    between atoms: C2_2  and  C3_3 
REMARK    2  A    between atoms: C3_3  and  C4_4 
REMARK    3  A    between atoms: C5_6  and  C6_7 
REMARK    4  A    between atoms: C6_7  and  N1_8 
REMARK    5  A    between atoms: N1_8  and  C7_9 
REMARK    6  A    between atoms: C10_12  and  S1_13 
REMARK    7  A    between atoms: S1_13  and  C11_15 
ROOT
HETATM    1  C7  UNL     1      30.453   6.699  48.675  1.00  0.00     0.125 C 
HETATM    2  C8  UNL     1      30.978   5.716  47.874  1.00  0.00     0.053 C 
HETATM    3  C9  UNL     1      32.112   5.544  47.143  1.00  0.00     0.045 C 
HETATM    4  C10 UNL     1      33.313   5.170  47.758  1.00  0.00     0.123 C 
HETATM    5  N2  UNL     1      33.575   6.074  48.709  1.00  0.00    -0.250 NA
HETATM    6  C13 UNL     1      33.926   7.347  48.478  1.00  0.00     0.137 C 
HETATM    7  C14 UNL     1      33.446   8.318  47.624  1.00  0.00     0.137 C 
HETATM    8  N3  UNL     1      32.366   9.134  47.625  1.00  0.00    -0.253 NA
HETATM    9  C15 UNL     1      31.252   8.832  48.340  1.00  0.00     0.234 C 
HETATM   10  N4  UNL     1      31.273   7.694  49.081  1.00  0.00    -0.225 NA
ENDROOT
BRANCH   1  11
HETATM   11  N1  UNL     1      29.071   6.504  48.961  1.00  0.00    -0.371 N 
HETATM   12  H7  UNL     1      28.667   7.208  49.597  1.00  0.00     0.161 HD
BRANCH  11  13
HETATM   13  C6  UNL     1      28.263   5.428  48.427  1.00  0.00     0.150 C 
BRANCH  13  14
HETATM   14  C5  UNL     1      26.811   5.731  48.550  1.00  0.00     0.012 C 
HETATM   15  C4  UNL     1      25.916   4.931  49.116  1.00  0.00     0.015 C 
HETATM   16 BR1  UNL     1      26.559   3.276  49.817  1.00  0.00    -0.051 Br
BRANCH  15  17
HETATM   17  C3  UNL     1      24.493   4.899  49.400  1.00  0.00     0.069 C 
BRANCH  17  18
HETATM   18  C2  UNL     1      23.785   3.820  49.105  1.00  0.00    -0.154 C 
HETATM   19  C1  UNL     1      22.867   2.877  48.945  1.00  0.00     0.096 C 
ENDBRANCH  17  18
ENDBRANCH  15  17
ENDBRANCH  13  14
ENDBRANCH  11  13
ENDBRANCH   1  11
BRANCH   4  20
HETATM   20  S1  UNL     1      34.037   3.679  47.079  1.00  0.00     0.074 S 
HETATM   21  O1  UNL     1      35.127   3.175  48.017  1.00  0.00    -0.251 OA
BRANCH  20  22
HETATM   22  C11 UNL     1      32.764   2.462  46.847  1.00  0.00     0.103 C 
HETATM   23  C12 UNL     1      32.262   1.235  46.825  1.00  0.00     0.020 C 
ENDBRANCH  20  22
ENDBRANCH   4  20
TORSDOF 7
ENDMDL
MODEL 9
REMARK VINA RESULT:      -6.1      2.570      4.020
REMARK  7 active torsions:
REMARK  status: ('A' for Active; 'I' for Inactive)
REMARK    1  A    between atoms: C2_2  and  C3_3 
REMARK    2  A    between atoms: C3_3  and  C4_4 
REMARK    3  A    between atoms: C5_6  and  C6_7 
REMARK    4  A    between atoms: C6_7  and  N1_8 
REMARK    5  A    between atoms: N1_8  and  C7_9 
REMARK    6  A    between atoms: C10_12  and  S1_13 
REMARK    7  A    between atoms: S1_13  and  C11_15 
ROOT
HETATM    1  C7  UNL     1      24.691   3.802  50.981  1.00  0.00     0.125 C 
HETATM    2  C8  UNL     1      24.929   2.868  51.956  1.00  0.00     0.053 C 
HETATM    3  C9  UNL     1      24.181   2.165  52.849  1.00  0.00     0.045 C 
HETATM    4  C10 UNL     1      23.470   1.027  52.450  1.00  0.00     0.123 C 
HETATM    5  N2  UNL     1      22.668   1.387  51.442  1.00  0.00    -0.250 NA
HETATM    6  C13 UNL     1      21.598   2.186  51.564  1.00  0.00     0.137 C 
HETATM    7  C14 UNL     1      21.382   3.379  52.224  1.00  0.00     0.137 C 
HETATM    8  N3  UNL     1      21.701   4.671  51.980  1.00  0.00    -0.253 NA
HETATM    9  C15 UNL     1      22.735   5.001  51.162  1.00  0.00     0.234 C 
HETATM   10  N4  UNL     1      23.416   3.985  50.572  1.00  0.00    -0.225 NA
ENDROOT
BRANCH   1  11
HETATM   11  N1  UNL     1      25.876   4.457  50.537  1.00  0.00    -0.371 N 
HETATM   12  H7  UNL     1      26.583   4.601  51.274  1.00  0.00     0.161 HD
BRANCH  11  13
HETATM   13  C6  UNL     1      26.114   4.899  49.179  1.00  0.00     0.150 C 
BRANCH  13  14
HETATM   14  C5  UNL     1      27.520   4.640  48.764  1.00  0.00     0.012 C 
HETATM   15  C4  UNL     1      28.388   5.577  48.405  1.00  0.00     0.015 C 
HETATM   16 BR1  UNL     1      27.768   7.383  48.427  1.00  0.00    -0.051 Br
BRANCH  15  17
HETATM   17  C3  UNL     1      29.766   5.689  47.964  1.00  0.00     0.069 C 
BRANCH  17  18
HETATM   18  C2  UNL     1      30.596   6.506  48.594  1.00  0.00    -0.154 C 
HETATM   19  C1  UNL     1      31.624   7.205  49.055  1.00  0.00     0.096 C 
ENDBRANCH  17  18
ENDBRANCH  15  17
ENDBRANCH  13  14
ENDBRANCH  11  13
ENDBRANCH   1  11
BRANCH   4  20
HETATM   20  S1  UNL     1      23.871  -0.442  53.394  1.00  0.00     0.074 S 
HETATM   21  O1  UNL     1      25.070  -0.155  54.289  1.00  0.00    -0.251 OA
BRANCH  20  22
HETATM   22  C11 UNL     1      22.453  -0.935  54.343  1.00  0.00     0.103 C 
HETATM   23  C12 UNL     1      21.325  -1.596  54.566  1.00  0.00     0.020 C 
ENDBRANCH  20  22
ENDBRANCH   4  20
TORSDOF 7
ENDMDL
