MODEL 1
REMARK VINA RESULT:      -8.9      0.000      0.000
REMARK  5 active torsions:
REMARK  status: ('A' for Active; 'I' for Inactive)
REMARK    1  A    between atoms: C6_6  and  O1_7 
REMARK    2  A    between atoms: C7_8  and  C8_9 
REMARK    3  A    between atoms: C8_9  and  N1_10 
REMARK       I    between atoms: N1_10  and  C9_11 
REMARK    4  A    between atoms: N1_10  and  C16_20 
REMARK       I    between atoms: C9_11  and  N2_13 
REMARK    5  A    between atoms: N2_13  and  C10_14 
ROOT
HETATM    1  N1  UNL     1      23.591   1.315  52.091  1.00  0.00    -0.302 N 
HETATM    2  C9  UNL     1      24.948   1.106  52.542  1.00  0.00     0.327 C 
HETATM    3  O2  UNL     1      25.942   1.889  52.526  1.00  0.00    -0.246 OA
HETATM    4  N2  UNL     1      25.374  -0.146  53.121  1.00  0.00    -0.309 N 
HETATM    5  H12 UNL     1      24.670  -0.939  53.219  1.00  0.00     0.170 HD
ENDROOT
BRANCH   1   6
HETATM    6  C8  UNL     1      22.431   0.475  52.097  1.00  0.00     0.149 C 
BRANCH   6   7
HETATM    7  C7  UNL     1      21.603   0.529  53.347  1.00  0.00     0.089 A 
HETATM    8  C2  UNL     1      21.766  -0.628  54.249  1.00  0.00    -0.071 A 
HETATM    9  C1  UNL     1      22.826  -1.218  55.121  1.00  0.00     0.044 C 
HETATM   10  C3  UNL     1      20.629  -1.345  54.290  1.00  0.00     0.012 A 
HETATM   11  C4  UNL     1      19.620  -0.739  53.430  1.00  0.00    -0.032 A 
HETATM   12  C5  UNL     1      18.227  -1.062  53.080  1.00  0.00     0.050 C 
HETATM   13  C6  UNL     1      20.177   0.333  52.892  1.00  0.00     0.059 A 
BRANCH  13  14
HETATM   14  O1  UNL     1      19.709   1.295  52.003  1.00  0.00    -0.364 OA
HETATM   15  H8  UNL     1      19.174   0.974  51.215  1.00  0.00     0.217 HD
ENDBRANCH  13  14
ENDBRANCH   6   7
ENDBRANCH   1   6
BRANCH   1  16
HETATM   16  C16 UNL     1      23.478   2.649  51.551  1.00  0.00     0.016 A 
HETATM   17  C17 UNL     1      23.207   3.606  52.424  1.00  0.00     0.028 A 
HETATM   18  C18 UNL     1      23.078   4.985  51.957  1.00  0.00     0.039 A 
HETATM   19  C19 UNL     1      23.251   5.147  50.656  1.00  0.00     0.094 A 
HETATM   20  F1  UNL     1      23.142   6.423  50.153  1.00  0.00    -0.211 F 
HETATM   21  C20 UNL     1      23.558   4.179  49.573  1.00  0.00     0.076 A 
HETATM   22  C21 UNL     1      23.680   2.774  50.096  1.00  0.00     0.064 A 
ENDBRANCH   1  16
BRANCH   4  23
HETATM   23  C10 UNL     1      26.725  -0.263  53.533  1.00  0.00     0.036 A 
HETATM   24  C11 UNL     1      27.465  -1.176  52.788  1.00  0.00     0.029 A 
HETATM   25  C12 UNL     1      28.789  -1.376  53.094  1.00  0.00     0.002 A 
HETATM   26  C13 UNL     1      29.345  -0.663  54.133  1.00  0.00     0.000 A 
HETATM   27  C14 UNL     1      28.649   0.256  54.903  1.00  0.00     0.002 A 
HETATM   28  C15 UNL     1      27.317   0.425  54.560  1.00  0.00     0.029 A 
ENDBRANCH   4  23
TORSDOF 5
ENDMDL
MODEL 2
REMARK VINA RESULT:      -8.8      3.108      5.917
REMARK  5 active torsions:
REMARK  status: ('A' for Active; 'I' for Inactive)
REMARK    1  A    between atoms: C6_6  and  O1_7 
REMARK    2  A    between atoms: C7_8  and  C8_9 
REMARK    3  A    between atoms: C8_9  and  N1_10 
REMARK       I    between atoms: N1_10  and  C9_11 
REMARK    4  A    between atoms: N1_10  and  C16_20 
REMARK       I    between atoms: C9_11  and  N2_13 
REMARK    5  A    between atoms: N2_13  and  C10_14 
ROOT
HETATM    1  N1  UNL     1      25.608   1.786  52.494  1.00  0.00    -0.302 N 
HETATM    2  C9  UNL     1      26.158   2.750  51.568  1.00  0.00     0.327 C 
HETATM    3  O2  UNL     1      27.348   2.908  51.167  1.00  0.00    -0.246 OA
HETATM    4  N2  UNL     1      25.334   3.749  50.930  1.00  0.00    -0.309 N 
HETATM    5  H12 UNL     1      24.291   3.777  51.145  1.00  0.00     0.170 HD
ENDROOT
BRANCH   1   6
HETATM    6  C8  UNL     1      24.277   1.554  52.971  1.00  0.00     0.149 C 
BRANCH   6   7
HETATM    7  C7  UNL     1      23.549   0.415  52.320  1.00  0.00     0.089 A 
HETATM    8  C2  UNL     1      22.295   0.791  51.637  1.00  0.00    -0.071 A 
HETATM    9  C1  UNL     1      21.874   1.585  50.443  1.00  0.00     0.044 C 
HETATM   10  C3  UNL     1      21.241   0.260  52.281  1.00  0.00     0.012 A 
HETATM   11  C4  UNL     1      21.691  -0.507  53.436  1.00  0.00    -0.032 A 
HETATM   12  C5  UNL     1      21.019  -1.290  54.487  1.00  0.00     0.050 C 
HETATM   13  C6  UNL     1      23.011  -0.419  53.458  1.00  0.00     0.059 A 
BRANCH  13  14
HETATM   14  O1  UNL     1      23.978  -0.936  54.312  1.00  0.00    -0.364 OA
HETATM   15  H8  UNL     1      24.903  -0.550  54.250  1.00  0.00     0.217 HD
ENDBRANCH  13  14
ENDBRANCH   6   7
ENDBRANCH   1   6
BRANCH   1  16
HETATM   16  C16 UNL     1      26.674   0.938  52.973  1.00  0.00     0.016 A 
HETATM   17  C17 UNL     1      27.392   1.421  53.975  1.00  0.00     0.028 A 
HETATM   18  C18 UNL     1      28.489   0.623  54.519  1.00  0.00     0.039 A 
HETATM   19  C19 UNL     1      28.664  -0.549  53.933  1.00  0.00     0.094 A 
HETATM   20  F1  UNL     1      29.682  -1.348  54.399  1.00  0.00    -0.211 F 
HETATM   21  C20 UNL     1      27.943  -1.212  52.817  1.00  0.00     0.076 A 
HETATM   22  C21 UNL     1      26.826  -0.357  52.286  1.00  0.00     0.064 A 
ENDBRANCH   1  16
BRANCH   4  23
HETATM   23  C10 UNL     1      25.959   4.656  50.038  1.00  0.00     0.036 A 
HETATM   24  C11 UNL     1      25.425   5.941  50.077  1.00  0.00     0.029 A 
HETATM   25  C12 UNL     1      25.950   6.911  49.256  1.00  0.00     0.002 A 
HETATM   26  C13 UNL     1      26.991   6.578  48.419  1.00  0.00     0.000 A 
HETATM   27  C14 UNL     1      27.554   5.313  48.344  1.00  0.00     0.002 A 
HETATM   28  C15 UNL     1      26.994   4.368  49.189  1.00  0.00     0.029 A 
ENDBRANCH   4  23
TORSDOF 5
ENDMDL
MODEL 3
REMARK VINA RESULT:      -8.8      2.398      5.549
REMARK  5 active torsions:
REMARK  status: ('A' for Active; 'I' for Inactive)
REMARK    1  A    between atoms: C6_6  and  O1_7 
REMARK    2  A    between atoms: C7_8  and  C8_9 
REMARK    3  A    between atoms: C8_9  and  N1_10 
REMARK       I    between atoms: N1_10  and  C9_11 
REMARK    4  A    between atoms: N1_10  and  C16_20 
REMARK       I    between atoms: C9_11  and  N2_13 
REMARK    5  A    between atoms: N2_13  and  C10_14 
ROOT
HETATM    1  N1  UNL     1      24.723   0.809  52.372  1.00  0.00    -0.302 N 
HETATM    2  C9  UNL     1      24.918   2.109  51.769  1.00  0.00     0.327 C 
HETATM    3  O2  UNL     1      25.962   2.819  51.686  1.00  0.00    -0.246 OA
HETATM    4  N2  UNL     1      23.837   2.822  51.132  1.00  0.00    -0.309 N 
HETATM    5  H12 UNL     1      22.869   2.380  51.102  1.00  0.00     0.170 HD
ENDROOT
BRANCH   1   6
HETATM    6  C8  UNL     1      23.576  -0.042  52.484  1.00  0.00     0.149 C 
BRANCH   6   7
HETATM    7  C7  UNL     1      22.627   0.299  53.595  1.00  0.00     0.089 A 
HETATM    8  C2  UNL     1      22.396  -0.788  54.567  1.00  0.00    -0.071 A 
HETATM    9  C1  UNL     1      23.166  -1.528  55.612  1.00  0.00     0.044 C 
HETATM   10  C3  UNL     1      21.127  -1.225  54.477  1.00  0.00     0.012 A 
HETATM   11  C4  UNL     1      20.409  -0.480  53.451  1.00  0.00    -0.032 A 
HETATM   12  C5  UNL     1      19.037  -0.509  52.917  1.00  0.00     0.050 C 
HETATM   13  C6  UNL     1      21.267   0.392  52.947  1.00  0.00     0.059 A 
BRANCH  13  14
HETATM   14  O1  UNL     1      21.157   1.359  51.954  1.00  0.00    -0.364 OA
HETATM   15  H8  UNL     1      20.707   2.223  52.198  1.00  0.00     0.217 HD
ENDBRANCH  13  14
ENDBRANCH   6   7
ENDBRANCH   1   6
BRANCH   1  16
HETATM   16  C16 UNL     1      25.974   0.364  52.938  1.00  0.00     0.016 A 
HETATM   17  C17 UNL     1      26.660  -0.507  52.214  1.00  0.00     0.028 A 
HETATM   18  C18 UNL     1      27.938  -1.006  52.717  1.00  0.00     0.039 A 
HETATM   19  C19 UNL     1      28.298  -0.520  53.893  1.00  0.00     0.094 A 
HETATM   20  F1  UNL     1      29.492  -0.950  54.422  1.00  0.00    -0.211 F 
HETATM   21  C20 UNL     1      27.639   0.451  54.804  1.00  0.00     0.076 A 
HETATM   22  C21 UNL     1      26.327   0.936  54.250  1.00  0.00     0.064 A 
ENDBRANCH   1  16
BRANCH   4  23
HETATM   23  C10 UNL     1      24.119   4.093  50.570  1.00  0.00     0.036 A 
HETATM   24  C11 UNL     1      23.830   5.159  51.416  1.00  0.00     0.029 A 
HETATM   25  C12 UNL     1      24.062   6.442  50.982  1.00  0.00     0.002 A 
HETATM   26  C13 UNL     1      24.576   6.632  49.718  1.00  0.00     0.000 A 
HETATM   27  C14 UNL     1      24.879   5.603  48.841  1.00  0.00     0.002 A 
HETATM   28  C15 UNL     1      24.628   4.327  49.320  1.00  0.00     0.029 A 
ENDBRANCH   4  23
TORSDOF 5
ENDMDL
MODEL 4
REMARK VINA RESULT:      -8.5      2.799      5.933
REMARK  5 active torsions:
REMARK  status: ('A' for Active; 'I' for Inactive)
REMARK    1  A    between atoms: C6_6  and  O1_7 
REMARK    2  A    between atoms: C7_8  and  C8_9 
REMARK    3  A    between atoms: C8_9  and  N1_10 
REMARK       I    between atoms: N1_10  and  C9_11 
REMARK    4  A    between atoms: N1_10  and  C16_20 
REMARK       I    between atoms: C9_11  and  N2_13 
REMARK    5  A    between atoms: N2_13  and  C10_14 
ROOT
HETATM    1  N1  UNL     1      24.230   2.583  50.694  1.00  0.00    -0.302 N 
HETATM    2  C9  UNL     1      25.058   1.798  51.583  1.00  0.00     0.327 C 
HETATM    3  O2  UNL     1      24.731   1.031  52.534  1.00  0.00    -0.246 OA
HETATM    4  N2  UNL     1      26.497   1.800  51.482  1.00  0.00    -0.309 N 
HETATM    5  H12 UNL     1      26.965   2.395  50.733  1.00  0.00     0.170 HD
ENDROOT
BRANCH   1   6
HETATM    6  C8  UNL     1      24.543   3.454  49.600  1.00  0.00     0.149 C 
BRANCH   6   7
HETATM    7  C7  UNL     1      24.940   4.850  49.980  1.00  0.00     0.089 A 
HETATM    8  C2  UNL     1      24.282   5.916  49.199  1.00  0.00    -0.071 A 
HETATM    9  C1  UNL     1      22.910   6.482  49.024  1.00  0.00     0.044 C 
HETATM   10  C3  UNL     1      25.187   6.550  48.432  1.00  0.00     0.012 A 
HETATM   11  C4  UNL     1      26.510   5.972  48.631  1.00  0.00    -0.032 A 
HETATM   12  C5  UNL     1      27.851   6.240  48.085  1.00  0.00     0.050 C 
HETATM   13  C6  UNL     1      26.368   5.000  49.517  1.00  0.00     0.059 A 
BRANCH  13  14
HETATM   14  O1  UNL     1      27.267   4.108  50.091  1.00  0.00    -0.364 OA
HETATM   15  H8  UNL     1      27.020   3.134  50.082  1.00  0.00     0.217 HD
ENDBRANCH  13  14
ENDBRANCH   6   7
ENDBRANCH   1   6
BRANCH   1  16
HETATM   16  C16 UNL     1      22.845   2.387  51.051  1.00  0.00     0.016 A 
HETATM   17  C17 UNL     1      22.355   3.223  51.953  1.00  0.00     0.028 A 
HETATM   18  C18 UNL     1      20.960   3.093  52.368  1.00  0.00     0.039 A 
HETATM   19  C19 UNL     1      20.298   2.112  51.777  1.00  0.00     0.094 A 
HETATM   20  F1  UNL     1      18.978   1.936  52.124  1.00  0.00    -0.211 F 
HETATM   21  C20 UNL     1      20.711   1.113  50.759  1.00  0.00     0.076 A 
HETATM   22  C21 UNL     1      22.153   1.282  50.364  1.00  0.00     0.064 A 
ENDBRANCH   1  16
BRANCH   4  23
HETATM   23  C10 UNL     1      27.229   1.003  52.397  1.00  0.00     0.036 A 
HETATM   24  C11 UNL     1      27.982   1.737  53.308  1.00  0.00     0.029 A 
HETATM   25  C12 UNL     1      28.735   1.074  54.247  1.00  0.00     0.002 A 
HETATM   26  C13 UNL     1      28.719  -0.303  54.256  1.00  0.00     0.000 A 
HETATM   27  C14 UNL     1      27.986  -1.077  53.370  1.00  0.00     0.002 A 
HETATM   28  C15 UNL     1      27.243  -0.367  52.441  1.00  0.00     0.029 A 
ENDBRANCH   4  23
TORSDOF 5
ENDMDL
MODEL 5
REMARK VINA RESULT:      -8.4      2.699      7.077
REMARK  5 active torsions:
REMARK  status: ('A' for Active; 'I' for Inactive)
REMARK    1  A    between atoms: C6_6  and  O1_7 
REMARK    2  A    between atoms: C7_8  and  C8_9 
REMARK    3  A    between atoms: C8_9  and  N1_10 
REMARK       I    between atoms: N1_10  and  C9_11 
REMARK    4  A    between atoms: N1_10  and  C16_20 
REMARK       I    between atoms: C9_11  and  N2_13 
REMARK    5  A    between atoms: N2_13  and  C10_14 
ROOT
HETATM    1  N1  UNL     1      24.290   1.938  52.812  1.00  0.00    -0.302 N 
HETATM    2  C9  UNL     1      23.096   1.123  52.830  1.00  0.00     0.327 C 
HETATM    3  O2  UNL     1      22.961  -0.119  53.032  1.00  0.00    -0.246 OA
HETATM    4  N2  UNL     1      21.787   1.684  52.592  1.00  0.00    -0.309 N 
HETATM    5  H12 UNL     1      21.697   2.727  52.399  1.00  0.00     0.170 HD
ENDROOT
BRANCH   1   6
HETATM    6  C8  UNL     1      24.500   3.339  52.603  1.00  0.00     0.149 C 
BRANCH   6   7
HETATM    7  C7  UNL     1      24.121   3.852  51.244  1.00  0.00     0.089 A 
HETATM    8  C2  UNL     1      25.257   4.089  50.332  1.00  0.00    -0.071 A 
HETATM    9  C1  UNL     1      26.289   3.285  49.609  1.00  0.00     0.044 C 
HETATM   10  C3  UNL     1      25.388   5.405  50.090  1.00  0.00     0.012 A 
HETATM   11  C4  UNL     1      24.365   6.154  50.809  1.00  0.00    -0.032 A 
HETATM   12  C5  UNL     1      24.017   7.579  50.930  1.00  0.00     0.050 C 
HETATM   13  C6  UNL     1      23.640   5.265  51.469  1.00  0.00     0.059 A 
BRANCH  13  14
HETATM   14  O1  UNL     1      22.542   5.383  52.313  1.00  0.00    -0.364 OA
HETATM   15  H8  UNL     1      21.694   4.921  52.034  1.00  0.00     0.217 HD
ENDBRANCH  13  14
ENDBRANCH   6   7
ENDBRANCH   1   6
BRANCH   1  16
HETATM   16  C16 UNL     1      25.434   1.096  53.065  1.00  0.00     0.016 A 
HETATM   17  C17 UNL     1      25.891   0.411  52.028  1.00  0.00     0.028 A 
HETATM   18  C18 UNL     1      27.048  -0.464  52.201  1.00  0.00     0.039 A 
HETATM   19  C19 UNL     1      27.545  -0.488  53.426  1.00  0.00     0.094 A 
HETATM   20  F1  UNL     1      28.637  -1.293  53.655  1.00  0.00    -0.211 F 
HETATM   21  C20 UNL     1      27.144   0.219  54.669  1.00  0.00     0.076 A 
HETATM   22  C21 UNL     1      25.949   1.106  54.447  1.00  0.00     0.064 A 
ENDBRANCH   1  16
BRANCH   4  23
HETATM   23  C10 UNL     1      20.673   0.809  52.625  1.00  0.00     0.036 A 
HETATM   24  C11 UNL     1      19.909   0.825  51.462  1.00  0.00     0.029 A 
HETATM   25  C12 UNL     1      18.801   0.017  51.375  1.00  0.00     0.002 A 
HETATM   26  C13 UNL     1      18.480  -0.786  52.447  1.00  0.00     0.000 A 
HETATM   27  C14 UNL     1      19.209  -0.835  53.625  1.00  0.00     0.002 A 
HETATM   28  C15 UNL     1      20.317  -0.004  53.669  1.00  0.00     0.029 A 
ENDBRANCH   4  23
TORSDOF 5
ENDMDL
MODEL 6
REMARK VINA RESULT:      -8.4      2.904      6.676
REMARK  5 active torsions:
REMARK  status: ('A' for Active; 'I' for Inactive)
REMARK    1  A    between atoms: C6_6  and  O1_7 
REMARK    2  A    between atoms: C7_8  and  C8_9 
REMARK    3  A    between atoms: C8_9  and  N1_10 
REMARK       I    between atoms: N1_10  and  C9_11 
REMARK    4  A    between atoms: N1_10  and  C16_20 
REMARK       I    between atoms: C9_11  and  N2_13 
REMARK    5  A    between atoms: N2_13  and  C10_14 
ROOT
HETATM    1  N1  UNL     1      24.019   3.163  51.680  1.00  0.00    -0.302 N 
HETATM    2  C9  UNL     1      24.214   4.298  50.805  1.00  0.00     0.327 C 
HETATM    3  O2  UNL     1      23.454   4.781  49.917  1.00  0.00    -0.246 OA
HETATM    4  N2  UNL     1      25.420   5.089  50.844  1.00  0.00    -0.309 N 
HETATM    5  H12 UNL     1      26.188   4.833  51.535  1.00  0.00     0.170 HD
ENDROOT
BRANCH   1   6
HETATM    6  C8  UNL     1      24.833   2.583  52.706  1.00  0.00     0.149 C 
BRANCH   6   7
HETATM    7  C7  UNL     1      25.645   1.393  52.287  1.00  0.00     0.089 A 
HETATM    8  C2  UNL     1      25.517   0.214  53.167  1.00  0.00    -0.071 A 
HETATM    9  C1  UNL     1      24.470  -0.784  53.544  1.00  0.00     0.044 C 
HETATM   10  C3  UNL     1      26.680  -0.017  53.801  1.00  0.00     0.012 A 
HETATM   11  C4  UNL     1      27.674   0.973  53.408  1.00  0.00    -0.032 A 
HETATM   12  C5  UNL     1      29.082   1.225  53.757  1.00  0.00     0.050 C 
HETATM   13  C6  UNL     1      27.083   1.779  52.541  1.00  0.00     0.059 A 
BRANCH  13  14
HETATM   14  O1  UNL     1      27.523   2.892  51.834  1.00  0.00    -0.364 OA
HETATM   15  H8  UNL     1      28.504   3.106  51.874  1.00  0.00     0.217 HD
ENDBRANCH  13  14
ENDBRANCH   6   7
ENDBRANCH   1   6
BRANCH   1  16
HETATM   16  C16 UNL     1      22.734   2.570  51.396  1.00  0.00     0.016 A 
HETATM   17  C17 UNL     1      22.719   1.646  50.448  1.00  0.00     0.028 A 
HETATM   18  C18 UNL     1      21.458   0.996  50.101  1.00  0.00     0.039 A 
HETATM   19  C19 UNL     1      20.412   1.411  50.796  1.00  0.00     0.094 A 
HETATM   20  F1  UNL     1      19.193   0.838  50.517  1.00  0.00    -0.211 F 
HETATM   21  C20 UNL     1      20.283   2.422  51.876  1.00  0.00     0.076 A 
HETATM   22  C21 UNL     1      21.602   3.068  52.199  1.00  0.00     0.064 A 
ENDBRANCH   1  16
BRANCH   4  23
HETATM   23  C10 UNL     1      25.527   6.182  49.947  1.00  0.00     0.036 A 
HETATM   24  C11 UNL     1      25.049   7.383  50.463  1.00  0.00     0.029 A 
HETATM   25  C12 UNL     1      25.099   8.515  49.685  1.00  0.00     0.002 A 
HETATM   26  C13 UNL     1      25.624   8.424  48.415  1.00  0.00     0.000 A 
HETATM   27  C14 UNL     1      26.112   7.252  47.859  1.00  0.00     0.002 A 
HETATM   28  C15 UNL     1      26.040   6.136  48.677  1.00  0.00     0.029 A 
ENDBRANCH   4  23
TORSDOF 5
ENDMDL
MODEL 7
REMARK VINA RESULT:      -8.4      2.979      5.553
REMARK  5 active torsions:
REMARK  status: ('A' for Active; 'I' for Inactive)
REMARK    1  A    between atoms: C6_6  and  O1_7 
REMARK    2  A    between atoms: C7_8  and  C8_9 
REMARK    3  A    between atoms: C8_9  and  N1_10 
REMARK       I    between atoms: N1_10  and  C9_11 
REMARK    4  A    between atoms: N1_10  and  C16_20 
REMARK       I    between atoms: C9_11  and  N2_13 
REMARK    5  A    between atoms: N2_13  and  C10_14 
ROOT
HETATM    1  N1  UNL     1      23.156   2.703  51.438  1.00  0.00    -0.302 N 
HETATM    2  C9  UNL     1      23.916   3.598  50.594  1.00  0.00     0.327 C 
HETATM    3  O2  UNL     1      23.593   4.162  49.508  1.00  0.00    -0.246 OA
HETATM    4  N2  UNL     1      25.266   3.990  50.920  1.00  0.00    -0.309 N 
HETATM    5  H12 UNL     1      25.716   3.612  51.808  1.00  0.00     0.170 HD
ENDROOT
BRANCH   1   6
HETATM    6  C8  UNL     1      23.463   2.050  52.676  1.00  0.00     0.149 C 
BRANCH   6   7
HETATM    7  C7  UNL     1      24.138   0.716  52.550  1.00  0.00     0.089 A 
HETATM    8  C2  UNL     1      23.578  -0.345  53.411  1.00  0.00    -0.071 A 
HETATM    9  C1  UNL     1      22.312  -1.131  53.527  1.00  0.00     0.044 C 
HETATM   10  C3  UNL     1      24.473  -0.696  54.351  1.00  0.00     0.012 A 
HETATM   11  C4  UNL     1      25.692   0.088  54.205  1.00  0.00    -0.032 A 
HETATM   12  C5  UNL     1      26.978   0.148  54.918  1.00  0.00     0.050 C 
HETATM   13  C6  UNL     1      25.500   0.895  53.174  1.00  0.00     0.059 A 
BRANCH  13  14
HETATM   14  O1  UNL     1      26.299   1.859  52.568  1.00  0.00    -0.364 OA
HETATM   15  H8  UNL     1      26.406   2.737  53.046  1.00  0.00     0.217 HD
ENDBRANCH  13  14
ENDBRANCH   6   7
ENDBRANCH   1   6
BRANCH   1  16
HETATM   16  C16 UNL     1      21.858   2.488  50.844  1.00  0.00     0.016 A 
HETATM   17  C17 UNL     1      21.779   1.499  49.967  1.00  0.00     0.028 A 
HETATM   18  C18 UNL     1      20.500   1.216  49.321  1.00  0.00     0.039 A 
HETATM   19  C19 UNL     1      19.506   2.008  49.690  1.00  0.00     0.094 A 
HETATM   20  F1  UNL     1      18.274   1.793  49.118  1.00  0.00    -0.211 F 
HETATM   21  C20 UNL     1      19.450   3.139  50.650  1.00  0.00     0.076 A 
HETATM   22  C21 UNL     1      20.787   3.398  51.289  1.00  0.00     0.064 A 
ENDBRANCH   1  16
BRANCH   4  23
HETATM   23  C10 UNL     1      25.936   4.869  50.033  1.00  0.00     0.036 A 
HETATM   24  C11 UNL     1      26.991   4.279  49.345  1.00  0.00     0.029 A 
HETATM   25  C12 UNL     1      27.718   5.032  48.455  1.00  0.00     0.002 A 
HETATM   26  C13 UNL     1      27.375   6.353  48.271  1.00  0.00     0.000 A 
HETATM   27  C14 UNL     1      26.334   6.985  48.932  1.00  0.00     0.002 A 
HETATM   28  C15 UNL     1      25.630   6.188  49.821  1.00  0.00     0.029 A 
ENDBRANCH   4  23
TORSDOF 5
ENDMDL
MODEL 8
REMARK VINA RESULT:      -8.2      2.652      5.395
REMARK  5 active torsions:
REMARK  status: ('A' for Active; 'I' for Inactive)
REMARK    1  A    between atoms: C6_6  and  O1_7 
REMARK    2  A    between atoms: C7_8  and  C8_9 
REMARK    3  A    between atoms: C8_9  and  N1_10 
REMARK       I    between atoms: N1_10  and  C9_11 
REMARK    4  A    between atoms: N1_10  and  C16_20 
REMARK       I    between atoms: C9_11  and  N2_13 
REMARK    5  A    between atoms: N2_13  and  C10_14 
ROOT
HETATM    1  N1  UNL     1      23.337   2.982  52.278  1.00  0.00    -0.302 N 
HETATM    2  C9  UNL     1      24.419   2.156  52.764  1.00  0.00     0.327 C 
HETATM    3  O2  UNL     1      24.496   0.898  52.880  1.00  0.00    -0.246 OA
HETATM    4  N2  UNL     1      25.664   2.725  53.224  1.00  0.00    -0.309 N 
HETATM    5  H12 UNL     1      25.790   3.782  53.204  1.00  0.00     0.170 HD
ENDROOT
BRANCH   1   6
HETATM    6  C8  UNL     1      23.200   4.398  52.114  1.00  0.00     0.149 C 
BRANCH   6   7
HETATM    7  C7  UNL     1      23.287   4.895  50.701  1.00  0.00     0.089 A 
HETATM    8  C2  UNL     1      24.584   4.652  50.037  1.00  0.00    -0.071 A 
HETATM    9  C1  UNL     1      25.383   3.487  49.550  1.00  0.00     0.044 C 
HETATM   10  C3  UNL     1      25.212   5.819  49.811  1.00  0.00     0.012 A 
HETATM   11  C4  UNL     1      24.403   6.929  50.297  1.00  0.00    -0.032 A 
HETATM   12  C5  UNL     1      24.562   8.393  50.327  1.00  0.00     0.050 C 
HETATM   13  C6  UNL     1      23.302   6.401  50.805  1.00  0.00     0.059 A 
BRANCH  13  14
HETATM   14  O1  UNL     1      22.178   6.956  51.406  1.00  0.00    -0.364 OA
HETATM   15  H8  UNL     1      21.676   7.655  50.888  1.00  0.00     0.217 HD
ENDBRANCH  13  14
ENDBRANCH   6   7
ENDBRANCH   1   6
BRANCH   1  16
HETATM   16  C16 UNL     1      22.230   2.132  51.910  1.00  0.00     0.016 A 
HETATM   17  C17 UNL     1      21.237   2.061  52.783  1.00  0.00     0.028 A 
HETATM   18  C18 UNL     1      20.078   1.223  52.485  1.00  0.00     0.039 A 
HETATM   19  C19 UNL     1      20.138   0.591  51.325  1.00  0.00     0.094 A 
HETATM   20  F1  UNL     1      19.076  -0.216  50.984  1.00  0.00    -0.211 F 
HETATM   21  C20 UNL     1      21.171   0.578  50.259  1.00  0.00     0.076 A 
HETATM   22  C21 UNL     1      22.346   1.450  50.608  1.00  0.00     0.064 A 
ENDBRANCH   1  16
BRANCH   4  23
HETATM   23  C10 UNL     1      26.669   1.840  53.686  1.00  0.00     0.036 A 
HETATM   24  C11 UNL     1      27.907   2.027  53.079  1.00  0.00     0.029 A 
HETATM   25  C12 UNL     1      28.963   1.227  53.446  1.00  0.00     0.002 A 
HETATM   26  C13 UNL     1      28.760   0.261  54.407  1.00  0.00     0.000 A 
HETATM   27  C14 UNL     1      27.547   0.038  55.039  1.00  0.00     0.002 A 
HETATM   28  C15 UNL     1      26.511   0.866  54.637  1.00  0.00     0.029 A 
ENDBRANCH   4  23
TORSDOF 5
ENDMDL
MODEL 9
REMARK VINA RESULT:      -8.0      2.450      5.489
REMARK  5 active torsions:
REMARK  status: ('A' for Active; 'I' for Inactive)
REMARK    1  A    between atoms: C6_6  and  O1_7 
REMARK    2  A    between atoms: C7_8  and  C8_9 
REMARK    3  A    between atoms: C8_9  and  N1_10 
REMARK       I    between atoms: N1_10  and  C9_11 
REMARK    4  A    between atoms: N1_10  and  C16_20 
REMARK       I    between atoms: C9_11  and  N2_13 
REMARK    5  A    between atoms: N2_13  and  C10_14 
ROOT
HETATM    1  N1  UNL     1      23.977   1.056  51.903  1.00  0.00    -0.302 N 
HETATM    2  C9  UNL     1      25.080   0.283  52.429  1.00  0.00     0.327 C 
HETATM    3  O2  UNL     1      25.078  -0.701  53.223  1.00  0.00    -0.246 OA
HETATM    4  N2  UNL     1      26.449   0.574  52.078  1.00  0.00    -0.309 N 
HETATM    5  H12 UNL     1      26.655   1.380  51.412  1.00  0.00     0.170 HD
ENDROOT
BRANCH   1   6
HETATM    6  C8  UNL     1      23.919   2.165  50.998  1.00  0.00     0.149 C 
BRANCH   6   7
HETATM    7  C7  UNL     1      24.515   3.444  51.507  1.00  0.00     0.089 A 
HETATM    8  C2  UNL     1      23.643   4.629  51.377  1.00  0.00    -0.071 A 
HETATM    9  C1  UNL     1      22.362   5.135  51.956  1.00  0.00     0.044 C 
HETATM   10  C3  UNL     1      24.163   5.488  50.483  1.00  0.00     0.012 A 
HETATM   11  C4  UNL     1      25.410   4.961  49.943  1.00  0.00    -0.032 A 
HETATM   12  C5  UNL     1      26.397   5.438  48.961  1.00  0.00     0.050 C 
HETATM   13  C6  UNL     1      25.611   3.793  50.530  1.00  0.00     0.059 A 
BRANCH  13  14
HETATM   14  O1  UNL     1      26.620   2.843  50.419  1.00  0.00    -0.364 OA
HETATM   15  H8  UNL     1      26.943   2.617  49.495  1.00  0.00     0.217 HD
ENDBRANCH  13  14
ENDBRANCH   6   7
ENDBRANCH   1   6
BRANCH   1  16
HETATM   16  C16 UNL     1      22.743   0.539  52.446  1.00  0.00     0.016 A 
HETATM   17  C17 UNL     1      21.754   0.376  51.582  1.00  0.00     0.028 A 
HETATM   18  C18 UNL     1      20.472  -0.145  52.051  1.00  0.00     0.039 A 
HETATM   19  C19 UNL     1      20.424  -0.411  53.346  1.00  0.00     0.094 A 
HETATM   20  F1  UNL     1      19.243  -0.904  53.851  1.00  0.00    -0.211 F 
HETATM   21  C20 UNL     1      21.442  -0.281  54.419  1.00  0.00     0.076 A 
HETATM   22  C21 UNL     1      22.743   0.260  53.893  1.00  0.00     0.064 A 
ENDBRANCH   1  16
BRANCH   4  23
HETATM   23  C10 UNL     1      27.467  -0.234  52.644  1.00  0.00     0.036 A 
HETATM   24  C11 UNL     1      28.389   0.474  53.408  1.00  0.00     0.029 A 
HETATM   25  C12 UNL     1      29.424  -0.202  54.008  1.00  0.00     0.002 A 
HETATM   26  C13 UNL     1      29.514  -1.565  53.834  1.00  0.00     0.000 A 
HETATM   27  C14 UNL     1      28.622  -2.313  53.083  1.00  0.00     0.002 A 
HETATM   28  C15 UNL     1      27.595  -1.590  52.495  1.00  0.00     0.029 A 
ENDBRANCH   4  23
TORSDOF 5
ENDMDL
