MODEL 1
REMARK VINA RESULT:      -7.4      0.000      0.000
REMARK  5 active torsions:
REMARK  status: ('A' for Active; 'I' for Inactive)
REMARK    1  A    between atoms: C2_2  and  C3_3 
REMARK    2  A    between atoms: C4_5  and  C5_6 
REMARK    3  A    between atoms: C5_6  and  N1_7 
REMARK    4  A    between atoms: N1_7  and  C6_8 
REMARK    5  A    between atoms: C13_17  and  O1_18 
ROOT
HETATM    1  C6  UNL     1      23.973   0.018  53.534  1.00  0.00     0.063 A 
HETATM    2  C7  UNL     1      23.556  -0.842  54.563  1.00  0.00     0.089 A 
HETATM    3  C8  UNL     1      22.228  -1.375  54.669  1.00  0.00     0.103 C 
HETATM    4  N2  UNL     1      21.165  -1.823  54.752  1.00  0.00    -0.191 NA
HETATM    5  C9  UNL     1      24.440  -1.238  55.571  1.00  0.00     0.142 A 
HETATM    6  N3  UNL     1      25.708  -0.796  55.567  1.00  0.00    -0.259 NA
HETATM    7  C10 UNL     1      26.166   0.027  54.609  1.00  0.00     0.069 A 
HETATM    8  C11 UNL     1      27.438   0.513  54.518  1.00  0.00     0.035 A 
HETATM    9  C12 UNL     1      27.866   1.359  53.490  1.00  0.00     0.039 A 
HETATM   10  C13 UNL     1      26.962   1.733  52.500  1.00  0.00     0.069 A 
HETATM   11  C15 UNL     1      25.684   1.236  52.605  1.00  0.00     0.053 A 
HETATM   12  C16 UNL     1      25.285   0.406  53.626  1.00  0.00     0.023 A 
ENDROOT
BRANCH   1  13
HETATM   13  N1  UNL     1      22.930   0.291  52.623  1.00  0.00    -0.387 N 
HETATM   14  H7  UNL     1      22.792  -0.691  52.293  1.00  0.00     0.159 HD
BRANCH  13  15
HETATM   15  C5  UNL     1      22.176   1.411  52.152  1.00  0.00     0.136 C 
BRANCH  15  16
HETATM   16  C4  UNL     1      22.408   1.849  50.790  1.00  0.00     0.129 A 
HETATM   17  C3  UNL     1      22.722   2.376  49.655  1.00  0.00     0.015 A 
HETATM   18 BR1  UNL     1      21.347   1.050  49.333  1.00  0.00    -0.154 Br
BRANCH  17  19
HETATM   19  C2  UNL     1      23.014   2.892  48.351  1.00  0.00     0.006 C 
HETATM   20  C1  UNL     1      22.096   2.793  47.418  1.00  0.00     0.007 C 
ENDBRANCH  17  19
ENDBRANCH  15  16
ENDBRANCH  13  15
ENDBRANCH   1  13
BRANCH  10  21
HETATM   21  O1  UNL     1      27.311   2.566  51.448  1.00  0.00    -0.356 OA
HETATM   22  C14 UNL     1      26.321   2.924  50.504  1.00  0.00     0.210 C 
ENDBRANCH  10  21
TORSDOF 5
ENDMDL
MODEL 2
REMARK VINA RESULT:      -7.4      1.722      2.745
REMARK  5 active torsions:
REMARK  status: ('A' for Active; 'I' for Inactive)
REMARK    1  A    between atoms: C2_2  and  C3_3 
REMARK    2  A    between atoms: C4_5  and  C5_6 
REMARK    3  A    between atoms: C5_6  and  N1_7 
REMARK    4  A    between atoms: N1_7  and  C6_8 
REMARK    5  A    between atoms: C13_17  and  O1_18 
ROOT
HETATM    1  C6  UNL     1      24.077   0.161  53.391  1.00  0.00     0.063 A 
HETATM    2  C7  UNL     1      23.770  -0.723  54.438  1.00  0.00     0.089 A 
HETATM    3  C8  UNL     1      22.479  -1.321  54.626  1.00  0.00     0.103 C 
HETATM    4  N2  UNL     1      21.447  -1.821  54.774  1.00  0.00    -0.191 NA
HETATM    5  C9  UNL     1      24.736  -1.081  55.384  1.00  0.00     0.142 A 
HETATM    6  N3  UNL     1      25.979  -0.578  55.301  1.00  0.00    -0.259 NA
HETATM    7  C10 UNL     1      26.333   0.272  54.322  1.00  0.00     0.069 A 
HETATM    8  C11 UNL     1      27.571   0.820  54.152  1.00  0.00     0.035 A 
HETATM    9  C12 UNL     1      27.889   1.690  53.105  1.00  0.00     0.039 A 
HETATM   10  C13 UNL     1      26.906   2.024  52.178  1.00  0.00     0.069 A 
HETATM   11  C15 UNL     1      25.663   1.465  52.363  1.00  0.00     0.053 A 
HETATM   12  C16 UNL     1      25.372   0.612  53.401  1.00  0.00     0.023 A 
ENDROOT
BRANCH   1  13
HETATM   13  N1  UNL     1      22.965   0.387  52.552  1.00  0.00    -0.387 N 
HETATM   14  H7  UNL     1      23.164  -0.381  51.872  1.00  0.00     0.159 HD
BRANCH  13  15
HETATM   15  C5  UNL     1      21.848   1.274  52.459  1.00  0.00     0.136 C 
BRANCH  15  16
HETATM   16  C4  UNL     1      20.536   0.684  52.290  1.00  0.00     0.129 A 
HETATM   17  C3  UNL     1      19.404   0.064  52.301  1.00  0.00     0.015 A 
HETATM   18 BR1  UNL     1      19.569   0.964  50.595  1.00  0.00    -0.154 Br
BRANCH  17  19
HETATM   19  C2  UNL     1      18.125  -0.579  52.230  1.00  0.00     0.006 C 
HETATM   20  C1  UNL     1      17.766  -1.369  53.215  1.00  0.00     0.007 C 
ENDBRANCH  17  19
ENDBRANCH  15  16
ENDBRANCH  13  15
ENDBRANCH   1  13
BRANCH  10  21
HETATM   21  O1  UNL     1      27.144   2.879  51.113  1.00  0.00    -0.356 OA
HETATM   22  C14 UNL     1      26.133   3.057  50.142  1.00  0.00     0.210 C 
ENDBRANCH  10  21
TORSDOF 5
ENDMDL
MODEL 3
REMARK VINA RESULT:      -7.4      2.857      4.963
REMARK  5 active torsions:
REMARK  status: ('A' for Active; 'I' for Inactive)
REMARK    1  A    between atoms: C2_2  and  C3_3 
REMARK    2  A    between atoms: C4_5  and  C5_6 
REMARK    3  A    between atoms: C5_6  and  N1_7 
REMARK    4  A    between atoms: N1_7  and  C6_8 
REMARK    5  A    between atoms: C13_17  and  O1_18 
ROOT
HETATM    1  C6  UNL     1      25.291   1.353  53.036  1.00  0.00     0.063 A 
HETATM    2  C7  UNL     1      26.548   1.124  53.618  1.00  0.00     0.089 A 
HETATM    3  C8  UNL     1      27.725   1.882  53.300  1.00  0.00     0.103 C 
HETATM    4  N2  UNL     1      28.672   2.500  53.063  1.00  0.00    -0.191 NA
HETATM    5  C9  UNL     1      26.728   0.115  54.569  1.00  0.00     0.142 A 
HETATM    6  N3  UNL     1      25.691  -0.654  54.938  1.00  0.00    -0.259 NA
HETATM    7  C10 UNL     1      24.464  -0.484  54.418  1.00  0.00     0.069 A 
HETATM    8  C11 UNL     1      23.354  -1.207  54.743  1.00  0.00     0.035 A 
HETATM    9  C12 UNL     1      22.095  -0.978  54.180  1.00  0.00     0.039 A 
HETATM   10  C13 UNL     1      21.948   0.036  53.238  1.00  0.00     0.069 A 
HETATM   11  C15 UNL     1      23.076   0.756  52.920  1.00  0.00     0.053 A 
HETATM   12  C16 UNL     1      24.305   0.512  53.486  1.00  0.00     0.023 A 
ENDROOT
BRANCH   1  13
HETATM   13  N1  UNL     1      25.328   2.414  52.106  1.00  0.00    -0.387 N 
HETATM   14  H7  UNL     1      25.727   3.131  52.751  1.00  0.00     0.159 HD
BRANCH  13  15
HETATM   15  C5  UNL     1      24.995   2.658  50.737  1.00  0.00     0.136 C 
BRANCH  15  16
HETATM   16  C4  UNL     1      25.893   3.497  49.969  1.00  0.00     0.129 A 
HETATM   17  C3  UNL     1      26.829   4.121  49.337  1.00  0.00     0.015 A 
HETATM   18 BR1  UNL     1      25.249   5.239  49.308  1.00  0.00    -0.154 Br
BRANCH  17  19
HETATM   19  C2  UNL     1      27.801   4.879  48.607  1.00  0.00     0.006 C 
HETATM   20  C1  UNL     1      27.554   6.145  48.364  1.00  0.00     0.007 C 
ENDBRANCH  17  19
ENDBRANCH  15  16
ENDBRANCH  13  15
ENDBRANCH   1  13
BRANCH  10  21
HETATM   21  O1  UNL     1      20.733   0.325  52.635  1.00  0.00    -0.356 OA
HETATM   22  C14 UNL     1      19.566  -0.313  53.114  1.00  0.00     0.210 C 
ENDBRANCH  10  21
TORSDOF 5
ENDMDL
MODEL 4
REMARK VINA RESULT:      -7.2      2.393      5.285
REMARK  5 active torsions:
REMARK  status: ('A' for Active; 'I' for Inactive)
REMARK    1  A    between atoms: C2_2  and  C3_3 
REMARK    2  A    between atoms: C4_5  and  C5_6 
REMARK    3  A    between atoms: C5_6  and  N1_7 
REMARK    4  A    between atoms: N1_7  and  C6_8 
REMARK    5  A    between atoms: C13_17  and  O1_18 
ROOT
HETATM    1  C6  UNL     1      23.943   0.485  52.959  1.00  0.00     0.063 A 
HETATM    2  C7  UNL     1      22.699  -0.080  53.283  1.00  0.00     0.089 A 
HETATM    3  C8  UNL     1      22.497  -0.997  54.369  1.00  0.00     0.103 C 
HETATM    4  N2  UNL     1      22.323  -1.722  55.252  1.00  0.00    -0.191 NA
HETATM    5  C9  UNL     1      21.553   0.230  52.544  1.00  0.00     0.142 A 
HETATM    6  N3  UNL     1      21.631   1.079  51.506  1.00  0.00    -0.259 NA
HETATM    7  C10 UNL     1      22.792   1.651  51.147  1.00  0.00     0.069 A 
HETATM    8  C11 UNL     1      22.962   2.532  50.119  1.00  0.00     0.035 A 
HETATM    9  C12 UNL     1      24.194   3.110  49.797  1.00  0.00     0.039 A 
HETATM   10  C13 UNL     1      25.315   2.783  50.554  1.00  0.00     0.069 A 
HETATM   11  C15 UNL     1      25.129   1.893  51.587  1.00  0.00     0.053 A 
HETATM   12  C16 UNL     1      23.908   1.336  51.884  1.00  0.00     0.023 A 
ENDROOT
BRANCH   1  13
HETATM   13  N1  UNL     1      24.964   0.041  53.827  1.00  0.00    -0.387 N 
HETATM   14  H7  UNL     1      24.766  -0.981  53.739  1.00  0.00     0.159 HD
BRANCH  13  15
HETATM   15  C5  UNL     1      26.001   0.594  54.640  1.00  0.00     0.136 C 
BRANCH  15  16
HETATM   16  C4  UNL     1      27.369   0.402  54.202  1.00  0.00     0.129 A 
HETATM   17  C3  UNL     1      28.569   0.053  53.880  1.00  0.00     0.015 A 
HETATM   18 BR1  UNL     1      28.413   1.964  53.606  1.00  0.00    -0.154 Br
BRANCH  17  19
HETATM   19  C2  UNL     1      29.915  -0.242  53.487  1.00  0.00     0.006 C 
HETATM   20  C1  UNL     1      30.431  -1.397  53.841  1.00  0.00     0.007 C 
ENDBRANCH  17  19
ENDBRANCH  15  16
ENDBRANCH  13  15
ENDBRANCH   1  13
BRANCH  10  21
HETATM   21  O1  UNL     1      26.569   3.315  50.297  1.00  0.00    -0.356 OA
HETATM   22  C14 UNL     1      26.705   4.280  49.274  1.00  0.00     0.210 C 
ENDBRANCH  10  21
TORSDOF 5
ENDMDL
MODEL 5
REMARK VINA RESULT:      -7.1      2.933      4.952
REMARK  5 active torsions:
REMARK  status: ('A' for Active; 'I' for Inactive)
REMARK    1  A    between atoms: C2_2  and  C3_3 
REMARK    2  A    between atoms: C4_5  and  C5_6 
REMARK    3  A    between atoms: C5_6  and  N1_7 
REMARK    4  A    between atoms: N1_7  and  C6_8 
REMARK    5  A    between atoms: C13_17  and  O1_18 
ROOT
HETATM    1  C6  UNL     1      23.979   1.093  52.418  1.00  0.00     0.063 A 
HETATM    2  C7  UNL     1      25.321   0.924  52.796  1.00  0.00     0.089 A 
HETATM    3  C8  UNL     1      26.413   1.650  52.213  1.00  0.00     0.103 C 
HETATM    4  N2  UNL     1      27.295   2.245  51.760  1.00  0.00    -0.191 NA
HETATM    5  C9  UNL     1      25.679   0.010  53.792  1.00  0.00     0.142 A 
HETATM    6  N3  UNL     1      24.734  -0.723  54.404  1.00  0.00    -0.259 NA
HETATM    7  C10 UNL     1      23.434  -0.606  54.087  1.00  0.00     0.069 A 
HETATM    8  C11 UNL     1      22.408  -1.297  54.663  1.00  0.00     0.035 A 
HETATM    9  C12 UNL     1      21.068  -1.126  54.304  1.00  0.00     0.039 A 
HETATM   10  C13 UNL     1      20.745  -0.206  53.310  1.00  0.00     0.069 A 
HETATM   11  C15 UNL     1      21.789   0.483  52.738  1.00  0.00     0.053 A 
HETATM   12  C16 UNL     1      23.100   0.297  53.107  1.00  0.00     0.023 A 
ENDROOT
BRANCH   1  13
HETATM   13  N1  UNL     1      23.838   2.060  51.400  1.00  0.00    -0.387 N 
HETATM   14  H7  UNL     1      23.904   1.401  50.592  1.00  0.00     0.159 HD
BRANCH  13  15
HETATM   15  C5  UNL     1      23.661   3.473  51.274  1.00  0.00     0.136 C 
BRANCH  15  16
HETATM   16  C4  UNL     1      24.566   4.184  50.393  1.00  0.00     0.129 A 
HETATM   17  C3  UNL     1      25.502   4.791  49.744  1.00  0.00     0.015 A 
HETATM   18 BR1  UNL     1      23.838   5.087  48.798  1.00  0.00    -0.154 Br
BRANCH  17  19
HETATM   19  C2  UNL     1      26.476   5.482  48.952  1.00  0.00     0.006 C 
HETATM   20  C1  UNL     1      27.592   4.859  48.649  1.00  0.00     0.007 C 
ENDBRANCH  17  19
ENDBRANCH  15  16
ENDBRANCH  13  15
ENDBRANCH   1  13
BRANCH  10  21
HETATM   21  O1  UNL     1      19.440   0.021  52.900  1.00  0.00    -0.356 OA
HETATM   22  C14 UNL     1      19.164   0.097  51.516  1.00  0.00     0.210 C 
ENDBRANCH  10  21
TORSDOF 5
ENDMDL
MODEL 6
REMARK VINA RESULT:      -7.1      2.656      5.725
REMARK  5 active torsions:
REMARK  status: ('A' for Active; 'I' for Inactive)
REMARK    1  A    between atoms: C2_2  and  C3_3 
REMARK    2  A    between atoms: C4_5  and  C5_6 
REMARK    3  A    between atoms: C5_6  and  N1_7 
REMARK    4  A    between atoms: N1_7  and  C6_8 
REMARK    5  A    between atoms: C13_17  and  O1_18 
ROOT
HETATM    1  C6  UNL     1      23.364   0.193  53.183  1.00  0.00     0.063 A 
HETATM    2  C7  UNL     1      23.297  -0.690  54.273  1.00  0.00     0.089 A 
HETATM    3  C8  UNL     1      24.415  -1.002  55.117  1.00  0.00     0.103 C 
HETATM    4  N2  UNL     1      25.307  -1.245  55.812  1.00  0.00    -0.191 NA
HETATM    5  C9  UNL     1      22.101  -1.332  54.607  1.00  0.00     0.142 A 
HETATM    6  N3  UNL     1      20.992  -1.109  53.882  1.00  0.00    -0.259 NA
HETATM    7  C10 UNL     1      20.993  -0.276  52.828  1.00  0.00     0.069 A 
HETATM    8  C11 UNL     1      19.915   0.019  52.046  1.00  0.00     0.035 A 
HETATM    9  C12 UNL     1      19.968   0.907  50.967  1.00  0.00     0.039 A 
HETATM   10  C13 UNL     1      21.174   1.532  50.662  1.00  0.00     0.069 A 
HETATM   11  C15 UNL     1      22.252   1.225  51.459  1.00  0.00     0.053 A 
HETATM   12  C16 UNL     1      22.176   0.347  52.514  1.00  0.00     0.023 A 
ENDROOT
BRANCH   1  13
HETATM   13  N1  UNL     1      24.659   0.731  53.021  1.00  0.00    -0.387 N 
HETATM   14  H7  UNL     1      24.650   1.336  53.873  1.00  0.00     0.159 HD
BRANCH  13  15
HETATM   15  C5  UNL     1      25.758   0.638  52.112  1.00  0.00     0.136 C 
BRANCH  15  16
HETATM   16  C4  UNL     1      27.086   0.517  52.678  1.00  0.00     0.129 A 
HETATM   17  C3  UNL     1      28.240   0.222  53.176  1.00  0.00     0.015 A 
HETATM   18 BR1  UNL     1      28.003   2.138  53.326  1.00  0.00    -0.154 Br
BRANCH  17  19
HETATM   19  C2  UNL     1      29.539  -0.009  53.735  1.00  0.00     0.006 C 
HETATM   20  C1  UNL     1      30.011  -1.234  53.733  1.00  0.00     0.007 C 
ENDBRANCH  17  19
ENDBRANCH  15  16
ENDBRANCH  13  15
ENDBRANCH   1  13
BRANCH  10  21
HETATM   21  O1  UNL     1      21.306   2.425  49.609  1.00  0.00    -0.356 OA
HETATM   22  C14 UNL     1      22.446   2.337  48.779  1.00  0.00     0.210 C 
ENDBRANCH  10  21
TORSDOF 5
ENDMDL
MODEL 7
REMARK VINA RESULT:      -7.1      2.301      3.487
REMARK  5 active torsions:
REMARK  status: ('A' for Active; 'I' for Inactive)
REMARK    1  A    between atoms: C2_2  and  C3_3 
REMARK    2  A    between atoms: C4_5  and  C5_6 
REMARK    3  A    between atoms: C5_6  and  N1_7 
REMARK    4  A    between atoms: N1_7  and  C6_8 
REMARK    5  A    between atoms: C13_17  and  O1_18 
ROOT
HETATM    1  C6  UNL     1      23.305   2.223  52.855  1.00  0.00     0.063 A 
HETATM    2  C7  UNL     1      22.126   1.513  52.576  1.00  0.00     0.089 A 
HETATM    3  C8  UNL     1      20.902   2.133  52.155  1.00  0.00     0.103 C 
HETATM    4  N2  UNL     1      19.918   2.624  51.798  1.00  0.00    -0.191 NA
HETATM    5  C9  UNL     1      22.078   0.121  52.695  1.00  0.00     0.142 A 
HETATM    6  N3  UNL     1      23.170  -0.559  53.083  1.00  0.00    -0.259 NA
HETATM    7  C10 UNL     1      24.327   0.063  53.364  1.00  0.00     0.069 A 
HETATM    8  C11 UNL     1      25.485  -0.546  53.750  1.00  0.00     0.035 A 
HETATM    9  C12 UNL     1      26.668   0.150  54.018  1.00  0.00     0.039 A 
HETATM   10  C13 UNL     1      26.683   1.535  53.887  1.00  0.00     0.069 A 
HETATM   11  C15 UNL     1      25.508   2.136  53.497  1.00  0.00     0.053 A 
HETATM   12  C16 UNL     1      24.356   1.430  53.241  1.00  0.00     0.023 A 
ENDROOT
BRANCH   1  13
HETATM   13  N1  UNL     1      23.138   3.612  52.673  1.00  0.00    -0.387 N 
HETATM   14  H7  UNL     1      22.581   3.786  53.539  1.00  0.00     0.159 HD
BRANCH  13  15
HETATM   15  C5  UNL     1      23.500   4.626  51.732  1.00  0.00     0.136 C 
BRANCH  15  16
HETATM   16  C4  UNL     1      24.603   4.345  50.836  1.00  0.00     0.129 A 
HETATM   17  C3  UNL     1      25.689   4.206  50.152  1.00  0.00     0.015 A 
HETATM   18 BR1  UNL     1      24.244   3.413  49.136  1.00  0.00    -0.154 Br
BRANCH  17  19
HETATM   19  C2  UNL     1      26.844   3.995  49.331  1.00  0.00     0.006 C 
HETATM   20  C1  UNL     1      27.349   5.021  48.685  1.00  0.00     0.007 C 
ENDBRANCH  17  19
ENDBRANCH  15  16
ENDBRANCH  13  15
ENDBRANCH   1  13
BRANCH  10  21
HETATM   21  O1  UNL     1      27.816   2.295  54.133  1.00  0.00    -0.356 OA
HETATM   22  C14 UNL     1      29.086   1.724  53.893  1.00  0.00     0.210 C 
ENDBRANCH  10  21
TORSDOF 5
ENDMDL
MODEL 8
REMARK VINA RESULT:      -7.0      2.466      3.789
REMARK  5 active torsions:
REMARK  status: ('A' for Active; 'I' for Inactive)
REMARK    1  A    between atoms: C2_2  and  C3_3 
REMARK    2  A    between atoms: C4_5  and  C5_6 
REMARK    3  A    between atoms: C5_6  and  N1_7 
REMARK    4  A    between atoms: N1_7  and  C6_8 
REMARK    5  A    between atoms: C13_17  and  O1_18 
ROOT
HETATM    1  C6  UNL     1      23.125   0.797  52.821  1.00  0.00     0.063 A 
HETATM    2  C7  UNL     1      23.359  -0.290  53.680  1.00  0.00     0.089 A 
HETATM    3  C8  UNL     1      22.326  -0.969  54.408  1.00  0.00     0.103 C 
HETATM    4  N2  UNL     1      21.497  -1.533  54.983  1.00  0.00    -0.191 NA
HETATM    5  C9  UNL     1      24.652  -0.784  53.878  1.00  0.00     0.142 A 
HETATM    6  N3  UNL     1      25.693  -0.220  53.244  1.00  0.00    -0.259 NA
HETATM    7  C10 UNL     1      25.532   0.822  52.410  1.00  0.00     0.069 A 
HETATM    8  C11 UNL     1      26.527   1.447  51.716  1.00  0.00     0.035 A 
HETATM    9  C12 UNL     1      26.302   2.520  50.849  1.00  0.00     0.039 A 
HETATM   10  C13 UNL     1      25.002   2.987  50.671  1.00  0.00     0.069 A 
HETATM   11  C15 UNL     1      24.010   2.347  51.378  1.00  0.00     0.053 A 
HETATM   12  C16 UNL     1      24.256   1.294  52.226  1.00  0.00     0.023 A 
ENDROOT
BRANCH   1  13
HETATM   13  N1  UNL     1      21.755   1.135  52.764  1.00  0.00    -0.387 N 
HETATM   14  H7  UNL     1      21.681   1.518  53.733  1.00  0.00     0.159 HD
BRANCH  13  15
HETATM   15  C5  UNL     1      20.668   1.071  51.838  1.00  0.00     0.136 C 
BRANCH  15  16
HETATM   16  C4  UNL     1      19.553   0.208  52.174  1.00  0.00     0.129 A 
HETATM   17  C3  UNL     1      18.676  -0.634  52.605  1.00  0.00     0.015 A 
HETATM   18 BR1  UNL     1      17.982   0.165  50.983  1.00  0.00    -0.154 Br
BRANCH  17  19
HETATM   19  C2  UNL     1      17.639  -1.534  53.016  1.00  0.00     0.006 C 
HETATM   20  C1  UNL     1      17.964  -2.560  53.769  1.00  0.00     0.007 C 
ENDBRANCH  17  19
ENDBRANCH  15  16
ENDBRANCH  13  15
ENDBRANCH   1  13
BRANCH  10  21
HETATM   21  O1  UNL     1      24.699   4.045  49.828  1.00  0.00    -0.356 OA
HETATM   22  C14 UNL     1      23.909   5.108  50.325  1.00  0.00     0.210 C 
ENDBRANCH  10  21
TORSDOF 5
ENDMDL
MODEL 9
REMARK VINA RESULT:      -6.9      2.425      4.242
REMARK  5 active torsions:
REMARK  status: ('A' for Active; 'I' for Inactive)
REMARK    1  A    between atoms: C2_2  and  C3_3 
REMARK    2  A    between atoms: C4_5  and  C5_6 
REMARK    3  A    between atoms: C5_6  and  N1_7 
REMARK    4  A    between atoms: N1_7  and  C6_8 
REMARK    5  A    between atoms: C13_17  and  O1_18 
ROOT
HETATM    1  C6  UNL     1      25.438   1.055  53.186  1.00  0.00     0.063 A 
HETATM    2  C7  UNL     1      26.694   0.999  53.813  1.00  0.00     0.089 A 
HETATM    3  C8  UNL     1      27.823   1.787  53.409  1.00  0.00     0.103 C 
HETATM    4  N2  UNL     1      28.732   2.431  53.101  1.00  0.00    -0.191 NA
HETATM    5  C9  UNL     1      26.919   0.147  54.898  1.00  0.00     0.142 A 
HETATM    6  N3  UNL     1      25.928  -0.635  55.358  1.00  0.00    -0.259 NA
HETATM    7  C10 UNL     1      24.705  -0.626  54.801  1.00  0.00     0.069 A 
HETATM    8  C11 UNL     1      23.639  -1.373  55.208  1.00  0.00     0.035 A 
HETATM    9  C12 UNL     1      22.381  -1.315  54.599  1.00  0.00     0.039 A 
HETATM   10  C13 UNL     1      22.189  -0.454  53.522  1.00  0.00     0.069 A 
HETATM   11  C15 UNL     1      23.273   0.293  53.123  1.00  0.00     0.053 A 
HETATM   12  C16 UNL     1      24.501   0.218  53.736  1.00  0.00     0.023 A 
ENDROOT
BRANCH   1  13
HETATM   13  N1  UNL     1      25.425   1.976  52.117  1.00  0.00    -0.387 N 
HETATM   14  H7  UNL     1      26.237   1.574  51.597  1.00  0.00     0.159 HD
BRANCH  13  15
HETATM   15  C5  UNL     1      24.681   3.118  51.688  1.00  0.00     0.136 C 
BRANCH  15  16
HETATM   16  C4  UNL     1      23.686   2.918  50.653  1.00  0.00     0.129 A 
HETATM   17  C3  UNL     1      22.749   2.587  49.830  1.00  0.00     0.015 A 
HETATM   18 BR1  UNL     1      23.768   4.019  49.019  1.00  0.00    -0.154 Br
BRANCH  17  19
HETATM   19  C2  UNL     1      21.733   2.296  48.863  1.00  0.00     0.006 C 
HETATM   20  C1  UNL     1      21.376   1.044  48.686  1.00  0.00     0.007 C 
ENDBRANCH  17  19
ENDBRANCH  15  16
ENDBRANCH  13  15
ENDBRANCH   1  13
BRANCH  10  21
HETATM   21  O1  UNL     1      20.972  -0.339  52.867  1.00  0.00    -0.356 OA
HETATM   22  C14 UNL     1      20.549   0.939  52.435  1.00  0.00     0.210 C 
ENDBRANCH  10  21
TORSDOF 5
ENDMDL
