MODEL 1
REMARK VINA RESULT:      -8.1      0.000      0.000
REMARK  5 active torsions:
REMARK  status: ('A' for Active; 'I' for Inactive)
REMARK    1  A    between atoms: C7_7  and  N1_8 
REMARK    2  A    between atoms: N1_8  and  C8_9 
REMARK    3  A    between atoms: C8_9  and  C9_10 
REMARK    4  A    between atoms: C13_14  and  O1_15 
REMARK    5  A    between atoms: C18_21  and  O2_22 
ROOT
HETATM    1  C1  UNL     1      29.201   5.499  48.102  1.00  0.00     0.018 C 
HETATM    2  C2  UNL     1      28.036   5.565  48.412  1.00  0.00    -0.078 C 
HETATM    3  C3  UNL     1      26.649   5.659  48.801  1.00  0.00     0.019 A 
HETATM    4  C4  UNL     1      25.816   6.620  48.269  1.00  0.00     0.021 A 
HETATM    5  C5  UNL     1      24.496   6.676  48.668  1.00  0.00     0.004 A 
HETATM    6  C6  UNL     1      24.055   5.756  49.597  1.00  0.00     0.029 A 
HETATM    7  C7  UNL     1      24.830   4.771  50.169  1.00  0.00     0.029 A 
HETATM    8  C20 UNL     1      26.143   4.772  49.724  1.00  0.00     0.049 A 
ENDROOT
BRANCH   7   9
HETATM    9  N1  UNL     1      24.314   3.848  51.127  1.00  0.00    -0.389 N 
HETATM   10  H5  UNL     1      24.339   4.208  52.127  1.00  0.00     0.159 HD
BRANCH   9  11
HETATM   11  C8  UNL     1      23.848   2.578  50.527  1.00  0.00     0.134 C 
BRANCH  11  12
HETATM   12  C9  UNL     1      23.721   1.624  51.624  1.00  0.00     0.032 A 
HETATM   13  C10 UNL     1      24.937   1.314  51.781  1.00  0.00     0.037 A 
HETATM   14  C11 UNL     1      25.692   0.674  52.384  1.00  0.00     0.076 A 
HETATM   15  C16 UNL     1      24.483   0.202  53.106  1.00  0.00     0.092 A 
HETATM   16  C12 UNL     1      26.259   0.171  52.863  1.00  0.00    -0.136 A 
HETATM   17  C13 UNL     1      27.024  -0.541  53.545  1.00  0.00     0.195 A 
HETATM   18  C15 UNL     1      25.208  -0.802  54.126  1.00  0.00     0.068 A 
HETATM   19  N2  UNL     1      23.067  -0.112  53.688  1.00  0.00    -0.289 NA
HETATM   20  C17 UNL     1      22.121   0.530  53.116  1.00  0.00     0.117 A 
HETATM   21  C18 UNL     1      22.281   1.498  52.001  1.00  0.00     0.172 A 
BRANCH  17  22
HETATM   22  O1  UNL     1      27.410  -0.130  54.821  1.00  0.00    -0.379 OA
HETATM   23  C14 UNL     1      28.750   0.253  54.734  1.00  0.00     0.203 C 
ENDBRANCH  17  22
BRANCH  21  24
HETATM   24  O2  UNL     1      21.839   2.769  52.404  1.00  0.00    -0.385 OA
HETATM   25  C19 UNL     1      20.474   2.882  52.485  1.00  0.00     0.202 C 
ENDBRANCH  21  24
ENDBRANCH  11  12
ENDBRANCH   9  11
ENDBRANCH   7   9
TORSDOF 5
ENDMDL
MODEL 2
REMARK VINA RESULT:      -7.8      2.724      7.575
REMARK  5 active torsions:
REMARK  status: ('A' for Active; 'I' for Inactive)
REMARK    1  A    between atoms: C7_7  and  N1_8 
REMARK    2  A    between atoms: N1_8  and  C8_9 
REMARK    3  A    between atoms: C8_9  and  C9_10 
REMARK    4  A    between atoms: C13_14  and  O1_15 
REMARK    5  A    between atoms: C18_21  and  O2_22 
ROOT
HETATM    1  C1  UNL     1      22.461  -0.901  54.357  1.00  0.00     0.018 C 
HETATM    2  C2  UNL     1      23.454  -0.522  53.785  1.00  0.00    -0.078 C 
HETATM    3  C3  UNL     1      24.650  -0.060  53.122  1.00  0.00     0.019 A 
HETATM    4  C4  UNL     1      25.756  -0.872  52.984  1.00  0.00     0.021 A 
HETATM    5  C5  UNL     1      26.880  -0.391  52.344  1.00  0.00     0.004 A 
HETATM    6  C6  UNL     1      26.854   0.900  51.860  1.00  0.00     0.029 A 
HETATM    7  C7  UNL     1      25.787   1.766  51.962  1.00  0.00     0.029 A 
HETATM    8  C20 UNL     1      24.693   1.220  52.616  1.00  0.00     0.049 A 
ENDROOT
BRANCH   7   9
HETATM    9  N1  UNL     1      25.822   3.094  51.441  1.00  0.00    -0.389 N 
HETATM   10  H5  UNL     1      25.384   3.819  52.084  1.00  0.00     0.159 HD
BRANCH   9  11
HETATM   11  C8  UNL     1      26.466   3.186  50.112  1.00  0.00     0.134 C 
BRANCH  11  12
HETATM   12  C9  UNL     1      25.938   4.391  49.480  1.00  0.00     0.032 A 
HETATM   13  C10 UNL     1      27.022   4.938  49.123  1.00  0.00     0.037 A 
HETATM   14  C11 UNL     1      27.506   5.850  48.598  1.00  0.00     0.076 A 
HETATM   15  C16 UNL     1      26.104   6.305  48.426  1.00  0.00     0.092 A 
HETATM   16  C12 UNL     1      27.862   6.564  48.188  1.00  0.00    -0.136 A 
HETATM   17  C13 UNL     1      28.326   7.570  47.612  1.00  0.00     0.195 A 
HETATM   18  C15 UNL     1      26.405   7.680  47.657  1.00  0.00     0.068 A 
HETATM   19  N2  UNL     1      24.559   6.534  48.383  1.00  0.00    -0.289 NA
HETATM   20  C17 UNL     1      23.883   5.597  48.930  1.00  0.00     0.117 A 
HETATM   21  C18 UNL     1      24.447   4.378  49.564  1.00  0.00     0.172 A 
BRANCH  17  22
HETATM   22  O1  UNL     1      28.333   7.638  46.220  1.00  0.00    -0.379 OA
HETATM   23  C14 UNL     1      29.627   7.997  45.839  1.00  0.00     0.203 C 
ENDBRANCH  17  22
BRANCH  21  24
HETATM   24  O2  UNL     1      23.999   3.233  48.883  1.00  0.00    -0.385 OA
HETATM   25  C19 UNL     1      22.779   2.775  49.313  1.00  0.00     0.202 C 
ENDBRANCH  21  24
ENDBRANCH  11  12
ENDBRANCH   9  11
ENDBRANCH   7   9
TORSDOF 5
ENDMDL
MODEL 3
REMARK VINA RESULT:      -7.5      2.742      7.028
REMARK  5 active torsions:
REMARK  status: ('A' for Active; 'I' for Inactive)
REMARK    1  A    between atoms: C7_7  and  N1_8 
REMARK    2  A    between atoms: N1_8  and  C8_9 
REMARK    3  A    between atoms: C8_9  and  C9_10 
REMARK    4  A    between atoms: C13_14  and  O1_15 
REMARK    5  A    between atoms: C18_21  and  O2_22 
ROOT
HETATM    1  C1  UNL     1      22.382  -0.889  54.063  1.00  0.00     0.018 C 
HETATM    2  C2  UNL     1      23.370  -0.408  53.563  1.00  0.00    -0.078 C 
HETATM    3  C3  UNL     1      24.557   0.176  52.986  1.00  0.00     0.019 A 
HETATM    4  C4  UNL     1      25.730  -0.540  52.874  1.00  0.00     0.021 A 
HETATM    5  C5  UNL     1      26.843   0.056  52.316  1.00  0.00     0.004 A 
HETATM    6  C6  UNL     1      26.738   1.363  51.887  1.00  0.00     0.029 A 
HETATM    7  C7  UNL     1      25.601   2.137  51.967  1.00  0.00     0.029 A 
HETATM    8  C20 UNL     1      24.522   1.477  52.536  1.00  0.00     0.049 A 
ENDROOT
BRANCH   7   9
HETATM    9  N1  UNL     1      25.556   3.486  51.505  1.00  0.00    -0.389 N 
HETATM   10  H5  UNL     1      25.204   4.177  52.232  1.00  0.00     0.159 HD
BRANCH   9  11
HETATM   11  C8  UNL     1      26.011   3.643  50.106  1.00  0.00     0.134 C 
BRANCH  11  12
HETATM   12  C9  UNL     1      24.892   4.221  49.369  1.00  0.00     0.032 A 
HETATM   13  C10 UNL     1      24.138   3.208  49.295  1.00  0.00     0.037 A 
HETATM   14  C11 UNL     1      23.126   2.794  48.911  1.00  0.00     0.076 A 
HETATM   15  C16 UNL     1      22.930   4.172  48.395  1.00  0.00     0.092 A 
HETATM   16  C12 UNL     1      22.338   2.492  48.606  1.00  0.00    -0.136 A 
HETATM   17  C13 UNL     1      21.236   2.103  48.169  1.00  0.00     0.195 A 
HETATM   18  C15 UNL     1      21.485   3.961  47.732  1.00  0.00     0.068 A 
HETATM   19  N2  UNL     1      22.985   5.675  47.971  1.00  0.00    -0.289 NA
HETATM   20  C17 UNL     1      24.057   6.273  48.332  1.00  0.00     0.117 A 
HETATM   21  C18 UNL     1      25.181   5.658  49.084  1.00  0.00     0.172 A 
BRANCH  17  22
HETATM   22  O1  UNL     1      20.065   2.388  48.871  1.00  0.00    -0.379 OA
HETATM   23  C14 UNL     1      19.825   1.303  49.715  1.00  0.00     0.203 C 
ENDBRANCH  17  22
BRANCH  21  24
HETATM   24  O2  UNL     1      25.339   6.307  50.321  1.00  0.00    -0.385 OA
HETATM   25  C19 UNL     1      25.889   7.560  50.223  1.00  0.00     0.202 C 
ENDBRANCH  21  24
ENDBRANCH  11  12
ENDBRANCH   9  11
ENDBRANCH   7   9
TORSDOF 5
ENDMDL
MODEL 4
REMARK VINA RESULT:      -7.3      1.712      4.579
REMARK  5 active torsions:
REMARK  status: ('A' for Active; 'I' for Inactive)
REMARK    1  A    between atoms: C7_7  and  N1_8 
REMARK    2  A    between atoms: N1_8  and  C8_9 
REMARK    3  A    between atoms: C8_9  and  C9_10 
REMARK    4  A    between atoms: C13_14  and  O1_15 
REMARK    5  A    between atoms: C18_21  and  O2_22 
ROOT
HETATM    1  C1  UNL     1      24.287   8.190  48.388  1.00  0.00     0.018 C 
HETATM    2  C2  UNL     1      24.828   7.147  48.661  1.00  0.00    -0.078 C 
HETATM    3  C3  UNL     1      25.466   5.888  48.966  1.00  0.00     0.019 A 
HETATM    4  C4  UNL     1      26.777   5.642  48.616  1.00  0.00     0.021 A 
HETATM    5  C5  UNL     1      27.349   4.425  48.926  1.00  0.00     0.004 A 
HETATM    6  C6  UNL     1      26.578   3.489  49.583  1.00  0.00     0.029 A 
HETATM    7  C7  UNL     1      25.266   3.666  49.963  1.00  0.00     0.029 A 
HETATM    8  C20 UNL     1      24.754   4.908  49.621  1.00  0.00     0.049 A 
ENDROOT
BRANCH   7   9
HETATM    9  N1  UNL     1      24.520   2.656  50.641  1.00  0.00    -0.389 N 
HETATM   10  H5  UNL     1      24.075   1.942  49.991  1.00  0.00     0.159 HD
BRANCH   9  11
HETATM   11  C8  UNL     1      24.522   2.813  52.112  1.00  0.00     0.134 C 
BRANCH  11  12
HETATM   12  C9  UNL     1      23.947   1.588  52.660  1.00  0.00     0.032 A 
HETATM   13  C10 UNL     1      22.721   1.815  52.449  1.00  0.00     0.037 A 
HETATM   14  C11 UNL     1      21.640   1.410  52.555  1.00  0.00     0.076 A 
HETATM   15  C16 UNL     1      22.303   0.238  53.181  1.00  0.00     0.092 A 
HETATM   16  C12 UNL     1      20.812   1.079  52.648  1.00  0.00    -0.136 A 
HETATM   17  C13 UNL     1      19.671   0.591  52.790  1.00  0.00     0.195 A 
HETATM   18  C15 UNL     1      20.988  -0.626  53.492  1.00  0.00     0.068 A 
HETATM   19  N2  UNL     1      23.248  -0.849  53.787  1.00  0.00    -0.289 NA
HETATM   20  C17 UNL     1      24.488  -0.539  53.737  1.00  0.00     0.117 A 
HETATM   21  C18 UNL     1      25.046   0.715  53.171  1.00  0.00     0.172 A 
BRANCH  17  22
HETATM   22  O1  UNL     1      19.206  -0.372  51.896  1.00  0.00    -0.379 OA
HETATM   23  C14 UNL     1      18.407   0.293  50.965  1.00  0.00     0.203 C 
ENDBRANCH  17  22
BRANCH  21  24
HETATM   24  O2  UNL     1      25.886   0.418  52.084  1.00  0.00    -0.385 OA
HETATM   25  C19 UNL     1      27.060  -0.194  52.443  1.00  0.00     0.202 C 
ENDBRANCH  21  24
ENDBRANCH  11  12
ENDBRANCH   9  11
ENDBRANCH   7   9
TORSDOF 5
ENDMDL
MODEL 5
REMARK VINA RESULT:      -7.2      1.605      2.108
REMARK  5 active torsions:
REMARK  status: ('A' for Active; 'I' for Inactive)
REMARK    1  A    between atoms: C7_7  and  N1_8 
REMARK    2  A    between atoms: N1_8  and  C8_9 
REMARK    3  A    between atoms: C8_9  and  C9_10 
REMARK    4  A    between atoms: C13_14  and  O1_15 
REMARK    5  A    between atoms: C18_21  and  O2_22 
ROOT
HETATM    1  C1  UNL     1      23.405   7.265  46.000  1.00  0.00     0.018 C 
HETATM    2  C2  UNL     1      23.594   7.153  47.186  1.00  0.00    -0.078 C 
HETATM    3  C3  UNL     1      23.845   7.025  48.602  1.00  0.00     0.019 A 
HETATM    4  C4  UNL     1      23.652   8.082  49.466  1.00  0.00     0.021 A 
HETATM    5  C5  UNL     1      23.904   7.917  50.813  1.00  0.00     0.004 A 
HETATM    6  C6  UNL     1      24.345   6.685  51.250  1.00  0.00     0.029 A 
HETATM    7  C7  UNL     1      24.559   5.587  50.445  1.00  0.00     0.029 A 
HETATM    8  C20 UNL     1      24.287   5.822  49.106  1.00  0.00     0.049 A 
ENDROOT
BRANCH   7   9
HETATM    9  N1  UNL     1      25.017   4.337  50.958  1.00  0.00    -0.389 N 
HETATM   10  H5  UNL     1      25.680   4.430  51.785  1.00  0.00     0.159 HD
BRANCH   9  11
HETATM   11  C8  UNL     1      24.472   3.169  50.231  1.00  0.00     0.134 C 
BRANCH  11  12
HETATM   12  C9  UNL     1      24.133   2.174  51.244  1.00  0.00     0.032 A 
HETATM   13  C10 UNL     1      25.287   1.720  51.493  1.00  0.00     0.037 A 
HETATM   14  C11 UNL     1      25.904   0.966  52.120  1.00  0.00     0.076 A 
HETATM   15  C16 UNL     1      24.586   0.592  52.690  1.00  0.00     0.092 A 
HETATM   16  C12 UNL     1      26.364   0.375  52.614  1.00  0.00    -0.136 A 
HETATM   17  C13 UNL     1      26.976  -0.457  53.315  1.00  0.00     0.195 A 
HETATM   18  C15 UNL     1      25.092  -0.545  53.702  1.00  0.00     0.068 A 
HETATM   19  N2  UNL     1      23.093   0.405  53.112  1.00  0.00    -0.289 NA
HETATM   20  C17 UNL     1      22.283   1.182  52.498  1.00  0.00     0.117 A 
HETATM   21  C18 UNL     1      22.657   2.189  51.472  1.00  0.00     0.172 A 
BRANCH  17  22
HETATM   22  O1  UNL     1      27.271  -0.166  54.647  1.00  0.00    -0.379 OA
HETATM   23  C14 UNL     1      28.655   0.001  54.726  1.00  0.00     0.203 C 
ENDBRANCH  17  22
BRANCH  21  24
HETATM   24  O2  UNL     1      22.314   3.476  51.918  1.00  0.00    -0.385 OA
HETATM   25  C19 UNL     1      20.991   3.613  52.252  1.00  0.00     0.202 C 
ENDBRANCH  21  24
ENDBRANCH  11  12
ENDBRANCH   9  11
ENDBRANCH   7   9
TORSDOF 5
ENDMDL
MODEL 6
REMARK VINA RESULT:      -7.1      3.282      6.237
REMARK  5 active torsions:
REMARK  status: ('A' for Active; 'I' for Inactive)
REMARK    1  A    between atoms: C7_7  and  N1_8 
REMARK    2  A    between atoms: N1_8  and  C8_9 
REMARK    3  A    between atoms: C8_9  and  C9_10 
REMARK    4  A    between atoms: C13_14  and  O1_15 
REMARK    5  A    between atoms: C18_21  and  O2_22 
ROOT
HETATM    1  C1  UNL     1      29.119  -2.683  53.236  1.00  0.00     0.018 C 
HETATM    2  C2  UNL     1      28.766  -1.531  53.295  1.00  0.00    -0.078 C 
HETATM    3  C3  UNL     1      28.336  -0.155  53.389  1.00  0.00     0.019 A 
HETATM    4  C4  UNL     1      29.225   0.857  53.681  1.00  0.00     0.021 A 
HETATM    5  C5  UNL     1      28.774   2.159  53.762  1.00  0.00     0.004 A 
HETATM    6  C6  UNL     1      27.433   2.400  53.546  1.00  0.00     0.029 A 
HETATM    7  C7  UNL     1      26.490   1.440  53.251  1.00  0.00     0.029 A 
HETATM    8  C20 UNL     1      27.011   0.156  53.185  1.00  0.00     0.049 A 
ENDROOT
BRANCH   7   9
HETATM    9  N1  UNL     1      25.114   1.753  53.039  1.00  0.00    -0.389 N 
HETATM   10  H5  UNL     1      24.891   2.789  53.131  1.00  0.00     0.159 HD
BRANCH   9  11
HETATM   11  C8  UNL     1      24.283   0.568  52.731  1.00  0.00     0.134 C 
BRANCH  11  12
HETATM   12  C9  UNL     1      22.986   1.075  52.294  1.00  0.00     0.032 A 
HETATM   13  C10 UNL     1      23.329   1.639  51.215  1.00  0.00     0.037 A 
HETATM   14  C11 UNL     1      22.969   2.246  50.296  1.00  0.00     0.076 A 
HETATM   15  C16 UNL     1      21.634   2.134  50.934  1.00  0.00     0.092 A 
HETATM   16  C12 UNL     1      22.670   2.715  49.592  1.00  0.00    -0.136 A 
HETATM   17  C13 UNL     1      22.225   3.367  48.625  1.00  0.00     0.195 A 
HETATM   18  C15 UNL     1      20.790   2.941  49.835  1.00  0.00     0.068 A 
HETATM   19  N2  UNL     1      20.370   1.865  51.813  1.00  0.00    -0.289 NA
HETATM   20  C17 UNL     1      20.614   1.195  52.875  1.00  0.00     0.117 A 
HETATM   21  C18 UNL     1      21.946   0.689  53.294  1.00  0.00     0.172 A 
BRANCH  17  22
HETATM   22  O1  UNL     1      21.583   2.710  47.576  1.00  0.00    -0.379 OA
HETATM   23  C14 UNL     1      21.842   3.447  46.419  1.00  0.00     0.203 C 
ENDBRANCH  17  22
BRANCH  21  24
HETATM   24  O2  UNL     1      21.926  -0.714  53.358  1.00  0.00    -0.385 OA
HETATM   25  C19 UNL     1      21.322  -1.209  54.486  1.00  0.00     0.202 C 
ENDBRANCH  21  24
ENDBRANCH  11  12
ENDBRANCH   9  11
ENDBRANCH   7   9
TORSDOF 5
ENDMDL
MODEL 7
REMARK VINA RESULT:      -6.9      2.417      7.633
REMARK  5 active torsions:
REMARK  status: ('A' for Active; 'I' for Inactive)
REMARK    1  A    between atoms: C7_7  and  N1_8 
REMARK    2  A    between atoms: N1_8  and  C8_9 
REMARK    3  A    between atoms: C8_9  and  C9_10 
REMARK    4  A    between atoms: C13_14  and  O1_15 
REMARK    5  A    between atoms: C18_21  and  O2_22 
ROOT
HETATM    1  C1  UNL     1      18.508   0.103  51.875  1.00  0.00     0.018 C 
HETATM    2  C2  UNL     1      19.542  -0.145  52.447  1.00  0.00    -0.078 C 
HETATM    3  C3  UNL     1      20.774  -0.422  53.147  1.00  0.00     0.019 A 
HETATM    4  C4  UNL     1      20.826  -1.338  54.176  1.00  0.00     0.021 A 
HETATM    5  C5  UNL     1      22.024  -1.574  54.820  1.00  0.00     0.004 A 
HETATM    6  C6  UNL     1      23.138  -0.875  54.404  1.00  0.00     0.029 A 
HETATM    7  C7  UNL     1      23.159   0.053  53.386  1.00  0.00     0.029 A 
HETATM    8  C20 UNL     1      21.924   0.241  52.783  1.00  0.00     0.049 A 
ENDROOT
BRANCH   7   9
HETATM    9  N1  UNL     1      24.346   0.746  53.002  1.00  0.00    -0.389 N 
HETATM   10  H5  UNL     1      25.125   0.107  52.663  1.00  0.00     0.159 HD
BRANCH   9  11
HETATM   11  C8  UNL     1      24.244   2.214  53.154  1.00  0.00     0.134 C 
BRANCH  11  12
HETATM   12  C9  UNL     1      24.730   2.794  51.906  1.00  0.00     0.032 A 
HETATM   13  C10 UNL     1      23.766   3.568  51.639  1.00  0.00     0.037 A 
HETATM   14  C11 UNL     1      23.343   4.348  50.894  1.00  0.00     0.076 A 
HETATM   15  C16 UNL     1      24.604   4.100  50.151  1.00  0.00     0.092 A 
HETATM   16  C12 UNL     1      23.033   4.950  50.305  1.00  0.00    -0.136 A 
HETATM   17  C13 UNL     1      22.629   5.783  49.468  1.00  0.00     0.195 A 
HETATM   18  C15 UNL     1      24.351   5.110  48.932  1.00  0.00     0.068 A 
HETATM   19  N2  UNL     1      25.991   3.652  49.587  1.00  0.00    -0.289 NA
HETATM   20  C17 UNL     1      26.586   2.782  50.313  1.00  0.00     0.117 A 
HETATM   21  C18 UNL     1      26.067   2.211  51.582  1.00  0.00     0.172 A 
BRANCH  17  22
HETATM   22  O1  UNL     1      23.111   7.092  49.496  1.00  0.00    -0.379 OA
HETATM   23  C14 UNL     1      22.190   7.846  50.225  1.00  0.00     0.203 C 
ENDBRANCH  17  22
BRANCH  21  24
HETATM   24  O2  UNL     1      26.933   2.533  52.641  1.00  0.00    -0.385 OA
HETATM   25  C19 UNL     1      27.880   1.574  52.894  1.00  0.00     0.202 C 
ENDBRANCH  21  24
ENDBRANCH  11  12
ENDBRANCH   9  11
ENDBRANCH   7   9
TORSDOF 5
ENDMDL
MODEL 8
REMARK VINA RESULT:      -6.9      2.645      7.065
REMARK  5 active torsions:
REMARK  status: ('A' for Active; 'I' for Inactive)
REMARK    1  A    between atoms: C7_7  and  N1_8 
REMARK    2  A    between atoms: N1_8  and  C8_9 
REMARK    3  A    between atoms: C8_9  and  C9_10 
REMARK    4  A    between atoms: C13_14  and  O1_15 
REMARK    5  A    between atoms: C18_21  and  O2_22 
ROOT
HETATM    1  C1  UNL     1      27.351   0.132  54.616  1.00  0.00     0.018 C 
HETATM    2  C2  UNL     1      26.273   0.285  54.095  1.00  0.00    -0.078 C 
HETATM    3  C3  UNL     1      24.990   0.454  53.454  1.00  0.00     0.019 A 
HETATM    4  C4  UNL     1      23.918  -0.355  53.765  1.00  0.00     0.021 A 
HETATM    5  C5  UNL     1      22.709  -0.161  53.129  1.00  0.00     0.004 A 
HETATM    6  C6  UNL     1      22.618   0.849  52.193  1.00  0.00     0.029 A 
HETATM    7  C7  UNL     1      23.645   1.693  51.833  1.00  0.00     0.029 A 
HETATM    8  C20 UNL     1      24.829   1.443  52.510  1.00  0.00     0.049 A 
ENDROOT
BRANCH   7   9
HETATM    9  N1  UNL     1      23.488   2.721  50.855  1.00  0.00    -0.389 N 
HETATM   10  H5  UNL     1      22.518   3.155  50.841  1.00  0.00     0.159 HD
BRANCH   9  11
HETATM   11  C8  UNL     1      24.714   2.970  50.064  1.00  0.00     0.134 C 
BRANCH  11  12
HETATM   12  C9  UNL     1      24.486   4.209  49.328  1.00  0.00     0.032 A 
HETATM   13  C10 UNL     1      25.644   4.712  49.391  1.00  0.00     0.037 A 
HETATM   14  C11 UNL     1      26.315   5.611  49.099  1.00  0.00     0.076 A 
HETATM   15  C16 UNL     1      25.079   6.132  48.462  1.00  0.00     0.092 A 
HETATM   16  C12 UNL     1      26.817   6.316  48.863  1.00  0.00    -0.136 A 
HETATM   17  C13 UNL     1      27.490   7.310  48.520  1.00  0.00     0.195 A 
HETATM   18  C15 UNL     1      25.680   7.506  47.893  1.00  0.00     0.068 A 
HETATM   19  N2  UNL     1      23.657   6.432  47.887  1.00  0.00    -0.289 NA
HETATM   20  C17 UNL     1      22.799   5.515  48.133  1.00  0.00     0.117 A 
HETATM   21  C18 UNL     1      23.061   4.261  48.884  1.00  0.00     0.172 A 
BRANCH  17  22
HETATM   22  O1  UNL     1      27.988   7.403  47.221  1.00  0.00    -0.379 OA
HETATM   23  C14 UNL     1      29.323   7.001  47.270  1.00  0.00     0.203 C 
ENDBRANCH  17  22
BRANCH  21  24
HETATM   24  O2  UNL     1      22.839   3.150  48.052  1.00  0.00    -0.385 OA
HETATM   25  C19 UNL     1      21.972   3.397  47.017  1.00  0.00     0.202 C 
ENDBRANCH  21  24
ENDBRANCH  11  12
ENDBRANCH   9  11
ENDBRANCH   7   9
TORSDOF 5
ENDMDL
MODEL 9
REMARK VINA RESULT:      -6.8      2.055      3.030
REMARK  5 active torsions:
REMARK  status: ('A' for Active; 'I' for Inactive)
REMARK    1  A    between atoms: C7_7  and  N1_8 
REMARK    2  A    between atoms: N1_8  and  C8_9 
REMARK    3  A    between atoms: C8_9  and  C9_10 
REMARK    4  A    between atoms: C13_14  and  O1_15 
REMARK    5  A    between atoms: C18_21  and  O2_22 
ROOT
HETATM    1  C1  UNL     1      20.191   5.041  44.911  1.00  0.00     0.018 C 
HETATM    2  C2  UNL     1      21.027   5.075  45.781  1.00  0.00    -0.078 C 
HETATM    3  C3  UNL     1      22.044   5.103  46.806  1.00  0.00     0.019 A 
HETATM    4  C4  UNL     1      22.875   6.192  46.964  1.00  0.00     0.021 A 
HETATM    5  C5  UNL     1      23.834   6.179  47.956  1.00  0.00     0.004 A 
HETATM    6  C6  UNL     1      23.926   5.063  48.762  1.00  0.00     0.029 A 
HETATM    7  C7  UNL     1      23.131   3.943  48.661  1.00  0.00     0.029 A 
HETATM    8  C20 UNL     1      22.191   4.022  47.645  1.00  0.00     0.049 A 
ENDROOT
BRANCH   7   9
HETATM    9  N1  UNL     1      23.276   2.817  49.526  1.00  0.00    -0.389 N 
HETATM   10  H5  UNL     1      22.609   2.019  49.307  1.00  0.00     0.159 HD
BRANCH   9  11
HETATM   11  C8  UNL     1      24.331   2.994  50.548  1.00  0.00     0.134 C 
BRANCH  11  12
HETATM   12  C9  UNL     1      24.078   1.994  51.581  1.00  0.00     0.032 A 
HETATM   13  C10 UNL     1      25.254   1.562  51.753  1.00  0.00     0.037 A 
HETATM   14  C11 UNL     1      25.925   0.819  52.337  1.00  0.00     0.076 A 
HETATM   15  C16 UNL     1      24.654   0.422  52.994  1.00  0.00     0.092 A 
HETATM   16  C12 UNL     1      26.427   0.237  52.800  1.00  0.00    -0.136 A 
HETATM   17  C13 UNL     1      27.098  -0.583  53.459  1.00  0.00     0.195 A 
HETATM   18  C15 UNL     1      25.246  -0.704  53.970  1.00  0.00     0.068 A 
HETATM   19  N2  UNL     1      23.196   0.209  53.514  1.00  0.00    -0.289 NA
HETATM   20  C17 UNL     1      22.333   0.971  52.955  1.00  0.00     0.117 A 
HETATM   21  C18 UNL     1      22.621   1.983  51.907  1.00  0.00     0.172 A 
BRANCH  17  22
HETATM   22  O1  UNL     1      27.477  -0.286  54.768  1.00  0.00    -0.379 OA
HETATM   23  C14 UNL     1      28.733   0.318  54.698  1.00  0.00     0.203 C 
ENDBRANCH  17  22
BRANCH  21  24
HETATM   24  O2  UNL     1      22.285   3.265  52.375  1.00  0.00    -0.385 OA
HETATM   25  C19 UNL     1      20.941   3.538  52.329  1.00  0.00     0.202 C 
ENDBRANCH  21  24
ENDBRANCH  11  12
ENDBRANCH   9  11
ENDBRANCH   7   9
TORSDOF 5
ENDMDL
