MODEL 1
REMARK VINA RESULT:      -8.9      0.000      0.000
REMARK  8 active torsions:
REMARK  status: ('A' for Active; 'I' for Inactive)
REMARK    1  A    between atoms: N1_8  and  C7_9 
REMARK    2  A    between atoms: C9_11  and  C10_12 
REMARK    3  A    between atoms: N2_13  and  C11_14 
REMARK    4  A    between atoms: C11_14  and  N3_15 
REMARK       I    between atoms: N3_15  and  C12_16 
REMARK    5  A    between atoms: C12_16  and  C13_18 
REMARK    6  A    between atoms: C14_19  and  C15_20 
REMARK    7  A    between atoms: C15_20  and  C16_21 
REMARK    8  A    between atoms: C16_21  and  N4_22 
ROOT
HETATM    1  C10 UNL     1      25.002   3.377  50.176  1.00  0.00     0.144 C 
HETATM    2  N2  UNL     1      26.091   4.064  50.126  1.00  0.00    -0.280 NA
ENDROOT
BRANCH   2   3
HETATM    3  C11 UNL     1      26.271   5.131  49.164  1.00  0.00     0.273 C 
BRANCH   3   4
HETATM    4  N3  UNL     1      27.652   5.317  48.771  1.00  0.00    -0.332 N 
HETATM    5  C12 UNL     1      28.049   6.445  48.003  1.00  0.00     0.297 C 
HETATM    6  O1  UNL     1      27.243   7.335  47.625  1.00  0.00    -0.258 OA
HETATM    7  H10 UNL     1      28.371   4.613  49.053  1.00  0.00     0.165 HD
BRANCH   5   8
HETATM    8  C13 UNL     1      29.441   6.553  47.655  1.00  0.00    -0.006 C 
HETATM    9  C14 UNL     1      30.628   6.650  47.379  1.00  0.00    -0.095 C 
BRANCH   9  10
HETATM   10  C15 UNL     1      32.042   6.747  47.068  1.00  0.00     0.124 C 
BRANCH  10  11
HETATM   11  C16 UNL     1      32.786   5.527  47.485  1.00  0.00     0.284 C 
BRANCH  11  12
HETATM   12  N4  UNL     1      32.409   4.314  46.819  1.00  0.00     0.089 N 
HETATM   13  C17 UNL     1      32.920   4.220  45.469  1.00  0.00     0.272 C 
HETATM   14  C18 UNL     1      34.429   4.317  45.425  1.00  0.00     0.030 C 
HETATM   15  C19 UNL     1      35.074   3.260  46.285  1.00  0.00     0.003 C 
HETATM   16  C20 UNL     1      34.448   3.240  47.658  1.00  0.00     0.030 C 
HETATM   17  C21 UNL     1      32.941   3.188  47.562  1.00  0.00     0.272 C 
ENDBRANCH  11  12
ENDBRANCH  10  11
ENDBRANCH   9  10
ENDBRANCH   5   8
ENDBRANCH   3   4
ENDBRANCH   2   3
BRANCH   1  18
HETATM   18  C9  UNL     1      25.009   2.333  51.222  1.00  0.00     0.079 A 
HETATM   19  C8  UNL     1      26.199   1.701  51.586  1.00  0.00     0.084 A 
HETATM   20  C7  UNL     1      26.244   0.720  52.559  1.00  0.00     0.138 A 
HETATM   21  N6  UNL     1      25.086   0.374  53.169  1.00  0.00    -0.224 NA
HETATM   22  C22 UNL     1      23.952   1.007  52.793  1.00  0.00     0.236 A 
HETATM   23  N5  UNL     1      23.884   1.958  51.854  1.00  0.00    -0.241 NA
BRANCH  20  24
HETATM   24  N1  UNL     1      27.436   0.059  52.951  1.00  0.00    -0.305 N 
HETATM   25  C2  UNL     1      27.759  -1.324  52.939  1.00  0.00     0.069 A 
HETATM   26  C1  UNL     1      26.782  -2.086  52.490  1.00  0.00     0.047 C 
HETATM   27  C3  UNL     1      29.037  -1.812  53.380  1.00  0.00     0.142 A 
HETATM   28  F1  UNL     1      29.302  -3.122  53.353  1.00  0.00    -0.204 F 
HETATM   29  C4  UNL     1      29.887  -0.885  53.796  1.00  0.00     0.046 A 
HETATM   30  C5  UNL     1      29.639   0.549  53.842  1.00  0.00     0.021 A 
HETATM   31  C6  UNL     1      28.441   0.979  53.425  1.00  0.00     0.099 A 
ENDBRANCH  20  24
ENDBRANCH   1  18
TORSDOF 8
ENDMDL
MODEL 2
REMARK VINA RESULT:      -8.8      0.726      1.413
REMARK  8 active torsions:
REMARK  status: ('A' for Active; 'I' for Inactive)
REMARK    1  A    between atoms: N1_8  and  C7_9 
REMARK    2  A    between atoms: C9_11  and  C10_12 
REMARK    3  A    between atoms: N2_13  and  C11_14 
REMARK    4  A    between atoms: C11_14  and  N3_15 
REMARK       I    between atoms: N3_15  and  C12_16 
REMARK    5  A    between atoms: C12_16  and  C13_18 
REMARK    6  A    between atoms: C14_19  and  C15_20 
REMARK    7  A    between atoms: C15_20  and  C16_21 
REMARK    8  A    between atoms: C16_21  and  N4_22 
ROOT
HETATM    1  C10 UNL     1      25.136   3.611  50.284  1.00  0.00     0.144 C 
HETATM    2  N2  UNL     1      26.330   4.030  50.041  1.00  0.00    -0.280 NA
ENDROOT
BRANCH   2   3
HETATM    3  C11 UNL     1      26.594   5.009  49.007  1.00  0.00     0.273 C 
BRANCH   3   4
HETATM    4  N3  UNL     1      28.006   5.265  48.812  1.00  0.00    -0.332 N 
HETATM    5  C12 UNL     1      28.452   6.429  48.131  1.00  0.00     0.297 C 
HETATM    6  O1  UNL     1      27.666   7.294  47.665  1.00  0.00    -0.258 OA
HETATM    7  H10 UNL     1      28.712   4.584  49.175  1.00  0.00     0.165 HD
BRANCH   5   8
HETATM    8  C13 UNL     1      29.872   6.606  47.980  1.00  0.00    -0.006 C 
HETATM    9  C14 UNL     1      31.077   6.748  47.833  1.00  0.00    -0.095 C 
BRANCH   9  10
HETATM   10  C15 UNL     1      32.504   6.934  47.639  1.00  0.00     0.124 C 
BRANCH  10  11
HETATM   11  C16 UNL     1      33.250   5.651  47.762  1.00  0.00     0.284 C 
BRANCH  11  12
HETATM   12  N4  UNL     1      32.658   4.524  47.102  1.00  0.00     0.089 N 
HETATM   13  C17 UNL     1      32.920   4.491  45.681  1.00  0.00     0.272 C 
HETATM   14  C18 UNL     1      34.401   4.472  45.377  1.00  0.00     0.030 C 
HETATM   15  C19 UNL     1      35.086   3.307  46.044  1.00  0.00     0.003 C 
HETATM   16  C20 UNL     1      34.704   3.235  47.503  1.00  0.00     0.030 C 
HETATM   17  C21 UNL     1      33.204   3.308  47.671  1.00  0.00     0.272 C 
ENDBRANCH  11  12
ENDBRANCH  10  11
ENDBRANCH   9  10
ENDBRANCH   5   8
ENDBRANCH   3   4
ENDBRANCH   2   3
BRANCH   1  18
HETATM   18  C9  UNL     1      25.069   2.615  51.373  1.00  0.00     0.079 A 
HETATM   19  C8  UNL     1      26.114   1.711  51.573  1.00  0.00     0.084 A 
HETATM   20  C7  UNL     1      26.086   0.764  52.580  1.00  0.00     0.138 A 
HETATM   21  N6  UNL     1      25.003   0.727  53.390  1.00  0.00    -0.224 NA
HETATM   22  C22 UNL     1      24.010   1.618  53.169  1.00  0.00     0.236 A 
HETATM   23  N5  UNL     1      24.014   2.542  52.201  1.00  0.00    -0.241 NA
BRANCH  20  24
HETATM   24  N1  UNL     1      27.132  -0.169  52.807  1.00  0.00    -0.305 N 
HETATM   25  C2  UNL     1      28.458   0.043  53.268  1.00  0.00     0.069 A 
HETATM   26  C1  UNL     1      28.732   1.308  53.513  1.00  0.00     0.047 C 
HETATM   27  C3  UNL     1      29.387  -1.041  53.438  1.00  0.00     0.142 A 
HETATM   28  F1  UNL     1      30.627  -0.800  53.874  1.00  0.00    -0.204 F 
HETATM   29  C4  UNL     1      28.920  -2.243  53.137  1.00  0.00     0.046 A 
HETATM   30  C5  UNL     1      27.577  -2.549  52.661  1.00  0.00     0.021 A 
HETATM   31  C6  UNL     1      26.730  -1.522  52.510  1.00  0.00     0.099 A 
ENDBRANCH  20  24
ENDBRANCH   1  18
TORSDOF 8
ENDMDL
MODEL 3
REMARK VINA RESULT:      -8.4      3.016      3.701
REMARK  8 active torsions:
REMARK  status: ('A' for Active; 'I' for Inactive)
REMARK    1  A    between atoms: N1_8  and  C7_9 
REMARK    2  A    between atoms: C9_11  and  C10_12 
REMARK    3  A    between atoms: N2_13  and  C11_14 
REMARK    4  A    between atoms: C11_14  and  N3_15 
REMARK       I    between atoms: N3_15  and  C12_16 
REMARK    5  A    between atoms: C12_16  and  C13_18 
REMARK    6  A    between atoms: C14_19  and  C15_20 
REMARK    7  A    between atoms: C15_20  and  C16_21 
REMARK    8  A    between atoms: C16_21  and  N4_22 
ROOT
HETATM    1  C10 UNL     1      23.129   2.047  50.875  1.00  0.00     0.144 C 
HETATM    2  N2  UNL     1      23.872   3.094  50.764  1.00  0.00    -0.280 NA
ENDROOT
BRANCH   2   3
HETATM    3  C11 UNL     1      23.616   4.103  49.758  1.00  0.00     0.273 C 
BRANCH   3   4
HETATM    4  N3  UNL     1      24.815   4.550  49.080  1.00  0.00    -0.332 N 
HETATM    5  C12 UNL     1      25.556   5.663  49.560  1.00  0.00     0.297 C 
HETATM    6  O1  UNL     1      25.224   6.317  50.583  1.00  0.00    -0.258 OA
HETATM    7  H10 UNL     1      25.144   4.048  48.224  1.00  0.00     0.165 HD
BRANCH   5   8
HETATM    8  C13 UNL     1      26.735   6.040  48.827  1.00  0.00    -0.006 C 
HETATM    9  C14 UNL     1      27.731   6.381  48.206  1.00  0.00    -0.095 C 
BRANCH   9  10
HETATM   10  C15 UNL     1      28.922   6.798  47.488  1.00  0.00     0.124 C 
BRANCH  10  11
HETATM   11  C16 UNL     1      29.432   8.108  47.976  1.00  0.00     0.284 C 
BRANCH  11  12
HETATM   12  N4  UNL     1      30.858   8.239  48.026  1.00  0.00     0.089 N 
HETATM   13  C17 UNL     1      31.389   9.114  47.004  1.00  0.00     0.272 C 
HETATM   14  C18 UNL     1      30.799  10.504  47.085  1.00  0.00     0.030 C 
HETATM   15  C19 UNL     1      31.022  11.120  48.443  1.00  0.00     0.003 C 
HETATM   16  C20 UNL     1      30.613  10.159  49.532  1.00  0.00     0.030 C 
HETATM   17  C21 UNL     1      31.233   8.798  49.310  1.00  0.00     0.272 C 
ENDBRANCH  11  12
ENDBRANCH  10  11
ENDBRANCH   9  10
ENDBRANCH   5   8
ENDBRANCH   3   4
ENDBRANCH   2   3
BRANCH   1  18
HETATM   18  C9  UNL     1      23.550   1.135  51.958  1.00  0.00     0.079 A 
HETATM   19  C8  UNL     1      24.903   0.874  52.181  1.00  0.00     0.084 A 
HETATM   20  C7  UNL     1      25.334   0.025  53.184  1.00  0.00     0.138 A 
HETATM   21  N6  UNL     1      24.399  -0.563  53.967  1.00  0.00    -0.224 NA
HETATM   22  C22 UNL     1      23.098  -0.288  53.724  1.00  0.00     0.236 A 
HETATM   23  N5  UNL     1      22.657   0.529  52.760  1.00  0.00    -0.241 NA
BRANCH  20  24
HETATM   24  N1  UNL     1      26.701  -0.260  53.434  1.00  0.00    -0.305 N 
HETATM   25  C2  UNL     1      27.495  -1.360  53.015  1.00  0.00     0.069 A 
HETATM   26  C1  UNL     1      26.834  -2.233  52.282  1.00  0.00     0.047 C 
HETATM   27  C3  UNL     1      28.882  -1.479  53.373  1.00  0.00     0.142 A 
HETATM   28  F1  UNL     1      29.596  -2.530  52.957  1.00  0.00    -0.204 F 
HETATM   29  C4  UNL     1      29.363  -0.495  54.117  1.00  0.00     0.046 A 
HETATM   30  C5  UNL     1      28.623   0.667  54.590  1.00  0.00     0.021 A 
HETATM   31  C6  UNL     1      27.332   0.755  54.243  1.00  0.00     0.099 A 
ENDBRANCH  20  24
ENDBRANCH   1  18
TORSDOF 8
ENDMDL
MODEL 4
REMARK VINA RESULT:      -8.2      1.910      2.777
REMARK  8 active torsions:
REMARK  status: ('A' for Active; 'I' for Inactive)
REMARK    1  A    between atoms: N1_8  and  C7_9 
REMARK    2  A    between atoms: C9_11  and  C10_12 
REMARK    3  A    between atoms: N2_13  and  C11_14 
REMARK    4  A    between atoms: C11_14  and  N3_15 
REMARK       I    between atoms: N3_15  and  C12_16 
REMARK    5  A    between atoms: C12_16  and  C13_18 
REMARK    6  A    between atoms: C14_19  and  C15_20 
REMARK    7  A    between atoms: C15_20  and  C16_21 
REMARK    8  A    between atoms: C16_21  and  N4_22 
ROOT
HETATM    1  C10 UNL     1      23.209   3.112  52.452  1.00  0.00     0.144 C 
HETATM    2  N2  UNL     1      24.155   3.752  51.857  1.00  0.00    -0.280 NA
ENDROOT
BRANCH   2   3
HETATM    3  C11 UNL     1      23.948   5.077  51.310  1.00  0.00     0.273 C 
BRANCH   3   4
HETATM    4  N3  UNL     1      25.104   5.590  50.605  1.00  0.00    -0.332 N 
HETATM    5  C12 UNL     1      25.054   5.849  49.209  1.00  0.00     0.297 C 
HETATM    6  O1  UNL     1      24.025   5.654  48.512  1.00  0.00    -0.258 OA
HETATM    7  H10 UNL     1      25.991   5.773  51.128  1.00  0.00     0.165 HD
BRANCH   5   8
HETATM    8  C13 UNL     1      26.248   6.359  48.588  1.00  0.00    -0.006 C 
HETATM    9  C14 UNL     1      27.251   6.807  48.051  1.00  0.00    -0.095 C 
BRANCH   9  10
HETATM   10  C15 UNL     1      28.439   7.360  47.426  1.00  0.00     0.124 C 
BRANCH  10  11
HETATM   11  C16 UNL     1      29.651   6.551  47.732  1.00  0.00     0.284 C 
BRANCH  11  12
HETATM   12  N4  UNL     1      30.899   7.253  47.657  1.00  0.00     0.089 N 
HETATM   13  C17 UNL     1      31.613   7.285  48.914  1.00  0.00     0.272 C 
HETATM   14  C18 UNL     1      31.900   5.896  49.440  1.00  0.00     0.030 C 
HETATM   15  C19 UNL     1      32.675   5.077  48.439  1.00  0.00     0.003 C 
HETATM   16  C20 UNL     1      32.026   5.154  47.078  1.00  0.00     0.030 C 
HETATM   17  C21 UNL     1      31.752   6.589  46.692  1.00  0.00     0.272 C 
ENDBRANCH  11  12
ENDBRANCH  10  11
ENDBRANCH   9  10
ENDBRANCH   5   8
ENDBRANCH   3   4
ENDBRANCH   2   3
BRANCH   1  18
HETATM   18  C9  UNL     1      23.613   1.777  52.940  1.00  0.00     0.079 A 
HETATM   19  C8  UNL     1      24.964   1.441  53.051  1.00  0.00     0.084 A 
HETATM   20  C7  UNL     1      25.380   0.203  53.503  1.00  0.00     0.138 A 
HETATM   21  N6  UNL     1      24.433  -0.702  53.846  1.00  0.00    -0.224 NA
HETATM   22  C22 UNL     1      23.135  -0.343  53.727  1.00  0.00     0.236 A 
HETATM   23  N5  UNL     1      22.708   0.848  53.292  1.00  0.00    -0.241 NA
BRANCH  20  24
HETATM   24  N1  UNL     1      26.744  -0.169  53.626  1.00  0.00    -0.305 N 
HETATM   25  C2  UNL     1      27.449  -1.257  53.047  1.00  0.00     0.069 A 
HETATM   26  C1  UNL     1      26.695  -2.021  52.283  1.00  0.00     0.047 C 
HETATM   27  C3  UNL     1      28.848  -1.473  53.291  1.00  0.00     0.142 A 
HETATM   28  F1  UNL     1      29.476  -2.510  52.726  1.00  0.00    -0.204 F 
HETATM   29  C4  UNL     1      29.430  -0.592  54.090  1.00  0.00     0.046 A 
HETATM   30  C5  UNL     1      28.785   0.550  54.724  1.00  0.00     0.021 A 
HETATM   31  C6  UNL     1      27.480   0.731  54.481  1.00  0.00     0.099 A 
ENDBRANCH  20  24
ENDBRANCH   1  18
TORSDOF 8
ENDMDL
MODEL 5
REMARK VINA RESULT:      -8.0      7.284     13.215
REMARK  8 active torsions:
REMARK  status: ('A' for Active; 'I' for Inactive)
REMARK    1  A    between atoms: N1_8  and  C7_9 
REMARK    2  A    between atoms: C9_11  and  C10_12 
REMARK    3  A    between atoms: N2_13  and  C11_14 
REMARK    4  A    between atoms: C11_14  and  N3_15 
REMARK       I    between atoms: N3_15  and  C12_16 
REMARK    5  A    between atoms: C12_16  and  C13_18 
REMARK    6  A    between atoms: C14_19  and  C15_20 
REMARK    7  A    between atoms: C15_20  and  C16_21 
REMARK    8  A    between atoms: C16_21  and  N4_22 
ROOT
HETATM    1  C10 UNL     1      22.228  -0.888  53.272  1.00  0.00     0.144 C 
HETATM    2  N2  UNL     1      21.075  -0.361  53.502  1.00  0.00    -0.280 NA
ENDROOT
BRANCH   2   3
HETATM    3  C11 UNL     1      19.884  -1.173  53.640  1.00  0.00     0.273 C 
BRANCH   3   4
HETATM    4  N3  UNL     1      18.688  -0.515  53.158  1.00  0.00    -0.332 N 
HETATM    5  C12 UNL     1      17.436  -1.188  53.148  1.00  0.00     0.297 C 
HETATM    6  O1  UNL     1      17.292  -2.372  53.548  1.00  0.00    -0.258 OA
HETATM    7  H10 UNL     1      18.741   0.470  52.811  1.00  0.00     0.165 HD
BRANCH   5   8
HETATM    8  C13 UNL     1      16.297  -0.461  52.653  1.00  0.00    -0.006 C 
HETATM    9  C14 UNL     1      15.321   0.139  52.226  1.00  0.00    -0.095 C 
BRANCH   9  10
HETATM   10  C15 UNL     1      14.148   0.838  51.734  1.00  0.00     0.124 C 
BRANCH  10  11
HETATM   11  C16 UNL     1      13.544   1.708  52.780  1.00  0.00     0.284 C 
BRANCH  11  12
HETATM   12  N4  UNL     1      12.292   2.314  52.434  1.00  0.00     0.089 N 
HETATM   13  C17 UNL     1      11.275   2.144  53.448  1.00  0.00     0.272 C 
HETATM   14  C18 UNL     1      11.704   2.710  54.783  1.00  0.00     0.030 C 
HETATM   15  C19 UNL     1      12.068   4.169  54.673  1.00  0.00     0.003 C 
HETATM   16  C20 UNL     1      13.016   4.391  53.520  1.00  0.00     0.030 C 
HETATM   17  C21 UNL     1      12.494   3.739  52.260  1.00  0.00     0.272 C 
ENDBRANCH  11  12
ENDBRANCH  10  11
ENDBRANCH   9  10
ENDBRANCH   5   8
ENDBRANCH   3   4
ENDBRANCH   2   3
BRANCH   1  18
HETATM   18  C9  UNL     1      23.320   0.102  53.164  1.00  0.00     0.079 A 
HETATM   19  C8  UNL     1      24.652  -0.291  53.314  1.00  0.00     0.084 A 
HETATM   20  C7  UNL     1      25.699   0.606  53.220  1.00  0.00     0.138 A 
HETATM   21  N6  UNL     1      25.407   1.904  52.972  1.00  0.00    -0.224 NA
HETATM   22  C22 UNL     1      24.107   2.250  52.831  1.00  0.00     0.236 A 
HETATM   23  N5  UNL     1      23.077   1.400  52.919  1.00  0.00    -0.241 NA
BRANCH  20  24
HETATM   24  N1  UNL     1      27.062   0.238  53.369  1.00  0.00    -0.305 N 
HETATM   25  C2  UNL     1      27.716  -0.983  53.057  1.00  0.00     0.069 A 
HETATM   26  C1  UNL     1      26.910  -1.895  52.552  1.00  0.00     0.047 C 
HETATM   27  C3  UNL     1      29.123  -1.172  53.282  1.00  0.00     0.142 A 
HETATM   28  F1  UNL     1      29.702  -2.337  52.973  1.00  0.00    -0.204 F 
HETATM   29  C4  UNL     1      29.761  -0.133  53.798  1.00  0.00     0.046 A 
HETATM   30  C5  UNL     1      29.170   1.152  54.147  1.00  0.00     0.021 A 
HETATM   31  C6  UNL     1      27.857   1.304  53.928  1.00  0.00     0.099 A 
ENDBRANCH  20  24
ENDBRANCH   1  18
TORSDOF 8
ENDMDL
MODEL 6
REMARK VINA RESULT:      -8.0      8.661     12.609
REMARK  8 active torsions:
REMARK  status: ('A' for Active; 'I' for Inactive)
REMARK    1  A    between atoms: N1_8  and  C7_9 
REMARK    2  A    between atoms: C9_11  and  C10_12 
REMARK    3  A    between atoms: N2_13  and  C11_14 
REMARK    4  A    between atoms: C11_14  and  N3_15 
REMARK       I    between atoms: N3_15  and  C12_16 
REMARK    5  A    between atoms: C12_16  and  C13_18 
REMARK    6  A    between atoms: C14_19  and  C15_20 
REMARK    7  A    between atoms: C15_20  and  C16_21 
REMARK    8  A    between atoms: C16_21  and  N4_22 
ROOT
HETATM    1  C10 UNL     1      17.357  -0.710  52.215  1.00  0.00     0.144 C 
HETATM    2  N2  UNL     1      17.495  -1.285  53.360  1.00  0.00    -0.280 NA
ENDROOT
BRANCH   2   3
HETATM    3  C11 UNL     1      18.789  -1.731  53.833  1.00  0.00     0.273 C 
BRANCH   3   4
HETATM    4  N3  UNL     1      19.876  -0.873  53.412  1.00  0.00    -0.332 N 
HETATM    5  C12 UNL     1      21.169  -0.993  53.989  1.00  0.00     0.297 C 
HETATM    6  O1  UNL     1      21.445  -1.834  54.884  1.00  0.00    -0.258 OA
HETATM    7  H10 UNL     1      19.712  -0.153  52.672  1.00  0.00     0.165 HD
BRANCH   5   8
HETATM    8  C13 UNL     1      22.193  -0.101  53.513  1.00  0.00    -0.006 C 
HETATM    9  C14 UNL     1      23.077   0.644  53.117  1.00  0.00    -0.095 C 
BRANCH   9  10
HETATM   10  C15 UNL     1      24.137   1.511  52.633  1.00  0.00     0.124 C 
BRANCH  10  11
HETATM   11  C16 UNL     1      25.364   1.402  53.469  1.00  0.00     0.284 C 
BRANCH  11  12
HETATM   12  N4  UNL     1      26.601   1.645  52.787  1.00  0.00     0.089 N 
HETATM   13  C17 UNL     1      27.756   1.574  53.655  1.00  0.00     0.272 C 
HETATM   14  C18 UNL     1      27.869   0.232  54.342  1.00  0.00     0.030 C 
HETATM   15  C19 UNL     1      27.917  -0.896  53.343  1.00  0.00     0.003 C 
HETATM   16  C20 UNL     1      26.804  -0.756  52.334  1.00  0.00     0.030 C 
HETATM   17  C21 UNL     1      26.773   0.640  51.756  1.00  0.00     0.272 C 
ENDBRANCH  11  12
ENDBRANCH  10  11
ENDBRANCH   9  10
ENDBRANCH   5   8
ENDBRANCH   3   4
ENDBRANCH   2   3
BRANCH   1  18
HETATM   18  C9  UNL     1      15.962  -0.328  51.910  1.00  0.00     0.079 A 
HETATM   19  C8  UNL     1      15.231   0.460  52.800  1.00  0.00     0.084 A 
HETATM   20  C7  UNL     1      13.924   0.836  52.549  1.00  0.00     0.138 A 
HETATM   21  N6  UNL     1      13.351   0.418  51.396  1.00  0.00    -0.224 NA
HETATM   22  C22 UNL     1      14.088  -0.343  50.556  1.00  0.00     0.236 A 
HETATM   23  N5  UNL     1      15.353  -0.720  50.778  1.00  0.00    -0.241 NA
BRANCH  20  24
HETATM   24  N1  UNL     1      13.155   1.635  53.434  1.00  0.00    -0.305 N 
HETATM   25  C2  UNL     1      12.336   1.253  54.530  1.00  0.00     0.069 A 
HETATM   26  C1  UNL     1      12.305  -0.049  54.731  1.00  0.00     0.047 C 
HETATM   27  C3  UNL     1      11.624   2.219  55.321  1.00  0.00     0.142 A 
HETATM   28  F1  UNL     1      10.863   1.819  56.345  1.00  0.00    -0.204 F 
HETATM   29  C4  UNL     1      11.785   3.482  54.958  1.00  0.00     0.046 A 
HETATM   30  C5  UNL     1      12.604   3.961  53.852  1.00  0.00     0.021 A 
HETATM   31  C6  UNL     1      13.258   3.042  53.130  1.00  0.00     0.099 A 
ENDBRANCH  20  24
ENDBRANCH   1  18
TORSDOF 8
ENDMDL
MODEL 7
REMARK VINA RESULT:      -7.8      2.933      9.124
REMARK  8 active torsions:
REMARK  status: ('A' for Active; 'I' for Inactive)
REMARK    1  A    between atoms: N1_8  and  C7_9 
REMARK    2  A    between atoms: C9_11  and  C10_12 
REMARK    3  A    between atoms: N2_13  and  C11_14 
REMARK    4  A    between atoms: C11_14  and  N3_15 
REMARK       I    between atoms: N3_15  and  C12_16 
REMARK    5  A    between atoms: C12_16  and  C13_18 
REMARK    6  A    between atoms: C14_19  and  C15_20 
REMARK    7  A    between atoms: C15_20  and  C16_21 
REMARK    8  A    between atoms: C16_21  and  N4_22 
ROOT
HETATM    1  C10 UNL     1      27.678   7.034  48.226  1.00  0.00     0.144 C 
HETATM    2  N2  UNL     1      27.198   7.548  49.305  1.00  0.00    -0.280 NA
ENDROOT
BRANCH   2   3
HETATM    3  C11 UNL     1      25.800   7.407  49.655  1.00  0.00     0.273 C 
BRANCH   3   4
HETATM    4  N3  UNL     1      25.545   6.299  50.552  1.00  0.00    -0.332 N 
HETATM    5  C12 UNL     1      24.959   5.095  50.080  1.00  0.00     0.297 C 
HETATM    6  O1  UNL     1      24.630   4.917  48.878  1.00  0.00    -0.258 OA
HETATM    7  H10 UNL     1      25.795   6.383  51.564  1.00  0.00     0.165 HD
BRANCH   5   8
HETATM    8  C13 UNL     1      24.741   4.044  51.039  1.00  0.00    -0.006 C 
HETATM    9  C14 UNL     1      24.541   3.163  51.863  1.00  0.00    -0.095 C 
BRANCH   9  10
HETATM   10  C15 UNL     1      24.280   2.116  52.834  1.00  0.00     0.124 C 
BRANCH  10  11
HETATM   11  C16 UNL     1      25.533   1.638  53.481  1.00  0.00     0.284 C 
BRANCH  11  12
HETATM   12  N4  UNL     1      25.464   0.336  54.077  1.00  0.00     0.089 N 
HETATM   13  C17 UNL     1      25.523  -0.739  53.112  1.00  0.00     0.272 C 
HETATM   14  C18 UNL     1      26.783  -0.685  52.278  1.00  0.00     0.030 C 
HETATM   15  C19 UNL     1      28.018  -0.712  53.142  1.00  0.00     0.003 C 
HETATM   16  C20 UNL     1      27.910   0.305  54.251  1.00  0.00     0.030 C 
HETATM   17  C21 UNL     1      26.590   0.173  54.976  1.00  0.00     0.272 C 
ENDBRANCH  11  12
ENDBRANCH  10  11
ENDBRANCH   9  10
ENDBRANCH   5   8
ENDBRANCH   3   4
ENDBRANCH   2   3
BRANCH   1  18
HETATM   18  C9  UNL     1      29.123   7.285  48.044  1.00  0.00     0.079 A 
HETATM   19  C8  UNL     1      29.971   6.265  47.609  1.00  0.00     0.084 A 
HETATM   20  C7  UNL     1      31.328   6.462  47.428  1.00  0.00     0.138 A 
HETATM   21  N6  UNL     1      31.833   7.691  47.684  1.00  0.00    -0.224 NA
HETATM   22  C22 UNL     1      30.983   8.656  48.103  1.00  0.00     0.236 A 
HETATM   23  N5  UNL     1      29.668   8.489  48.286  1.00  0.00    -0.241 NA
BRANCH  20  24
HETATM   24  N1  UNL     1      32.215   5.445  46.988  1.00  0.00    -0.305 N 
HETATM   25  C2  UNL     1      32.913   5.313  45.759  1.00  0.00     0.069 A 
HETATM   26  C1  UNL     1      32.682   6.300  44.917  1.00  0.00     0.047 C 
HETATM   27  C3  UNL     1      33.779   4.198  45.491  1.00  0.00     0.142 A 
HETATM   28  F1  UNL     1      34.419   4.110  44.321  1.00  0.00    -0.204 F 
HETATM   29  C4  UNL     1      33.879   3.309  46.467  1.00  0.00     0.046 A 
HETATM   30  C5  UNL     1      33.202   3.366  47.756  1.00  0.00     0.021 A 
HETATM   31  C6  UNL     1      32.400   4.416  47.981  1.00  0.00     0.099 A 
ENDBRANCH  20  24
ENDBRANCH   1  18
TORSDOF 8
ENDMDL
MODEL 8
REMARK VINA RESULT:      -7.8      2.477      4.008
REMARK  8 active torsions:
REMARK  status: ('A' for Active; 'I' for Inactive)
REMARK    1  A    between atoms: N1_8  and  C7_9 
REMARK    2  A    between atoms: C9_11  and  C10_12 
REMARK    3  A    between atoms: N2_13  and  C11_14 
REMARK    4  A    between atoms: C11_14  and  N3_15 
REMARK       I    between atoms: N3_15  and  C12_16 
REMARK    5  A    between atoms: C12_16  and  C13_18 
REMARK    6  A    between atoms: C14_19  and  C15_20 
REMARK    7  A    between atoms: C15_20  and  C16_21 
REMARK    8  A    between atoms: C16_21  and  N4_22 
ROOT
HETATM    1  C10 UNL     1      25.405   3.195  50.071  1.00  0.00     0.144 C 
HETATM    2  N2  UNL     1      26.344   4.077  50.083  1.00  0.00    -0.280 NA
ENDROOT
BRANCH   2   3
HETATM    3  C11 UNL     1      26.440   5.098  49.060  1.00  0.00     0.273 C 
BRANCH   3   4
HETATM    4  N3  UNL     1      27.780   5.257  48.537  1.00  0.00    -0.332 N 
HETATM    5  C12 UNL     1      28.334   6.548  48.324  1.00  0.00     0.297 C 
HETATM    6  O1  UNL     1      27.709   7.611  48.571  1.00  0.00    -0.258 OA
HETATM    7  H10 UNL     1      28.353   4.412  48.311  1.00  0.00     0.165 HD
BRANCH   5   8
HETATM    8  C13 UNL     1      29.673   6.616  47.802  1.00  0.00    -0.006 C 
HETATM    9  C14 UNL     1      30.818   6.663  47.375  1.00  0.00    -0.095 C 
BRANCH   9  10
HETATM   10  C15 UNL     1      32.177   6.694  46.866  1.00  0.00     0.124 C 
BRANCH  10  11
HETATM   11  C16 UNL     1      32.981   5.545  47.366  1.00  0.00     0.284 C 
BRANCH  11  12
HETATM   12  N4  UNL     1      33.725   4.830  46.371  1.00  0.00     0.089 N 
HETATM   13  C17 UNL     1      34.724   3.945  46.929  1.00  0.00     0.272 C 
HETATM   14  C18 UNL     1      34.118   2.926  47.868  1.00  0.00     0.030 C 
HETATM   15  C19 UNL     1      33.049   2.113  47.184  1.00  0.00     0.003 C 
HETATM   16  C20 UNL     1      32.076   3.017  46.466  1.00  0.00     0.030 C 
HETATM   17  C21 UNL     1      32.809   4.014  45.598  1.00  0.00     0.272 C 
ENDBRANCH  11  12
ENDBRANCH  10  11
ENDBRANCH   9  10
ENDBRANCH   5   8
ENDBRANCH   3   4
ENDBRANCH   2   3
BRANCH   1  18
HETATM   18  C9  UNL     1      25.477   2.240  51.197  1.00  0.00     0.079 A 
HETATM   19  C8  UNL     1      24.321   1.619  51.674  1.00  0.00     0.084 A 
HETATM   20  C7  UNL     1      24.348   0.721  52.725  1.00  0.00     0.138 A 
HETATM   21  N6  UNL     1      25.544   0.446  53.297  1.00  0.00    -0.224 NA
HETATM   22  C22 UNL     1      26.643   1.064  52.809  1.00  0.00     0.236 A 
HETATM   23  N5  UNL     1      26.641   1.937  51.795  1.00  0.00    -0.241 NA
BRANCH  20  24
HETATM   24  N1  UNL     1      23.192   0.074  53.233  1.00  0.00    -0.305 N 
HETATM   25  C2  UNL     1      21.842   0.142  52.796  1.00  0.00     0.069 A 
HETATM   26  C1  UNL     1      21.668   0.935  51.758  1.00  0.00     0.047 C 
HETATM   27  C3  UNL     1      20.794  -0.594  53.446  1.00  0.00     0.142 A 
HETATM   28  F1  UNL     1      19.535  -0.504  53.004  1.00  0.00    -0.204 F 
HETATM   29  C4  UNL     1      21.173  -1.337  54.475  1.00  0.00     0.046 A 
HETATM   30  C5  UNL     1      22.530  -1.465  54.988  1.00  0.00     0.021 A 
HETATM   31  C6  UNL     1      23.490  -0.768  54.365  1.00  0.00     0.099 A 
ENDBRANCH  20  24
ENDBRANCH   1  18
TORSDOF 8
ENDMDL
MODEL 9
REMARK VINA RESULT:      -7.8      3.110      4.313
REMARK  8 active torsions:
REMARK  status: ('A' for Active; 'I' for Inactive)
REMARK    1  A    between atoms: N1_8  and  C7_9 
REMARK    2  A    between atoms: C9_11  and  C10_12 
REMARK    3  A    between atoms: N2_13  and  C11_14 
REMARK    4  A    between atoms: C11_14  and  N3_15 
REMARK       I    between atoms: N3_15  and  C12_16 
REMARK    5  A    between atoms: C12_16  and  C13_18 
REMARK    6  A    between atoms: C14_19  and  C15_20 
REMARK    7  A    between atoms: C15_20  and  C16_21 
REMARK    8  A    between atoms: C16_21  and  N4_22 
ROOT
HETATM    1  C10 UNL     1      23.511   5.523  51.338  1.00  0.00     0.144 C 
HETATM    2  N2  UNL     1      24.511   5.969  50.660  1.00  0.00    -0.280 NA
ENDROOT
BRANCH   2   3
HETATM    3  C11 UNL     1      24.979   7.332  50.805  1.00  0.00     0.273 C 
BRANCH   3   4
HETATM    4  N3  UNL     1      26.342   7.518  50.353  1.00  0.00    -0.332 N 
HETATM    5  C12 UNL     1      26.823   8.804  49.988  1.00  0.00     0.297 C 
HETATM    6  O1  UNL     1      26.111   9.840  50.034  1.00  0.00    -0.258 OA
HETATM    7  H10 UNL     1      26.985   6.696  50.292  1.00  0.00     0.165 HD
BRANCH   5   8
HETATM    8  C13 UNL     1      28.190   8.900  49.550  1.00  0.00    -0.006 C 
HETATM    9  C14 UNL     1      29.355   8.998  49.190  1.00  0.00    -0.095 C 
BRANCH   9  10
HETATM   10  C15 UNL     1      30.744   9.112  48.786  1.00  0.00     0.124 C 
BRANCH  10  11
HETATM   11  C16 UNL     1      31.202   7.911  48.035  1.00  0.00     0.284 C 
BRANCH  11  12
HETATM   12  N4  UNL     1      32.354   7.248  48.570  1.00  0.00     0.089 N 
HETATM   13  C17 UNL     1      32.087   5.893  48.999  1.00  0.00     0.272 C 
HETATM   14  C18 UNL     1      31.547   5.037  47.875  1.00  0.00     0.030 C 
HETATM   15  C19 UNL     1      32.488   5.018  46.697  1.00  0.00     0.003 C 
HETATM   16  C20 UNL     1      32.900   6.422  46.327  1.00  0.00     0.030 C 
HETATM   17  C21 UNL     1      33.376   7.182  47.544  1.00  0.00     0.272 C 
ENDBRANCH  11  12
ENDBRANCH  10  11
ENDBRANCH   9  10
ENDBRANCH   5   8
ENDBRANCH   3   4
ENDBRANCH   2   3
BRANCH   1  18
HETATM   18  C9  UNL     1      23.184   4.111  51.052  1.00  0.00     0.079 A 
HETATM   19  C8  UNL     1      23.066   3.185  52.090  1.00  0.00     0.084 A 
HETATM   20  C7  UNL     1      22.763   1.855  51.860  1.00  0.00     0.138 A 
HETATM   21  N6  UNL     1      22.576   1.456  50.580  1.00  0.00    -0.224 NA
HETATM   22  C22 UNL     1      22.697   2.379  49.599  1.00  0.00     0.236 A 
HETATM   23  N5  UNL     1      22.991   3.670  49.797  1.00  0.00    -0.241 NA
BRANCH  20  24
HETATM   24  N1  UNL     1      22.637   0.891  52.893  1.00  0.00    -0.305 N 
HETATM   25  C2  UNL     1      23.630   0.096  53.525  1.00  0.00     0.069 A 
HETATM   26  C1  UNL     1      24.845   0.309  53.060  1.00  0.00     0.047 C 
HETATM   27  C3  UNL     1      23.307  -0.839  54.567  1.00  0.00     0.142 A 
HETATM   28  F1  UNL     1      24.271  -1.569  55.137  1.00  0.00    -0.204 F 
HETATM   29  C4  UNL     1      22.025  -0.907  54.894  1.00  0.00     0.046 A 
HETATM   30  C5  UNL     1      20.945  -0.131  54.300  1.00  0.00     0.021 A 
HETATM   31  C6  UNL     1      21.271   0.734  53.331  1.00  0.00     0.099 A 
ENDBRANCH  20  24
ENDBRANCH   1  18
TORSDOF 8
ENDMDL
