MODEL 1
REMARK VINA RESULT:      -8.0      0.000      0.000
REMARK  7 active torsions:
REMARK  status: ('A' for Active; 'I' for Inactive)
REMARK    1  A    between atoms: C3_3  and  C4_4 
REMARK    2  A    between atoms: N1_5  and  C5_6 
REMARK    3  A    between atoms: C5_6  and  C6_7 
REMARK    4  A    between atoms: C9_10  and  N2_11 
REMARK       I    between atoms: N2_11  and  C10_12 
REMARK    5  A    between atoms: C10_12  and  C11_14 
REMARK    6  A    between atoms: C12_15  and  C13_16 
REMARK    7  A    between atoms: C13_16  and  N3_17 
ROOT
HETATM    1  C6  UNL     1      25.782   0.559  52.486  1.00  0.00     0.055 C 
HETATM    2  C7  UNL     1      26.625   1.471  52.039  1.00  0.00     0.033 C 
HETATM    3  C8  UNL     1      26.606   2.739  51.330  1.00  0.00     0.052 C 
HETATM    4  C9  UNL     1      25.548   3.390  50.887  1.00  0.00     0.131 C 
HETATM    5  N4  UNL     1      24.129   3.351  50.787  1.00  0.00    -0.226 NA
HETATM    6  C18 UNL     1      23.540   4.179  51.592  1.00  0.00     0.121 C 
HETATM    7  C19 UNL     1      23.968   4.089  52.804  1.00  0.00     0.120 C 
HETATM    8  N5  UNL     1      24.549   2.981  53.096  1.00  0.00    -0.237 NA
HETATM    9  C20 UNL     1      23.793   1.864  52.557  1.00  0.00     0.234 C 
HETATM   10  N6  UNL     1      24.388   0.756  52.284  1.00  0.00    -0.245 NA
ENDROOT
BRANCH   4  11
HETATM   11  N2  UNL     1      25.852   4.619  50.225  1.00  0.00    -0.308 N 
HETATM   12  C10 UNL     1      26.775   4.813  49.171  1.00  0.00     0.246 C 
HETATM   13  O1  UNL     1      27.331   3.736  48.858  1.00  0.00    -0.268 OA
HETATM   14  H11 UNL     1      25.285   5.429  50.620  1.00  0.00     0.170 HD
BRANCH  12  15
HETATM   15  C11 UNL     1      26.995   6.112  48.584  1.00  0.00     0.072 C 
HETATM   16  C12 UNL     1      28.176   6.527  48.167  1.00  0.00     0.008 C 
BRANCH  16  17
HETATM   17  C13 UNL     1      29.526   5.948  48.131  1.00  0.00     0.300 C 
BRANCH  17  18
HETATM   18  N3  UNL     1      30.503   6.936  47.664  1.00  0.00     0.091 N 
HETATM   19  C14 UNL     1      30.118   8.196  48.217  1.00  0.00     0.273 C 
HETATM   20  C15 UNL     1      31.078   8.483  49.335  1.00  0.00     0.032 C 
HETATM   21  C16 UNL     1      32.372   7.916  48.736  1.00  0.00     0.032 C 
HETATM   22  C17 UNL     1      31.838   6.632  48.132  1.00  0.00     0.273 C 
ENDBRANCH  17  18
ENDBRANCH  16  17
ENDBRANCH  12  15
ENDBRANCH   4  11
BRANCH   1  23
HETATM   23  C5  UNL     1      25.883  -0.751  53.223  1.00  0.00     0.207 C 
BRANCH  23  24
HETATM   24  N1  UNL     1      26.454  -0.388  54.524  1.00  0.00    -0.296 NA
HETATM   25  C4  UNL     1      27.715  -0.405  54.720  1.00  0.00     0.110 C 
BRANCH  25  26
HETATM   26  C3  UNL     1      28.843  -0.738  53.861  1.00  0.00     0.014 C 
HETATM   27  C2  UNL     1      29.765   0.189  53.651  1.00  0.00    -0.029 C 
HETATM   28  C1  UNL     1      29.391   1.434  54.403  1.00  0.00     0.036 C 
ENDBRANCH  25  26
ENDBRANCH  23  24
ENDBRANCH   1  23
TORSDOF 7
ENDMDL
MODEL 2
REMARK VINA RESULT:      -7.9      2.015      8.275
REMARK  7 active torsions:
REMARK  status: ('A' for Active; 'I' for Inactive)
REMARK    1  A    between atoms: C3_3  and  C4_4 
REMARK    2  A    between atoms: N1_5  and  C5_6 
REMARK    3  A    between atoms: C5_6  and  C6_7 
REMARK    4  A    between atoms: C9_10  and  N2_11 
REMARK       I    between atoms: N2_11  and  C10_12 
REMARK    5  A    between atoms: C10_12  and  C11_14 
REMARK    6  A    between atoms: C12_15  and  C13_16 
REMARK    7  A    between atoms: C13_16  and  N3_17 
ROOT
HETATM    1  C6  UNL     1      26.131   5.930  49.044  1.00  0.00     0.055 C 
HETATM    2  C7  UNL     1      26.597   4.698  48.963  1.00  0.00     0.033 C 
HETATM    3  C8  UNL     1      26.469   3.422  49.646  1.00  0.00     0.052 C 
HETATM    4  C9  UNL     1      25.722   3.151  50.699  1.00  0.00     0.131 C 
HETATM    5  N4  UNL     1      24.813   3.709  51.641  1.00  0.00    -0.226 NA
HETATM    6  C18 UNL     1      23.586   3.341  51.442  1.00  0.00     0.121 C 
HETATM    7  C19 UNL     1      23.209   3.494  50.220  1.00  0.00     0.120 C 
HETATM    8  N5  UNL     1      23.905   4.329  49.536  1.00  0.00    -0.237 NA
HETATM    9  C20 UNL     1      24.164   5.523  50.321  1.00  0.00     0.234 C 
HETATM   10  N6  UNL     1      25.200   6.245  50.073  1.00  0.00    -0.245 NA
ENDROOT
BRANCH   4  11
HETATM   11  N2  UNL     1      25.807   1.797  51.145  1.00  0.00    -0.308 N 
HETATM   12  C10 UNL     1      26.793   1.239  51.993  1.00  0.00     0.246 C 
HETATM   13  O1  UNL     1      27.631   2.103  52.333  1.00  0.00    -0.268 OA
HETATM   14  H11 UNL     1      25.011   1.205  50.758  1.00  0.00     0.170 HD
BRANCH  12  15
HETATM   15  C11 UNL     1      26.769  -0.153  52.370  1.00  0.00     0.072 C 
HETATM   16  C12 UNL     1      25.848  -0.673  53.159  1.00  0.00     0.008 C 
BRANCH  16  17
HETATM   17  C13 UNL     1      24.669  -0.150  53.862  1.00  0.00     0.300 C 
BRANCH  17  18
HETATM   18  N3  UNL     1      23.463  -0.888  53.473  1.00  0.00     0.091 N 
HETATM   19  C14 UNL     1      22.799  -1.267  54.681  1.00  0.00     0.273 C 
HETATM   20  C15 UNL     1      21.615  -0.356  54.821  1.00  0.00     0.032 C 
HETATM   21  C16 UNL     1      21.194  -0.225  53.351  1.00  0.00     0.032 C 
HETATM   22  C17 UNL     1      22.555  -0.064  52.705  1.00  0.00     0.273 C 
ENDBRANCH  17  18
ENDBRANCH  16  17
ENDBRANCH  12  15
ENDBRANCH   4  11
BRANCH   1  23
HETATM   23  C5  UNL     1      26.317   7.218  48.285  1.00  0.00     0.207 C 
BRANCH  23  24
HETATM   24  N1  UNL     1      27.433   7.880  48.968  1.00  0.00    -0.296 NA
HETATM   25  C4  UNL     1      28.634   7.739  48.562  1.00  0.00     0.110 C 
BRANCH  25  26
HETATM   26  C3  UNL     1      29.221   6.993  47.457  1.00  0.00     0.014 C 
HETATM   27  C2  UNL     1      30.498   6.652  47.538  1.00  0.00    -0.029 C 
HETATM   28  C1  UNL     1      31.057   7.153  48.838  1.00  0.00     0.036 C 
ENDBRANCH  25  26
ENDBRANCH  23  24
ENDBRANCH   1  23
TORSDOF 7
ENDMDL
MODEL 3
REMARK VINA RESULT:      -7.8      5.085      9.222
REMARK  7 active torsions:
REMARK  status: ('A' for Active; 'I' for Inactive)
REMARK    1  A    between atoms: C3_3  and  C4_4 
REMARK    2  A    between atoms: N1_5  and  C5_6 
REMARK    3  A    between atoms: C5_6  and  C6_7 
REMARK    4  A    between atoms: C9_10  and  N2_11 
REMARK       I    between atoms: N2_11  and  C10_12 
REMARK    5  A    between atoms: C10_12  and  C11_14 
REMARK    6  A    between atoms: C12_15  and  C13_16 
REMARK    7  A    between atoms: C13_16  and  N3_17 
ROOT
HETATM    1  C6  UNL     1      25.499   1.410  53.456  1.00  0.00     0.055 C 
HETATM    2  C7  UNL     1      24.763   0.316  53.404  1.00  0.00     0.033 C 
HETATM    3  C8  UNL     1      23.398  -0.083  53.107  1.00  0.00     0.052 C 
HETATM    4  C9  UNL     1      22.394   0.700  52.759  1.00  0.00     0.131 C 
HETATM    5  N4  UNL     1      22.018   2.050  52.515  1.00  0.00    -0.226 NA
HETATM    6  C18 UNL     1      21.855   2.312  51.256  1.00  0.00     0.121 C 
HETATM    7  C19 UNL     1      22.846   1.921  50.531  1.00  0.00     0.120 C 
HETATM    8  N5  UNL     1      23.948   1.743  51.165  1.00  0.00    -0.237 NA
HETATM    9  C20 UNL     1      24.174   2.840  52.090  1.00  0.00     0.234 C 
HETATM   10  N6  UNL     1      24.895   2.659  53.141  1.00  0.00    -0.245 NA
ENDROOT
BRANCH   4  11
HETATM   11  N2  UNL     1      21.165   0.009  52.532  1.00  0.00    -0.308 N 
HETATM   12  C10 UNL     1      20.120  -0.201  53.463  1.00  0.00     0.246 C 
HETATM   13  O1  UNL     1      20.399   0.310  54.571  1.00  0.00    -0.268 OA
HETATM   14  H11 UNL     1      21.098  -0.357  51.534  1.00  0.00     0.170 HD
BRANCH  12  15
HETATM   15  C11 UNL     1      18.922  -0.920  53.109  1.00  0.00     0.072 C 
HETATM   16  C12 UNL     1      17.988  -0.426  52.318  1.00  0.00     0.008 C 
BRANCH  16  17
HETATM   17  C13 UNL     1      17.806   0.838  51.593  1.00  0.00     0.300 C 
BRANCH  17  18
HETATM   18  N3  UNL     1      16.459   0.918  51.019  1.00  0.00     0.091 N 
HETATM   19  C14 UNL     1      15.555   0.421  52.008  1.00  0.00     0.273 C 
HETATM   20  C15 UNL     1      14.858   1.617  52.589  1.00  0.00     0.032 C 
HETATM   21  C16 UNL     1      14.714   2.487  51.333  1.00  0.00     0.032 C 
HETATM   22  C17 UNL     1      16.085   2.283  50.719  1.00  0.00     0.273 C 
ENDBRANCH  17  18
ENDBRANCH  16  17
ENDBRANCH  12  15
ENDBRANCH   4  11
BRANCH   1  23
HETATM   23  C5  UNL     1      26.932   1.746  53.778  1.00  0.00     0.207 C 
BRANCH  23  24
HETATM   24  N1  UNL     1      27.309   0.765  54.801  1.00  0.00    -0.296 NA
HETATM   25  C4  UNL     1      28.479   0.257  54.829  1.00  0.00     0.110 C 
BRANCH  25  26
HETATM   26  C3  UNL     1      29.657   0.443  53.993  1.00  0.00     0.014 C 
HETATM   27  C2  UNL     1      30.043  -0.561  53.220  1.00  0.00    -0.029 C 
HETATM   28  C1  UNL     1      29.105  -1.718  53.414  1.00  0.00     0.036 C 
ENDBRANCH  25  26
ENDBRANCH  23  24
ENDBRANCH   1  23
TORSDOF 7
ENDMDL
MODEL 4
REMARK VINA RESULT:      -7.7      4.143      5.356
REMARK  7 active torsions:
REMARK  status: ('A' for Active; 'I' for Inactive)
REMARK    1  A    between atoms: C3_3  and  C4_4 
REMARK    2  A    between atoms: N1_5  and  C5_6 
REMARK    3  A    between atoms: C5_6  and  C6_7 
REMARK    4  A    between atoms: C9_10  and  N2_11 
REMARK       I    between atoms: N2_11  and  C10_12 
REMARK    5  A    between atoms: C10_12  and  C11_14 
REMARK    6  A    between atoms: C12_15  and  C13_16 
REMARK    7  A    between atoms: C13_16  and  N3_17 
ROOT
HETATM    1  C6  UNL     1      24.312   0.015  53.328  1.00  0.00     0.055 C 
HETATM    2  C7  UNL     1      24.135   1.070  52.554  1.00  0.00     0.033 C 
HETATM    3  C8  UNL     1      23.151   1.613  51.635  1.00  0.00     0.052 C 
HETATM    4  C9  UNL     1      21.993   1.077  51.296  1.00  0.00     0.131 C 
HETATM    5  N4  UNL     1      21.143  -0.047  51.492  1.00  0.00    -0.226 NA
HETATM    6  C18 UNL     1      20.107   0.222  52.225  1.00  0.00     0.121 C 
HETATM    7  C19 UNL     1      20.413   0.826  53.322  1.00  0.00     0.120 C 
HETATM    8  N5  UNL     1      21.634   0.689  53.697  1.00  0.00    -0.237 NA
HETATM    9  C20 UNL     1      22.050  -0.694  53.545  1.00  0.00     0.234 C 
HETATM   10  N6  UNL     1      23.294  -0.977  53.375  1.00  0.00    -0.245 NA
ENDROOT
BRANCH   4  11
HETATM   11  N2  UNL     1      21.239   1.854  50.364  1.00  0.00    -0.308 N 
HETATM   12  C10 UNL     1      21.126   1.638  48.970  1.00  0.00     0.246 C 
HETATM   13  O1  UNL     1      21.793   0.640  48.616  1.00  0.00    -0.268 OA
HETATM   14  H11 UNL     1      20.735   2.661  50.841  1.00  0.00     0.170 HD
BRANCH  12  15
HETATM   15  C11 UNL     1      20.330   2.500  48.131  1.00  0.00     0.072 C 
HETATM   16  C12 UNL     1      20.836   3.494  47.428  1.00  0.00     0.008 C 
BRANCH  16  17
HETATM   17  C13 UNL     1      22.184   4.048  47.236  1.00  0.00     0.300 C 
BRANCH  17  18
HETATM   18  N3  UNL     1      22.448   5.119  48.202  1.00  0.00     0.091 N 
HETATM   19  C14 UNL     1      23.308   4.572  49.205  1.00  0.00     0.273 C 
HETATM   20  C15 UNL     1      24.678   5.125  48.941  1.00  0.00     0.032 C 
HETATM   21  C16 UNL     1      24.316   6.545  48.485  1.00  0.00     0.032 C 
HETATM   22  C17 UNL     1      23.133   6.236  47.589  1.00  0.00     0.273 C 
ENDBRANCH  17  18
ENDBRANCH  16  17
ENDBRANCH  12  15
ENDBRANCH   4  11
BRANCH   1  23
HETATM   23  C5  UNL     1      25.380  -0.482  54.267  1.00  0.00     0.207 C 
BRANCH  23  24
HETATM   24  N1  UNL     1      26.282  -1.254  53.407  1.00  0.00    -0.296 NA
HETATM   25  C4  UNL     1      27.439  -0.812  53.097  1.00  0.00     0.110 C 
BRANCH  25  26
HETATM   26  C3  UNL     1      28.150   0.414  53.434  1.00  0.00     0.014 C 
HETATM   27  C2  UNL     1      29.432   0.327  53.753  1.00  0.00    -0.029 C 
HETATM   28  C1  UNL     1      29.860  -1.110  53.681  1.00  0.00     0.036 C 
ENDBRANCH  25  26
ENDBRANCH  23  24
ENDBRANCH   1  23
TORSDOF 7
ENDMDL
MODEL 5
REMARK VINA RESULT:      -7.6      1.611      7.460
REMARK  7 active torsions:
REMARK  status: ('A' for Active; 'I' for Inactive)
REMARK    1  A    between atoms: C3_3  and  C4_4 
REMARK    2  A    between atoms: N1_5  and  C5_6 
REMARK    3  A    between atoms: C5_6  and  C6_7 
REMARK    4  A    between atoms: C9_10  and  N2_11 
REMARK       I    between atoms: N2_11  and  C10_12 
REMARK    5  A    between atoms: C10_12  and  C11_14 
REMARK    6  A    between atoms: C12_15  and  C13_16 
REMARK    7  A    between atoms: C13_16  and  N3_17 
ROOT
HETATM    1  C6  UNL     1      26.594   5.669  48.957  1.00  0.00     0.055 C 
HETATM    2  C7  UNL     1      26.805   4.391  49.204  1.00  0.00     0.033 C 
HETATM    3  C8  UNL     1      26.203   3.295  49.944  1.00  0.00     0.052 C 
HETATM    4  C9  UNL     1      25.106   3.333  50.675  1.00  0.00     0.131 C 
HETATM    5  N4  UNL     1      24.061   4.179  51.142  1.00  0.00    -0.226 NA
HETATM    6  C18 UNL     1      22.927   3.957  50.555  1.00  0.00     0.121 C 
HETATM    7  C19 UNL     1      23.025   3.931  49.270  1.00  0.00     0.120 C 
HETATM    8  N5  UNL     1      24.062   4.518  48.791  1.00  0.00    -0.237 NA
HETATM    9  C20 UNL     1      24.271   5.789  49.463  1.00  0.00     0.234 C 
HETATM   10  N6  UNL     1      25.452   6.298  49.525  1.00  0.00    -0.245 NA
ENDROOT
BRANCH   4  11
HETATM   11  N2  UNL     1      24.764   2.086  51.284  1.00  0.00    -0.308 N 
HETATM   12  C10 UNL     1      24.927   1.728  52.643  1.00  0.00     0.246 C 
HETATM   13  O1  UNL     1      25.429   2.670  53.297  1.00  0.00    -0.268 OA
HETATM   14  H11 UNL     1      24.348   1.405  50.579  1.00  0.00     0.170 HD
BRANCH  12  15
HETATM   15  C11 UNL     1      24.543   0.429  53.137  1.00  0.00     0.072 C 
HETATM   16  C12 UNL     1      25.354  -0.611  53.144  1.00  0.00     0.008 C 
BRANCH  16  17
HETATM   17  C13 UNL     1      26.742  -0.847  52.725  1.00  0.00     0.300 C 
BRANCH  17  18
HETATM   18  N3  UNL     1      27.645  -0.815  53.879  1.00  0.00     0.091 N 
HETATM   19  C14 UNL     1      28.879  -1.402  53.458  1.00  0.00     0.273 C 
HETATM   20  C15 UNL     1      29.849  -0.271  53.275  1.00  0.00     0.032 C 
HETATM   21  C16 UNL     1      29.426   0.643  54.433  1.00  0.00     0.032 C 
HETATM   22  C17 UNL     1      27.919   0.539  54.308  1.00  0.00     0.273 C 
ENDBRANCH  17  18
ENDBRANCH  16  17
ENDBRANCH  12  15
ENDBRANCH   4  11
BRANCH   1  23
HETATM   23  C5  UNL     1      27.278   6.755  48.166  1.00  0.00     0.207 C 
BRANCH  23  24
HETATM   24  N1  UNL     1      28.681   6.334  48.118  1.00  0.00    -0.296 NA
HETATM   25  C4  UNL     1      29.624   7.146  48.401  1.00  0.00     0.110 C 
BRANCH  25  26
HETATM   26  C3  UNL     1      29.634   8.546  48.803  1.00  0.00     0.014 C 
HETATM   27  C2  UNL     1      30.752   9.046  49.306  1.00  0.00    -0.029 C 
HETATM   28  C1  UNL     1      31.801   7.972  49.335  1.00  0.00     0.036 C 
ENDBRANCH  25  26
ENDBRANCH  23  24
ENDBRANCH   1  23
TORSDOF 7
ENDMDL
MODEL 6
REMARK VINA RESULT:      -7.5      1.940      2.662
REMARK  7 active torsions:
REMARK  status: ('A' for Active; 'I' for Inactive)
REMARK    1  A    between atoms: C3_3  and  C4_4 
REMARK    2  A    between atoms: N1_5  and  C5_6 
REMARK    3  A    between atoms: C5_6  and  C6_7 
REMARK    4  A    between atoms: C9_10  and  N2_11 
REMARK       I    between atoms: N2_11  and  C10_12 
REMARK    5  A    between atoms: C10_12  and  C11_14 
REMARK    6  A    between atoms: C12_15  and  C13_16 
REMARK    7  A    between atoms: C13_16  and  N3_17 
ROOT
HETATM    1  C6  UNL     1      25.100   0.726  53.791  1.00  0.00     0.055 C 
HETATM    2  C7  UNL     1      25.168   1.993  53.432  1.00  0.00     0.033 C 
HETATM    3  C8  UNL     1      24.632   2.885  52.417  1.00  0.00     0.052 C 
HETATM    4  C9  UNL     1      23.802   2.574  51.440  1.00  0.00     0.131 C 
HETATM    5  N4  UNL     1      23.076   1.507  50.841  1.00  0.00    -0.226 NA
HETATM    6  C18 UNL     1      21.803   1.563  51.078  1.00  0.00     0.121 C 
HETATM    7  C19 UNL     1      21.533   1.723  52.328  1.00  0.00     0.120 C 
HETATM    8  N5  UNL     1      22.475   1.388  53.136  1.00  0.00    -0.237 NA
HETATM    9  C20 UNL     1      23.060   0.125  52.723  1.00  0.00     0.234 C 
HETATM   10  N6  UNL     1      24.275  -0.156  53.039  1.00  0.00    -0.245 NA
ENDROOT
BRANCH   4  11
HETATM   11  N2  UNL     1      23.453   3.673  50.597  1.00  0.00    -0.308 N 
HETATM   12  C10 UNL     1      24.143   4.116  49.444  1.00  0.00     0.246 C 
HETATM   13  O1  UNL     1      25.150   3.406  49.225  1.00  0.00    -0.268 OA
HETATM   14  H11 UNL     1      22.569   4.161  50.933  1.00  0.00     0.170 HD
BRANCH  12  15
HETATM   15  C11 UNL     1      23.687   5.248  48.675  1.00  0.00     0.072 C 
HETATM   16  C12 UNL     1      24.390   6.354  48.530  1.00  0.00     0.008 C 
BRANCH  16  17
HETATM   17  C13 UNL     1      25.700   6.821  49.005  1.00  0.00     0.300 C 
BRANCH  17  18
HETATM   18  N3  UNL     1      26.733   6.592  47.991  1.00  0.00     0.091 N 
HETATM   19  C14 UNL     1      27.404   7.838  47.791  1.00  0.00     0.273 C 
HETATM   20  C15 UNL     1      28.733   7.723  48.480  1.00  0.00     0.032 C 
HETATM   21  C16 UNL     1      29.068   6.255  48.183  1.00  0.00     0.032 C 
HETATM   22  C17 UNL     1      27.712   5.624  48.433  1.00  0.00     0.273 C 
ENDBRANCH  17  18
ENDBRANCH  16  17
ENDBRANCH  12  15
ENDBRANCH   4  11
BRANCH   1  23
HETATM   23  C5  UNL     1      25.698  -0.135  54.874  1.00  0.00     0.207 C 
BRANCH  23  24
HETATM   24  N1  UNL     1      27.044   0.412  55.065  1.00  0.00    -0.296 NA
HETATM   25  C4  UNL     1      28.044  -0.055  54.424  1.00  0.00     0.110 C 
BRANCH  25  26
HETATM   26  C3  UNL     1      28.175  -1.120  53.439  1.00  0.00     0.014 C 
HETATM   27  C2  UNL     1      29.392  -1.517  53.102  1.00  0.00    -0.029 C 
HETATM   28  C1  UNL     1      30.400  -0.714  53.873  1.00  0.00     0.036 C 
ENDBRANCH  25  26
ENDBRANCH  23  24
ENDBRANCH   1  23
TORSDOF 7
ENDMDL
MODEL 7
REMARK VINA RESULT:      -7.4      3.997      5.139
REMARK  7 active torsions:
REMARK  status: ('A' for Active; 'I' for Inactive)
REMARK    1  A    between atoms: C3_3  and  C4_4 
REMARK    2  A    between atoms: N1_5  and  C5_6 
REMARK    3  A    between atoms: C5_6  and  C6_7 
REMARK    4  A    between atoms: C9_10  and  N2_11 
REMARK       I    between atoms: N2_11  and  C10_12 
REMARK    5  A    between atoms: C10_12  and  C11_14 
REMARK    6  A    between atoms: C12_15  and  C13_16 
REMARK    7  A    between atoms: C13_16  and  N3_17 
ROOT
HETATM    1  C6  UNL     1      24.366   0.045  53.539  1.00  0.00     0.055 C 
HETATM    2  C7  UNL     1      24.241   1.263  53.048  1.00  0.00     0.033 C 
HETATM    3  C8  UNL     1      23.357   2.018  52.177  1.00  0.00     0.052 C 
HETATM    4  C9  UNL     1      22.277   1.577  51.560  1.00  0.00     0.131 C 
HETATM    5  N4  UNL     1      21.461   0.432  51.343  1.00  0.00    -0.226 NA
HETATM    6  C18 UNL     1      20.330   0.487  51.975  1.00  0.00     0.121 C 
HETATM    7  C19 UNL     1      20.467   0.786  53.221  1.00  0.00     0.120 C 
HETATM    8  N5  UNL     1      21.635   0.568  53.708  1.00  0.00    -0.237 NA
HETATM    9  C20 UNL     1      22.130  -0.722  53.261  1.00  0.00     0.234 C 
HETATM   10  N6  UNL     1      23.397  -0.937  53.192  1.00  0.00    -0.245 NA
ENDROOT
BRANCH   4  11
HETATM   11  N2  UNL     1      21.612   2.562  50.768  1.00  0.00    -0.308 N 
HETATM   12  C10 UNL     1      21.055   3.783  51.217  1.00  0.00     0.246 C 
HETATM   13  O1  UNL     1      21.214   3.920  52.451  1.00  0.00    -0.268 OA
HETATM   14  H11 UNL     1      21.571   2.280  49.742  1.00  0.00     0.170 HD
BRANCH  12  15
HETATM   15  C11 UNL     1      20.404   4.698  50.313  1.00  0.00     0.072 C 
HETATM   16  C12 UNL     1      20.755   5.963  50.188  1.00  0.00     0.008 C 
BRANCH  16  17
HETATM   17  C13 UNL     1      21.774   6.823  50.805  1.00  0.00     0.300 C 
BRANCH  17  18
HETATM   18  N3  UNL     1      22.768   7.246  49.813  1.00  0.00     0.091 N 
HETATM   19  C14 UNL     1      23.782   7.964  50.520  1.00  0.00     0.273 C 
HETATM   20  C15 UNL     1      24.968   7.048  50.610  1.00  0.00     0.032 C 
HETATM   21  C16 UNL     1      24.886   6.358  49.242  1.00  0.00     0.032 C 
HETATM   22  C17 UNL     1      23.392   6.114  49.164  1.00  0.00     0.273 C 
ENDBRANCH  17  18
ENDBRANCH  16  17
ENDBRANCH  12  15
ENDBRANCH   4  11
BRANCH   1  23
HETATM   23  C5  UNL     1      25.329  -0.670  54.452  1.00  0.00     0.207 C 
BRANCH  23  24
HETATM   24  N1  UNL     1      26.280  -1.312  53.539  1.00  0.00    -0.296 NA
HETATM   25  C4  UNL     1      27.408  -0.776  53.277  1.00  0.00     0.110 C 
BRANCH  25  26
HETATM   26  C3  UNL     1      28.041   0.458  53.720  1.00  0.00     0.014 C 
HETATM   27  C2  UNL     1      29.359   0.474  53.857  1.00  0.00    -0.029 C 
HETATM   28  C1  UNL     1      29.905  -0.877  53.494  1.00  0.00     0.036 C 
ENDBRANCH  25  26
ENDBRANCH  23  24
ENDBRANCH   1  23
TORSDOF 7
ENDMDL
MODEL 8
REMARK VINA RESULT:      -7.4      4.597      6.154
REMARK  7 active torsions:
REMARK  status: ('A' for Active; 'I' for Inactive)
REMARK    1  A    between atoms: C3_3  and  C4_4 
REMARK    2  A    between atoms: N1_5  and  C5_6 
REMARK    3  A    between atoms: C5_6  and  C6_7 
REMARK    4  A    between atoms: C9_10  and  N2_11 
REMARK       I    between atoms: N2_11  and  C10_12 
REMARK    5  A    between atoms: C10_12  and  C11_14 
REMARK    6  A    between atoms: C12_15  and  C13_16 
REMARK    7  A    between atoms: C13_16  and  N3_17 
ROOT
HETATM    1  C6  UNL     1      24.575   0.343  53.579  1.00  0.00     0.055 C 
HETATM    2  C7  UNL     1      23.468   0.179  52.879  1.00  0.00     0.033 C 
HETATM    3  C8  UNL     1      22.523   0.966  52.107  1.00  0.00     0.052 C 
HETATM    4  C9  UNL     1      22.557   2.268  51.891  1.00  0.00     0.131 C 
HETATM    5  N4  UNL     1      23.279   3.462  52.165  1.00  0.00    -0.226 NA
HETATM    6  C18 UNL     1      23.952   3.895  51.144  1.00  0.00     0.121 C 
HETATM    7  C19 UNL     1      24.674   2.978  50.596  1.00  0.00     0.120 C 
HETATM    8  N5  UNL     1      24.936   1.970  51.347  1.00  0.00    -0.237 NA
HETATM    9  C20 UNL     1      25.306   2.420  52.677  1.00  0.00     0.234 C 
HETATM   10  N6  UNL     1      25.128   1.648  53.691  1.00  0.00    -0.245 NA
ENDROOT
BRANCH   4  11
HETATM   11  N2  UNL     1      21.481   2.756  51.087  1.00  0.00    -0.308 N 
HETATM   12  C10 UNL     1      20.247   3.277  51.542  1.00  0.00     0.246 C 
HETATM   13  O1  UNL     1      20.190   3.268  52.793  1.00  0.00    -0.268 OA
HETATM   14  H11 UNL     1      21.703   2.689  50.049  1.00  0.00     0.170 HD
BRANCH  12  15
HETATM   15  C11 UNL     1      19.234   3.739  50.625  1.00  0.00     0.072 C 
HETATM   16  C12 UNL     1      19.418   4.744  49.791  1.00  0.00     0.008 C 
BRANCH  16  17
HETATM   17  C13 UNL     1      20.531   5.655  49.494  1.00  0.00     0.300 C 
BRANCH  17  18
HETATM   18  N3  UNL     1      20.926   5.552  48.086  1.00  0.00     0.091 N 
HETATM   19  C14 UNL     1      22.283   5.103  48.066  1.00  0.00     0.273 C 
HETATM   20  C15 UNL     1      22.248   3.657  47.664  1.00  0.00     0.032 C 
HETATM   21  C16 UNL     1      21.104   3.684  46.643  1.00  0.00     0.032 C 
HETATM   22  C17 UNL     1      20.124   4.581  47.374  1.00  0.00     0.273 C 
ENDBRANCH  17  18
ENDBRANCH  16  17
ENDBRANCH  12  15
ENDBRANCH   4  11
BRANCH   1  23
HETATM   23  C5  UNL     1      25.511  -0.541  54.362  1.00  0.00     0.207 C 
BRANCH  23  24
HETATM   24  N1  UNL     1      26.223  -1.309  53.336  1.00  0.00    -0.296 NA
HETATM   25  C4  UNL     1      27.413  -1.005  52.992  1.00  0.00     0.110 C 
BRANCH  25  26
HETATM   26  C3  UNL     1      28.331   0.039  53.426  1.00  0.00     0.014 C 
HETATM   27  C2  UNL     1      29.586  -0.295  53.682  1.00  0.00    -0.029 C 
HETATM   28  C1  UNL     1      29.760  -1.767  53.443  1.00  0.00     0.036 C 
ENDBRANCH  25  26
ENDBRANCH  23  24
ENDBRANCH   1  23
TORSDOF 7
ENDMDL
MODEL 9
REMARK VINA RESULT:      -7.3      4.590      5.969
REMARK  7 active torsions:
REMARK  status: ('A' for Active; 'I' for Inactive)
REMARK    1  A    between atoms: C3_3  and  C4_4 
REMARK    2  A    between atoms: N1_5  and  C5_6 
REMARK    3  A    between atoms: C5_6  and  C6_7 
REMARK    4  A    between atoms: C9_10  and  N2_11 
REMARK       I    between atoms: N2_11  and  C10_12 
REMARK    5  A    between atoms: C10_12  and  C11_14 
REMARK    6  A    between atoms: C12_15  and  C13_16 
REMARK    7  A    between atoms: C13_16  and  N3_17 
ROOT
HETATM    1  C6  UNL     1      24.313   0.396  53.333  1.00  0.00     0.055 C 
HETATM    2  C7  UNL     1      23.177   0.320  52.667  1.00  0.00     0.033 C 
HETATM    3  C8  UNL     1      22.253   1.187  51.956  1.00  0.00     0.052 C 
HETATM    4  C9  UNL     1      22.355   2.492  51.783  1.00  0.00     0.131 C 
HETATM    5  N4  UNL     1      23.153   3.633  52.073  1.00  0.00    -0.226 NA
HETATM    6  C18 UNL     1      23.816   4.064  51.045  1.00  0.00     0.121 C 
HETATM    7  C19 UNL     1      24.466   3.129  50.441  1.00  0.00     0.120 C 
HETATM    8  N5  UNL     1      24.694   2.080  51.147  1.00  0.00    -0.237 NA
HETATM    9  C20 UNL     1      25.132   2.461  52.479  1.00  0.00     0.234 C 
HETATM   10  N6  UNL     1      24.943   1.664  53.471  1.00  0.00    -0.245 NA
ENDROOT
BRANCH   4  11
HETATM   11  N2  UNL     1      21.283   3.068  51.034  1.00  0.00    -0.308 N 
HETATM   12  C10 UNL     1      20.043   3.528  51.538  1.00  0.00     0.246 C 
HETATM   13  O1  UNL     1      19.977   3.369  52.778  1.00  0.00    -0.268 OA
HETATM   14  H11 UNL     1      21.514   3.127  49.997  1.00  0.00     0.170 HD
BRANCH  12  15
HETATM   15  C11 UNL     1      19.036   4.092  50.674  1.00  0.00     0.072 C 
HETATM   16  C12 UNL     1      19.299   4.999  49.753  1.00  0.00     0.008 C 
BRANCH  16  17
HETATM   17  C13 UNL     1      20.510   5.695  49.298  1.00  0.00     0.300 C 
BRANCH  17  18
HETATM   18  N3  UNL     1      20.549   7.065  49.820  1.00  0.00     0.091 N 
HETATM   19  C14 UNL     1      21.597   7.111  50.791  1.00  0.00     0.273 C 
HETATM   20  C15 UNL     1      22.744   7.835  50.148  1.00  0.00     0.032 C 
HETATM   21  C16 UNL     1      21.980   8.886  49.331  1.00  0.00     0.032 C 
HETATM   22  C17 UNL     1      20.860   8.024  48.783  1.00  0.00     0.273 C 
ENDBRANCH  17  18
ENDBRANCH  16  17
ENDBRANCH  12  15
ENDBRANCH   4  11
BRANCH   1  23
HETATM   23  C5  UNL     1      25.222  -0.566  54.053  1.00  0.00     0.207 C 
BRANCH  23  24
HETATM   24  N1  UNL     1      26.035  -1.158  52.987  1.00  0.00    -0.296 NA
HETATM   25  C4  UNL     1      27.276  -0.886  52.874  1.00  0.00     0.110 C 
BRANCH  25  26
HETATM   26  C3  UNL     1      28.173  -0.031  53.640  1.00  0.00     0.014 C 
HETATM   27  C2  UNL     1      29.385  -0.484  53.920  1.00  0.00    -0.029 C 
HETATM   28  C1  UNL     1      29.541  -1.859  53.337  1.00  0.00     0.036 C 
ENDBRANCH  25  26
ENDBRANCH  23  24
ENDBRANCH   1  23
TORSDOF 7
ENDMDL
