MODEL 1
REMARK VINA RESULT:      -9.1      0.000      0.000
REMARK  2 active torsions:
REMARK  status: ('A' for Active; 'I' for Inactive)
REMARK    1  A    between atoms: C1_2  and  C2_3 
REMARK    2  A    between atoms: C2_3  and  C3_4 
ROOT
HETATM    1  C3  UNL     1      21.582   2.159  52.520  1.00  0.00    -0.038 C 
HETATM    2  C4  UNL     1      22.264   0.941  52.704  1.00  0.00    -0.003 C 
HETATM    3  C5  UNL     1      21.284  -0.079  52.948  1.00  0.00     0.130 C 
HETATM    4  N1  UNL     1      21.425  -1.048  53.803  1.00  0.00    -0.253 NA
HETATM    5  C6  UNL     1      22.554  -1.275  54.641  1.00  0.00     0.233 C 
HETATM    6  N2  UNL     1      23.809  -0.893  54.521  1.00  0.00    -0.241 NA
HETATM    7  C7  UNL     1      24.371  -0.108  53.444  1.00  0.00     0.077 C 
HETATM    8  C8  UNL     1      25.803  -0.178  53.348  1.00  0.00    -0.005 A 
HETATM    9  C9  UNL     1      26.461  -1.349  52.963  1.00  0.00     0.014 A 
HETATM   10  C10 UNL     1      27.824  -1.529  52.916  1.00  0.00     0.002 A 
HETATM   11  C11 UNL     1      28.615  -0.473  53.275  1.00  0.00     0.019 A 
HETATM   12  C12 UNL     1      28.082   0.748  53.678  1.00  0.00     0.011 A 
HETATM   13 BR1  UNL     1      29.145   2.242  54.186  1.00  0.00    -0.051 Br
HETATM   14  C13 UNL     1      26.707   0.837  53.696  1.00  0.00     0.032 A 
HETATM   15  C14 UNL     1      23.757   0.693  52.627  1.00  0.00     0.007 C 
HETATM   16  C15 UNL     1      24.422   1.338  51.503  1.00  0.00     0.212 C 
HETATM   17  O2  UNL     1      25.719   1.716  51.443  1.00  0.00    -0.358 OA
HETATM   18  C16 UNL     1      26.131   2.667  50.454  1.00  0.00     0.442 A 
HETATM   19  N3  UNL     1      25.691   4.060  50.957  1.00  0.00     0.152 N 
HETATM   20  C17 UNL     1      24.397   4.431  51.654  1.00  0.00     0.393 A 
HETATM   21  O3  UNL     1      25.134   3.609  51.126  1.00  0.00     0.000 OA
HETATM   22  O4  UNL     1      23.095   4.398  52.275  1.00  0.00    -0.340 OA
HETATM   23  C18 UNL     1      22.379   3.277  52.349  1.00  0.00     0.207 C 
HETATM   24  H14 UNL     1      26.293   4.995  50.872  1.00  0.00     0.323 HD
ENDROOT
BRANCH   1  25
HETATM   25  C2  UNL     1      20.144   2.293  52.573  1.00  0.00     0.106 C 
BRANCH  25  26
HETATM   26  C1  UNL     1      19.608   3.506  51.852  1.00  0.00     0.235 C 
HETATM   27  O1  UNL     1      18.480   3.901  51.837  1.00  0.00    -0.307 OA
ENDBRANCH  25  26
ENDBRANCH   1  25
TORSDOF 2
ENDMDL
MODEL 2
REMARK VINA RESULT:      -9.0      2.631      5.835
REMARK  2 active torsions:
REMARK  status: ('A' for Active; 'I' for Inactive)
REMARK    1  A    between atoms: C1_2  and  C2_3 
REMARK    2  A    between atoms: C2_3  and  C3_4 
ROOT
HETATM    1  C3  UNL     1      27.367   1.759  53.295  1.00  0.00    -0.038 C 
HETATM    2  C4  UNL     1      26.155   1.284  53.831  1.00  0.00    -0.003 C 
HETATM    3  C5  UNL     1      26.458   0.580  55.045  1.00  0.00     0.130 C 
HETATM    4  N1  UNL     1      25.874  -0.518  55.426  1.00  0.00    -0.253 NA
HETATM    5  C6  UNL     1      24.845  -1.212  54.727  1.00  0.00     0.233 C 
HETATM    6  N2  UNL     1      23.979  -0.793  53.827  1.00  0.00    -0.241 NA
HETATM    7  C7  UNL     1      23.859   0.551  53.307  1.00  0.00     0.077 C 
HETATM    8  C8  UNL     1      22.604   0.824  52.662  1.00  0.00    -0.005 A 
HETATM    9  C9  UNL     1      21.405   0.892  53.376  1.00  0.00     0.014 A 
HETATM   10  C10 UNL     1      20.153   1.073  52.835  1.00  0.00     0.002 A 
HETATM   11  C11 UNL     1      20.064   1.199  51.475  1.00  0.00     0.019 A 
HETATM   12  C12 UNL     1      21.185   1.149  50.652  1.00  0.00     0.011 A 
HETATM   13 BR1  UNL     1      21.105   1.320  48.759  1.00  0.00    -0.051 Br
HETATM   14  C13 UNL     1      22.396   0.964  51.281  1.00  0.00     0.032 A 
HETATM   15  C14 UNL     1      24.756   1.489  53.287  1.00  0.00     0.007 C 
HETATM   16  C15 UNL     1      24.471   2.847  52.841  1.00  0.00     0.212 C 
HETATM   17  O2  UNL     1      23.571   3.213  51.901  1.00  0.00    -0.358 OA
HETATM   18  C16 UNL     1      23.670   4.508  51.298  1.00  0.00     0.442 A 
HETATM   19  N3  UNL     1      24.809   4.435  50.256  1.00  0.00     0.152 N 
HETATM   20  C17 UNL     1      26.140   3.720  50.383  1.00  0.00     0.393 A 
HETATM   21  O3  UNL     1      25.051   4.048  50.835  1.00  0.00     0.000 OA
HETATM   22  O4  UNL     1      27.260   2.943  50.856  1.00  0.00    -0.340 OA
HETATM   23  C18 UNL     1      27.276   2.402  52.073  1.00  0.00     0.207 C 
HETATM   24  H14 UNL     1      24.790   4.909  49.247  1.00  0.00     0.323 HD
ENDROOT
BRANCH   1  25
HETATM   25  C2  UNL     1      28.658   1.547  53.909  1.00  0.00     0.106 C 
BRANCH  25  26
HETATM   26  C1  UNL     1      29.388   0.325  53.409  1.00  0.00     0.235 C 
HETATM   27  O1  UNL     1      29.660  -0.662  54.027  1.00  0.00    -0.307 OA
ENDBRANCH  25  26
ENDBRANCH   1  25
TORSDOF 2
ENDMDL
MODEL 3
REMARK VINA RESULT:      -8.7      2.818      4.625
REMARK  2 active torsions:
REMARK  status: ('A' for Active; 'I' for Inactive)
REMARK    1  A    between atoms: C1_2  and  C2_3 
REMARK    2  A    between atoms: C2_3  and  C3_4 
ROOT
HETATM    1  C3  UNL     1      22.185   0.416  53.610  1.00  0.00    -0.038 C 
HETATM    2  C4  UNL     1      23.492   0.590  53.116  1.00  0.00    -0.003 C 
HETATM    3  C5  UNL     1      24.344  -0.353  53.786  1.00  0.00     0.130 C 
HETATM    4  N1  UNL     1      25.556  -0.100  54.180  1.00  0.00    -0.253 NA
HETATM    5  C6  UNL     1      26.254   1.132  54.026  1.00  0.00     0.233 C 
HETATM    6  N2  UNL     1      26.082   2.119  53.170  1.00  0.00    -0.241 NA
HETATM    7  C7  UNL     1      25.087   2.189  52.123  1.00  0.00     0.077 C 
HETATM    8  C8  UNL     1      25.372   3.159  51.102  1.00  0.00    -0.005 A 
HETATM    9  C9  UNL     1      26.435   3.002  50.210  1.00  0.00     0.014 A 
HETATM   10  C10 UNL     1      26.827   3.909  49.253  1.00  0.00     0.002 A 
HETATM   11  C11 UNL     1      26.116   5.075  49.159  1.00  0.00     0.019 A 
HETATM   12  C12 UNL     1      25.035   5.352  49.990  1.00  0.00     0.011 A 
HETATM   13 BR1  UNL     1      24.020   6.958  49.892  1.00  0.00    -0.051 Br
HETATM   14  C13 UNL     1      24.716   4.385  50.918  1.00  0.00     0.032 A 
HETATM   15  C14 UNL     1      23.959   1.551  52.042  1.00  0.00     0.007 C 
HETATM   16  C15 UNL     1      23.095   1.619  50.870  1.00  0.00     0.212 C 
HETATM   17  O2  UNL     1      22.955   2.671  50.033  1.00  0.00    -0.358 OA
HETATM   18  C16 UNL     1      21.811   2.740  49.174  1.00  0.00     0.442 A 
HETATM   19  N3  UNL     1      20.621   3.205  50.044  1.00  0.00     0.152 N 
HETATM   20  C17 UNL     1      20.291   2.791  51.464  1.00  0.00     0.393 A 
HETATM   21  O3  UNL     1      20.997   2.733  50.466  1.00  0.00     0.000 OA
HETATM   22  O4  UNL     1      20.304   2.183  52.772  1.00  0.00    -0.340 OA
HETATM   23  C18 UNL     1      21.236   1.301  53.128  1.00  0.00     0.207 C 
HETATM   24  H14 UNL     1      19.837   3.930  49.726  1.00  0.00     0.323 HD
ENDROOT
BRANCH   1  25
HETATM   25  C2  UNL     1      21.826  -0.560  54.612  1.00  0.00     0.106 C 
BRANCH  25  26
HETATM   26  C1  UNL     1      20.898  -1.643  54.117  1.00  0.00     0.235 C 
HETATM   27  O1  UNL     1      19.733  -1.542  53.868  1.00  0.00    -0.307 OA
ENDBRANCH  25  26
ENDBRANCH   1  25
TORSDOF 2
ENDMDL
MODEL 4
REMARK VINA RESULT:      -8.4      2.576      5.949
REMARK  2 active torsions:
REMARK  status: ('A' for Active; 'I' for Inactive)
REMARK    1  A    between atoms: C1_2  and  C2_3 
REMARK    2  A    between atoms: C2_3  and  C3_4 
ROOT
HETATM    1  C3  UNL     1      26.151   0.877  52.455  1.00  0.00    -0.038 C 
HETATM    2  C4  UNL     1      24.794   0.882  52.829  1.00  0.00    -0.003 C 
HETATM    3  C5  UNL     1      24.607  -0.142  53.818  1.00  0.00     0.130 C 
HETATM    4  N1  UNL     1      23.567  -0.919  53.887  1.00  0.00    -0.253 NA
HETATM    5  C6  UNL     1      22.441  -0.901  53.015  1.00  0.00     0.233 C 
HETATM    6  N2  UNL     1      21.961   0.054  52.246  1.00  0.00    -0.241 NA
HETATM    7  C7  UNL     1      22.493   1.390  52.097  1.00  0.00     0.077 C 
HETATM    8  C8  UNL     1      21.570   2.334  51.529  1.00  0.00    -0.005 A 
HETATM    9  C9  UNL     1      20.433   2.762  52.218  1.00  0.00     0.014 A 
HETATM   10  C10 UNL     1      19.459   3.600  51.726  1.00  0.00     0.002 A 
HETATM   11  C11 UNL     1      19.610   4.062  50.447  1.00  0.00     0.019 A 
HETATM   12  C12 UNL     1      20.699   3.709  49.656  1.00  0.00     0.011 A 
HETATM   13 BR1  UNL     1      20.946   4.330  47.875  1.00  0.00    -0.051 Br
HETATM   14  C13 UNL     1      21.623   2.865  50.232  1.00  0.00     0.032 A 
HETATM   15  C14 UNL     1      23.699   1.808  52.338  1.00  0.00     0.007 C 
HETATM   16  C15 UNL     1      24.080   3.212  52.262  1.00  0.00     0.212 C 
HETATM   17  O2  UNL     1      23.552   4.146  51.440  1.00  0.00    -0.358 OA
HETATM   18  C16 UNL     1      24.271   5.362  51.202  1.00  0.00     0.442 A 
HETATM   19  N3  UNL     1      25.395   5.031  50.194  1.00  0.00     0.152 N 
HETATM   20  C17 UNL     1      26.266   3.791  50.147  1.00  0.00     0.393 A 
HETATM   21  O3  UNL     1      25.372   4.456  50.653  1.00  0.00     0.000 OA
HETATM   22  O4  UNL     1      26.876   2.511  50.413  1.00  0.00    -0.340 OA
HETATM   23  C18 UNL     1      26.502   1.756  51.444  1.00  0.00     0.207 C 
HETATM   24  H14 UNL     1      25.711   5.682  49.346  1.00  0.00     0.323 HD
ENDROOT
BRANCH   1  25
HETATM   25  C2  UNL     1      27.137  -0.022  53.010  1.00  0.00     0.106 C 
BRANCH  25  26
HETATM   26  C1  UNL     1      28.256   0.667  53.751  1.00  0.00     0.235 C 
HETATM   27  O1  UNL     1      28.301   0.928  54.917  1.00  0.00    -0.307 OA
ENDBRANCH  25  26
ENDBRANCH   1  25
TORSDOF 2
ENDMDL
MODEL 5
REMARK VINA RESULT:      -8.3      3.103      5.779
REMARK  2 active torsions:
REMARK  status: ('A' for Active; 'I' for Inactive)
REMARK    1  A    between atoms: C1_2  and  C2_3 
REMARK    2  A    between atoms: C2_3  and  C3_4 
ROOT
HETATM    1  C3  UNL     1      25.563   3.441  50.059  1.00  0.00    -0.038 C 
HETATM    2  C4  UNL     1      25.396   2.613  51.185  1.00  0.00    -0.003 C 
HETATM    3  C5  UNL     1      26.702   2.266  51.672  1.00  0.00     0.130 C 
HETATM    4  N1  UNL     1      27.029   1.095  52.132  1.00  0.00    -0.253 NA
HETATM    5  C6  UNL     1      26.173  -0.039  52.240  1.00  0.00     0.233 C 
HETATM    6  N2  UNL     1      24.861  -0.125  52.310  1.00  0.00    -0.241 NA
HETATM    7  C7  UNL     1      23.923   0.976  52.295  1.00  0.00     0.077 C 
HETATM    8  C8  UNL     1      22.613   0.642  52.784  1.00  0.00    -0.005 A 
HETATM    9  C9  UNL     1      22.381   0.339  54.128  1.00  0.00     0.014 A 
HETATM   10  C10 UNL     1      21.182  -0.063  54.669  1.00  0.00     0.002 A 
HETATM   11  C11 UNL     1      20.114  -0.179  53.823  1.00  0.00     0.019 A 
HETATM   12  C12 UNL     1      20.215   0.094  52.462  1.00  0.00     0.011 A 
HETATM   13 BR1  UNL     1      18.755  -0.054  51.251  1.00  0.00    -0.051 Br
HETATM   14  C13 UNL     1      21.454   0.489  52.009  1.00  0.00     0.032 A 
HETATM   15  C14 UNL     1      24.098   2.176  51.832  1.00  0.00     0.007 C 
HETATM   16  C15 UNL     1      23.109   3.235  51.986  1.00  0.00     0.212 C 
HETATM   17  O2  UNL     1      21.767   3.082  52.042  1.00  0.00    -0.358 OA
HETATM   18  C16 UNL     1      20.919   4.212  51.807  1.00  0.00     0.442 A 
HETATM   19  N3  UNL     1      20.884   4.439  50.279  1.00  0.00     0.152 N 
HETATM   20  C17 UNL     1      22.032   4.326  49.296  1.00  0.00     0.393 A 
HETATM   21  O3  UNL     1      21.583   4.265  50.433  1.00  0.00     0.000 OA
HETATM   22  O4  UNL     1      23.324   4.124  48.686  1.00  0.00    -0.340 OA
HETATM   23  C18 UNL     1      24.400   3.814  49.407  1.00  0.00     0.207 C 
HETATM   24  H14 UNL     1      19.979   4.718  49.691  1.00  0.00     0.323 HD
ENDROOT
BRANCH   1  25
HETATM   25  C2  UNL     1      26.849   3.840  49.535  1.00  0.00     0.106 C 
BRANCH  25  26
HETATM   26  C1  UNL     1      26.858   5.202  48.885  1.00  0.00     0.235 C 
HETATM   27  O1  UNL     1      27.721   5.678  48.209  1.00  0.00    -0.307 OA
ENDBRANCH  25  26
ENDBRANCH   1  25
TORSDOF 2
ENDMDL
MODEL 6
REMARK VINA RESULT:      -7.7      2.816      6.116
REMARK  2 active torsions:
REMARK  status: ('A' for Active; 'I' for Inactive)
REMARK    1  A    between atoms: C1_2  and  C2_3 
REMARK    2  A    between atoms: C2_3  and  C3_4 
ROOT
HETATM    1  C3  UNL     1      23.758   0.580  53.124  1.00  0.00    -0.038 C 
HETATM    2  C4  UNL     1      22.440   1.048  52.961  1.00  0.00    -0.003 C 
HETATM    3  C5  UNL     1      21.588   0.268  53.815  1.00  0.00     0.130 C 
HETATM    4  N1  UNL     1      20.396  -0.138  53.495  1.00  0.00    -0.253 NA
HETATM    5  C6  UNL     1      19.723   0.108  52.263  1.00  0.00     0.233 C 
HETATM    6  N2  UNL     1      19.891   1.055  51.363  1.00  0.00    -0.241 NA
HETATM    7  C7  UNL     1      20.853   2.134  51.416  1.00  0.00     0.077 C 
HETATM    8  C8  UNL     1      20.558   3.231  50.536  1.00  0.00    -0.005 A 
HETATM    9  C9  UNL     1      19.462   4.073  50.745  1.00  0.00     0.014 A 
HETATM   10  C10 UNL     1      19.062   5.096  49.918  1.00  0.00     0.002 A 
HETATM   11  C11 UNL     1      19.797   5.319  48.786  1.00  0.00     0.019 A 
HETATM   12  C12 UNL     1      20.911   4.550  48.464  1.00  0.00     0.011 A 
HETATM   13 BR1  UNL     1      21.961   4.826  46.901  1.00  0.00    -0.051 Br
HETATM   14  C13 UNL     1      21.237   3.547  49.350  1.00  0.00     0.032 A 
HETATM   15  C14 UNL     1      21.962   2.191  52.089  1.00  0.00     0.007 C 
HETATM   16  C15 UNL     1      22.788   3.389  52.152  1.00  0.00     0.212 C 
HETATM   17  O2  UNL     1      22.926   4.324  51.185  1.00  0.00    -0.358 OA
HETATM   18  C16 UNL     1      24.043   5.220  51.225  1.00  0.00     0.442 A 
HETATM   19  N3  UNL     1      25.271   4.433  50.715  1.00  0.00     0.152 N 
HETATM   20  C17 UNL     1      25.638   2.991  51.007  1.00  0.00     0.393 A 
HETATM   21  O3  UNL     1      24.898   3.957  51.136  1.00  0.00     0.000 OA
HETATM   22  O4  UNL     1      25.653   1.633  51.492  1.00  0.00    -0.340 OA
HETATM   23  C18 UNL     1      24.712   1.169  52.313  1.00  0.00     0.207 C 
HETATM   24  H14 UNL     1      26.062   4.840  50.043  1.00  0.00     0.323 HD
ENDROOT
BRANCH   1  25
HETATM   25  C2  UNL     1      24.126  -0.497  54.014  1.00  0.00     0.106 C 
BRANCH  25  26
HETATM   26  C1  UNL     1      25.600  -0.562  54.330  1.00  0.00     0.235 C 
HETATM   27  O1  UNL     1      26.113  -0.539  55.410  1.00  0.00    -0.307 OA
ENDBRANCH  25  26
ENDBRANCH   1  25
TORSDOF 2
ENDMDL
MODEL 7
REMARK VINA RESULT:      -7.3      3.793      7.537
REMARK  2 active torsions:
REMARK  status: ('A' for Active; 'I' for Inactive)
REMARK    1  A    between atoms: C1_2  and  C2_3 
REMARK    2  A    between atoms: C2_3  and  C3_4 
ROOT
HETATM    1  C3  UNL     1      23.386   0.947  52.827  1.00  0.00    -0.038 C 
HETATM    2  C4  UNL     1      23.149   1.853  51.775  1.00  0.00    -0.003 C 
HETATM    3  C5  UNL     1      24.423   2.321  51.303  1.00  0.00     0.130 C 
HETATM    4  N1  UNL     1      24.669   3.544  50.937  1.00  0.00    -0.253 NA
HETATM    5  C6  UNL     1      23.744   4.626  50.936  1.00  0.00     0.233 C 
HETATM    6  N2  UNL     1      22.427   4.636  50.891  1.00  0.00    -0.241 NA
HETATM    7  C7  UNL     1      21.559   3.482  50.825  1.00  0.00     0.077 C 
HETATM    8  C8  UNL     1      20.223   3.773  50.383  1.00  0.00    -0.005 A 
HETATM    9  C9  UNL     1      19.948   4.171  49.072  1.00  0.00     0.014 A 
HETATM   10  C10 UNL     1      18.717   4.540  48.582  1.00  0.00     0.002 A 
HETATM   11  C11 UNL     1      17.659   4.519  49.449  1.00  0.00     0.019 A 
HETATM   12  C12 UNL     1      17.801   4.141  50.781  1.00  0.00     0.011 A 
HETATM   13 BR1  UNL     1      16.357   4.097  52.019  1.00  0.00    -0.051 Br
HETATM   14  C13 UNL     1      19.070   3.788  51.183  1.00  0.00     0.032 A 
HETATM   15  C14 UNL     1      21.815   2.261  51.184  1.00  0.00     0.007 C 
HETATM   16  C15 UNL     1      20.890   1.158  50.955  1.00  0.00     0.212 C 
HETATM   17  O2  UNL     1      19.541   1.232  50.929  1.00  0.00    -0.358 OA
HETATM   18  C16 UNL     1      18.767   0.036  51.080  1.00  0.00     0.442 A 
HETATM   19  N3  UNL     1      18.774  -0.319  52.584  1.00  0.00     0.152 N 
HETATM   20  C17 UNL     1      19.931  -0.217  53.558  1.00  0.00     0.393 A 
HETATM   21  O3  UNL     1      19.458  -0.090  52.436  1.00  0.00     0.000 OA
HETATM   22  O4  UNL     1      21.218   0.015  54.166  1.00  0.00    -0.340 OA
HETATM   23  C18 UNL     1      22.261   0.450  53.460  1.00  0.00     0.207 C 
HETATM   24  H14 UNL     1      17.898  -0.701  53.159  1.00  0.00     0.323 HD
ENDROOT
BRANCH   1  25
HETATM   25  C2  UNL     1      24.704   0.587  53.299  1.00  0.00     0.106 C 
BRANCH  25  26
HETATM   26  C1  UNL     1      24.731  -0.632  54.187  1.00  0.00     0.235 C 
HETATM   27  O1  UNL     1      25.574  -0.933  54.980  1.00  0.00    -0.307 OA
ENDBRANCH  25  26
ENDBRANCH   1  25
TORSDOF 2
ENDMDL
MODEL 8
REMARK VINA RESULT:      -7.3      3.605      6.751
REMARK  2 active torsions:
REMARK  status: ('A' for Active; 'I' for Inactive)
REMARK    1  A    between atoms: C1_2  and  C2_3 
REMARK    2  A    between atoms: C2_3  and  C3_4 
ROOT
HETATM    1  C3  UNL     1      26.013   2.283  51.302  1.00  0.00    -0.038 C 
HETATM    2  C4  UNL     1      24.620   2.441  51.428  1.00  0.00    -0.003 C 
HETATM    3  C5  UNL     1      24.160   1.508  52.419  1.00  0.00     0.130 C 
HETATM    4  N1  UNL     1      23.048   0.839  52.341  1.00  0.00    -0.253 NA
HETATM    5  C6  UNL     1      22.097   0.903  51.282  1.00  0.00     0.233 C 
HETATM    6  N2  UNL     1      21.859   1.845  50.392  1.00  0.00    -0.241 NA
HETATM    7  C7  UNL     1      22.545   3.112  50.274  1.00  0.00     0.077 C 
HETATM    8  C8  UNL     1      21.837   4.097  49.504  1.00  0.00    -0.005 A 
HETATM    9  C9  UNL     1      20.649   4.676  49.957  1.00  0.00     0.014 A 
HETATM   10  C10 UNL     1      19.868   5.567  49.258  1.00  0.00     0.002 A 
HETATM   11  C11 UNL     1      20.284   5.925  48.005  1.00  0.00     0.019 A 
HETATM   12  C12 UNL     1      21.450   5.418  47.439  1.00  0.00     0.011 A 
HETATM   13 BR1  UNL     1      22.063   5.890  45.701  1.00  0.00    -0.051 Br
HETATM   14  C13 UNL     1      22.168   4.532  48.211  1.00  0.00     0.032 A 
HETATM   15  C14 UNL     1      23.728   3.429  50.704  1.00  0.00     0.007 C 
HETATM   16  C15 UNL     1      24.261   4.783  50.627  1.00  0.00     0.212 C 
HETATM   17  O2  UNL     1      23.984   5.705  49.678  1.00  0.00    -0.358 OA
HETATM   18  C16 UNL     1      24.856   6.829  49.510  1.00  0.00     0.442 A 
HETATM   19  N3  UNL     1      26.096   6.326  48.737  1.00  0.00     0.152 N 
HETATM   20  C17 UNL     1      26.827   5.009  48.908  1.00  0.00     0.393 A 
HETATM   21  O3  UNL     1      25.933   5.788  49.213  1.00  0.00     0.000 OA
HETATM   22  O4  UNL     1      27.245   3.699  49.343  1.00  0.00    -0.340 OA
HETATM   23  C18 UNL     1      26.622   3.053  50.327  1.00  0.00     0.207 C 
HETATM   24  H14 UNL     1      26.619   6.886  47.927  1.00  0.00     0.323 HD
ENDROOT
BRANCH   1  25
HETATM   25  C2  UNL     1      26.789   1.334  52.068  1.00  0.00     0.106 C 
BRANCH  25  26
HETATM   26  C1  UNL     1      27.699   1.964  53.094  1.00  0.00     0.235 C 
HETATM   27  O1  UNL     1      28.689   2.604  52.890  1.00  0.00    -0.307 OA
ENDBRANCH  25  26
ENDBRANCH   1  25
TORSDOF 2
ENDMDL
MODEL 9
REMARK VINA RESULT:      -7.2      7.879     11.049
REMARK  2 active torsions:
REMARK  status: ('A' for Active; 'I' for Inactive)
REMARK    1  A    between atoms: C1_2  and  C2_3 
REMARK    2  A    between atoms: C2_3  and  C3_4 
ROOT
HETATM    1  C3  UNL     1      28.090   6.069  48.463  1.00  0.00    -0.038 C 
HETATM    2  C4  UNL     1      28.287   7.463  48.423  1.00  0.00    -0.003 C 
HETATM    3  C5  UNL     1      27.035   8.093  48.740  1.00  0.00     0.130 C 
HETATM    4  N1  UNL     1      26.586   9.169  48.166  1.00  0.00    -0.253 NA
HETATM    5  C6  UNL     1      27.234   9.910  47.137  1.00  0.00     0.233 C 
HETATM    6  N2  UNL     1      28.505   9.985  46.798  1.00  0.00    -0.241 NA
HETATM    7  C7  UNL     1      29.607   9.294  47.428  1.00  0.00     0.077 C 
HETATM    8  C8  UNL     1      30.899   9.853  47.137  1.00  0.00    -0.005 A 
HETATM    9  C9  UNL     1      31.287  11.106  47.617  1.00  0.00     0.014 A 
HETATM   10  C10 UNL     1      32.468  11.750  47.329  1.00  0.00     0.002 A 
HETATM   11  C11 UNL     1      33.349  11.114  46.498  1.00  0.00     0.019 A 
HETATM   12  C12 UNL     1      33.079   9.861  45.953  1.00  0.00     0.011 A 
HETATM   13 BR1  UNL     1      34.276   8.942  44.794  1.00  0.00    -0.051 Br
HETATM   14  C13 UNL     1      31.873   9.293  46.296  1.00  0.00     0.032 A 
HETATM   15  C14 UNL     1      29.574   8.211  48.144  1.00  0.00     0.007 C 
HETATM   16  C15 UNL     1      30.746   7.678  48.827  1.00  0.00     0.212 C 
HETATM   17  O2  UNL     1      32.031   7.781  48.420  1.00  0.00    -0.358 OA
HETATM   18  C16 UNL     1      33.017   6.898  48.968  1.00  0.00     0.442 A 
HETATM   19  N3  UNL     1      32.845   5.535  48.259  1.00  0.00     0.152 N 
HETATM   20  C17 UNL     1      31.551   4.842  47.879  1.00  0.00     0.393 A 
HETATM   21  O3  UNL     1      32.160   5.780  48.377  1.00  0.00     0.000 OA
HETATM   22  O4  UNL     1      30.163   4.506  47.677  1.00  0.00    -0.340 OA
HETATM   23  C18 UNL     1      29.179   5.295  48.104  1.00  0.00     0.207 C 
HETATM   24  H14 UNL     1      33.678   4.875  47.924  1.00  0.00     0.323 HD
ENDROOT
BRANCH   1  25
HETATM   25  C2  UNL     1      26.827   5.443  48.779  1.00  0.00     0.106 C 
BRANCH  25  26
HETATM   26  C1  UNL     1      26.939   3.994  49.185  1.00  0.00     0.235 C 
HETATM   27  O1  UNL     1      26.990   3.552  50.295  1.00  0.00    -0.307 OA
ENDBRANCH  25  26
ENDBRANCH   1  25
TORSDOF 2
ENDMDL
