MODEL 1
REMARK VINA RESULT:      -8.7      0.000      0.000
REMARK  3 active torsions:
REMARK  status: ('A' for Active; 'I' for Inactive)
REMARK    1  A    between atoms: C2_3  and  O1_4 
REMARK    2  A    between atoms: C2_3  and  C3_5 
REMARK    3  A    between atoms: C17_22  and  O5_23 
ROOT
HETATM    1  N1  UNL     1      17.670  -1.144  52.845  1.00  0.00    -0.194 NA
HETATM    2  C1  UNL     1      18.220  -0.271  52.281  1.00  0.00     0.093 C 
HETATM    3  C2  UNL     1      18.890   0.797  51.564  1.00  0.00     0.255 C 
ENDROOT
BRANCH   3   4
HETATM    4  O1  UNL     1      19.737   0.243  50.598  1.00  0.00    -0.379 OA
HETATM    5  H2  UNL     1      19.632   0.696  49.739  1.00  0.00     0.211 HD
ENDBRANCH   3   4
BRANCH   3   6
HETATM    6  C3  UNL     1      19.744   1.609  52.558  1.00  0.00     0.188 C 
HETATM    7  C4  UNL     1      19.954   2.982  52.103  1.00  0.00     0.211 C 
HETATM    8  O2  UNL     1      20.743   3.273  51.026  1.00  0.00    -0.349 OA
HETATM    9  C5  UNL     1      22.075   3.009  50.916  1.00  0.00     0.068 A 
HETATM   10  C6  UNL     1      23.109   2.105  50.849  1.00  0.00     0.037 A 
HETATM   11  C10 UNL     1      22.579   4.291  50.840  1.00  0.00     0.037 A 
HETATM   12  C7  UNL     1      24.421   2.461  50.728  1.00  0.00     0.018 A 
HETATM   13  C8  UNL     1      24.905   3.779  50.654  1.00  0.00     0.010 A 
HETATM   14  C9  UNL     1      23.887   4.674  50.718  1.00  0.00     0.018 A 
HETATM   15  C11 UNL     1      26.291   3.294  50.570  1.00  0.00     0.164 C 
HETATM   16  O3  UNL     1      27.071   3.494  49.616  1.00  0.00    -0.292 OA
HETATM   17  C12 UNL     1      27.068   2.474  51.564  1.00  0.00     0.077 C 
HETATM   18  C13 UNL     1      27.126   1.842  52.766  1.00  0.00     0.006 C 
HETATM   19  C14 UNL     1      26.340   1.537  54.014  1.00  0.00     0.035 C 
HETATM   20  C15 UNL     1      26.114   0.107  54.143  1.00  0.00    -0.002 C 
HETATM   21  C16 UNL     1      24.819  -0.280  54.009  1.00  0.00     0.141 C 
HETATM   22  O4  UNL     1      23.696  -1.138  53.953  1.00  0.00    -0.301 OA
HETATM   23  C17 UNL     1      22.635  -0.998  54.871  1.00  0.00     0.180 C 
HETATM   24  C18 UNL     1      21.468  -0.406  54.936  1.00  0.00     0.063 C 
HETATM   25  C19 UNL     1      20.468   0.424  54.292  1.00  0.00     0.200 C 
HETATM   26  O6  UNL     1      20.795   0.845  52.977  1.00  0.00    -0.376 OA
BRANCH  23  27
HETATM   27  O5  UNL     1      23.267  -1.771  55.814  1.00  0.00    -0.341 OA
HETATM   28  H16 UNL     1      24.174  -2.166  55.731  1.00  0.00     0.220 HD
ENDBRANCH  23  27
ENDBRANCH   3   6
TORSDOF 3
ENDMDL
MODEL 2
REMARK VINA RESULT:      -8.5      2.310      5.100
REMARK  3 active torsions:
REMARK  status: ('A' for Active; 'I' for Inactive)
REMARK    1  A    between atoms: C2_3  and  O1_4 
REMARK    2  A    between atoms: C2_3  and  C3_5 
REMARK    3  A    between atoms: C17_22  and  O5_23 
ROOT
HETATM    1  N1  UNL     1      22.303   1.742  47.783  1.00  0.00    -0.194 NA
HETATM    2  C1  UNL     1      22.117   2.863  48.082  1.00  0.00     0.093 C 
HETATM    3  C2  UNL     1      21.894   4.254  48.429  1.00  0.00     0.255 C 
ENDROOT
BRANCH   3   4
HETATM    4  O1  UNL     1      23.031   5.000  48.102  1.00  0.00    -0.379 OA
HETATM    5  H2  UNL     1      22.828   5.954  48.073  1.00  0.00     0.211 HD
ENDBRANCH   3   4
BRANCH   3   6
HETATM    6  C3  UNL     1      21.658   4.360  49.950  1.00  0.00     0.188 C 
HETATM    7  C4  UNL     1      22.845   4.839  50.654  1.00  0.00     0.211 C 
HETATM    8  O2  UNL     1      23.971   4.073  50.776  1.00  0.00    -0.349 OA
HETATM    9  C5  UNL     1      24.055   2.869  51.407  1.00  0.00     0.068 A 
HETATM   10  C6  UNL     1      23.699   1.545  51.498  1.00  0.00     0.037 A 
HETATM   11  C10 UNL     1      24.917   3.186  52.437  1.00  0.00     0.037 A 
HETATM   12  C7  UNL     1      24.149   0.703  52.474  1.00  0.00     0.018 A 
HETATM   13  C8  UNL     1      25.028   1.056  53.513  1.00  0.00     0.010 A 
HETATM   14  C9  UNL     1      25.383   2.363  53.425  1.00  0.00     0.018 A 
HETATM   15  C11 UNL     1      24.969  -0.306  54.063  1.00  0.00     0.164 C 
HETATM   16  O3  UNL     1      25.941  -1.080  54.188  1.00  0.00    -0.292 OA
HETATM   17  C12 UNL     1      23.778  -1.067  54.579  1.00  0.00     0.077 C 
HETATM   18  C13 UNL     1      22.447  -1.107  54.857  1.00  0.00     0.006 C 
HETATM   19  C14 UNL     1      21.176  -0.301  54.816  1.00  0.00     0.035 C 
HETATM   20  C15 UNL     1      20.218  -0.898  53.902  1.00  0.00    -0.002 C 
HETATM   21  C16 UNL     1      19.956  -0.165  52.789  1.00  0.00     0.141 C 
HETATM   22  O4  UNL     1      19.378   0.193  51.549  1.00  0.00    -0.301 OA
HETATM   23  C17 UNL     1      18.601   1.363  51.427  1.00  0.00     0.180 C 
HETATM   24  C18 UNL     1      18.762   2.613  51.069  1.00  0.00     0.063 C 
HETATM   25  C19 UNL     1      19.652   3.656  50.595  1.00  0.00     0.200 C 
HETATM   26  O6  UNL     1      20.993   3.247  50.379  1.00  0.00    -0.376 OA
BRANCH  23  27
HETATM   27  O5  UNL     1      17.462   0.725  51.853  1.00  0.00    -0.341 OA
HETATM   28  H16 UNL     1      17.254  -0.238  51.734  1.00  0.00     0.220 HD
ENDBRANCH  23  27
ENDBRANCH   3   6
TORSDOF 3
ENDMDL
MODEL 3
REMARK VINA RESULT:      -8.5      2.907      5.749
REMARK  3 active torsions:
REMARK  status: ('A' for Active; 'I' for Inactive)
REMARK    1  A    between atoms: C2_3  and  O1_4 
REMARK    2  A    between atoms: C2_3  and  C3_5 
REMARK    3  A    between atoms: C17_22  and  O5_23 
ROOT
HETATM    1  N1  UNL     1      29.046  -0.218  54.251  1.00  0.00    -0.194 NA
HETATM    2  C1  UNL     1      27.904   0.019  54.397  1.00  0.00     0.093 C 
HETATM    3  C2  UNL     1      26.499   0.315  54.601  1.00  0.00     0.255 C 
ENDROOT
BRANCH   3   4
HETATM    4  O1  UNL     1      26.000  -0.498  55.624  1.00  0.00    -0.379 OA
HETATM    5  H2  UNL     1      26.655  -1.172  55.886  1.00  0.00     0.211 HD
ENDBRANCH   3   4
BRANCH   3   6
HETATM    6  C3  UNL     1      25.727   0.002  53.303  1.00  0.00     0.188 C 
HETATM    7  C4  UNL     1      26.430   0.490  52.119  1.00  0.00     0.211 C 
HETATM    8  O2  UNL     1      26.550   1.825  51.849  1.00  0.00    -0.349 OA
HETATM    9  C5  UNL     1      25.523   2.691  51.624  1.00  0.00     0.068 A 
HETATM   10  C6  UNL     1      24.401   3.349  52.069  1.00  0.00     0.037 A 
HETATM   11  C10 UNL     1      25.774   3.043  50.314  1.00  0.00     0.037 A 
HETATM   12  C7  UNL     1      23.672   4.211  51.301  1.00  0.00     0.018 A 
HETATM   13  C8  UNL     1      23.953   4.549  49.965  1.00  0.00     0.010 A 
HETATM   14  C9  UNL     1      25.062   3.902  49.524  1.00  0.00     0.018 A 
HETATM   15  C11 UNL     1      22.774   5.426  49.910  1.00  0.00     0.164 C 
HETATM   16  O3  UNL     1      22.795   6.655  49.694  1.00  0.00    -0.292 OA
HETATM   17  C12 UNL     1      21.324   5.073  50.099  1.00  0.00     0.077 C 
HETATM   18  C13 UNL     1      20.371   4.131  50.329  1.00  0.00     0.006 C 
HETATM   19  C14 UNL     1      20.153   2.660  50.565  1.00  0.00     0.035 C 
HETATM   20  C15 UNL     1      19.606   2.427  51.891  1.00  0.00    -0.002 C 
HETATM   21  C16 UNL     1      20.440   1.783  52.748  1.00  0.00     0.141 C 
HETATM   22  O4  UNL     1      20.897   1.177  53.941  1.00  0.00    -0.301 OA
HETATM   23  C17 UNL     1      21.252  -0.187  53.967  1.00  0.00     0.180 C 
HETATM   24  C18 UNL     1      22.330  -0.922  53.851  1.00  0.00     0.063 C 
HETATM   25  C19 UNL     1      23.765  -0.983  53.644  1.00  0.00     0.200 C 
HETATM   26  O6  UNL     1      24.403   0.275  53.491  1.00  0.00    -0.376 OA
BRANCH  23  27
HETATM   27  O5  UNL     1      19.954  -0.584  54.180  1.00  0.00    -0.341 OA
HETATM   28  H16 UNL     1      19.499  -1.348  53.741  1.00  0.00     0.220 HD
ENDBRANCH  23  27
ENDBRANCH   3   6
TORSDOF 3
ENDMDL
MODEL 4
REMARK VINA RESULT:      -8.4      2.277      5.503
REMARK  3 active torsions:
REMARK  status: ('A' for Active; 'I' for Inactive)
REMARK    1  A    between atoms: C2_3  and  O1_4 
REMARK    2  A    between atoms: C2_3  and  C3_5 
REMARK    3  A    between atoms: C17_22  and  O5_23 
ROOT
HETATM    1  N1  UNL     1      21.925   5.836  51.937  1.00  0.00    -0.194 NA
HETATM    2  C1  UNL     1      21.378   5.371  51.007  1.00  0.00     0.093 C 
HETATM    3  C2  UNL     1      20.685   4.812  49.861  1.00  0.00     0.255 C 
ENDROOT
BRANCH   3   4
HETATM    4  O1  UNL     1      19.367   4.512  50.220  1.00  0.00    -0.379 OA
HETATM    5  H2  UNL     1      19.104   3.635  49.882  1.00  0.00     0.211 HD
ENDBRANCH   3   4
BRANCH   3   6
HETATM    6  C3  UNL     1      21.389   3.507  49.437  1.00  0.00     0.188 C 
HETATM    7  C4  UNL     1      20.531   2.339  49.622  1.00  0.00     0.211 C 
HETATM    8  O2  UNL     1      20.196   1.879  50.866  1.00  0.00    -0.349 OA
HETATM    9  C5  UNL     1      21.064   1.418  51.809  1.00  0.00     0.068 A 
HETATM   10  C6  UNL     1      22.109   1.638  52.674  1.00  0.00     0.037 A 
HETATM   11  C10 UNL     1      20.661   0.102  51.899  1.00  0.00     0.037 A 
HETATM   12  C7  UNL     1      22.641   0.675  53.482  1.00  0.00     0.018 A 
HETATM   13  C8  UNL     1      22.209  -0.662  53.551  1.00  0.00     0.010 A 
HETATM   14  C9  UNL     1      21.175  -0.881  52.699  1.00  0.00     0.018 A 
HETATM   15  C11 UNL     1      23.239  -0.973  54.553  1.00  0.00     0.164 C 
HETATM   16  O3  UNL     1      23.021  -1.374  55.715  1.00  0.00    -0.292 OA
HETATM   17  C12 UNL     1      24.736  -0.880  54.430  1.00  0.00     0.077 C 
HETATM   18  C13 UNL     1      25.831  -0.605  53.673  1.00  0.00     0.006 C 
HETATM   19  C14 UNL     1      26.280  -0.166  52.305  1.00  0.00     0.035 C 
HETATM   20  C15 UNL     1      26.958   1.117  52.373  1.00  0.00    -0.002 C 
HETATM   21  C16 UNL     1      26.298   2.144  51.778  1.00  0.00     0.141 C 
HETATM   22  O4  UNL     1      26.030   3.458  51.327  1.00  0.00    -0.301 OA
HETATM   23  C17 UNL     1      25.882   3.732  49.952  1.00  0.00     0.180 C 
HETATM   24  C18 UNL     1      24.917   3.842  49.073  1.00  0.00     0.063 C 
HETATM   25  C19 UNL     1      23.495   3.795  48.790  1.00  0.00     0.200 C 
HETATM   26  O6  UNL     1      22.670   3.513  49.910  1.00  0.00    -0.376 OA
BRANCH  23  27
HETATM   27  O5  UNL     1      27.237   3.870  49.771  1.00  0.00    -0.341 OA
HETATM   28  H16 UNL     1      27.914   3.961  50.490  1.00  0.00     0.220 HD
ENDBRANCH  23  27
ENDBRANCH   3   6
TORSDOF 3
ENDMDL
MODEL 5
REMARK VINA RESULT:      -8.0      2.669      5.867
REMARK  3 active torsions:
REMARK  status: ('A' for Active; 'I' for Inactive)
REMARK    1  A    between atoms: C2_3  and  O1_4 
REMARK    2  A    between atoms: C2_3  and  C3_5 
REMARK    3  A    between atoms: C17_22  and  O5_23 
ROOT
HETATM    1  N1  UNL     1      22.941   6.140  51.490  1.00  0.00    -0.194 NA
HETATM    2  C1  UNL     1      23.291   5.902  50.394  1.00  0.00     0.093 C 
HETATM    3  C2  UNL     1      23.719   5.632  49.034  1.00  0.00     0.255 C 
ENDROOT
BRANCH   3   4
HETATM    4  O1  UNL     1      22.711   6.022  48.147  1.00  0.00    -0.379 OA
HETATM    5  H2  UNL     1      22.532   5.322  47.490  1.00  0.00     0.211 HD
ENDBRANCH   3   4
BRANCH   3   6
HETATM    6  C3  UNL     1      23.955   4.116  48.875  1.00  0.00     0.188 C 
HETATM    7  C4  UNL     1      22.786   3.438  48.319  1.00  0.00     0.211 C 
HETATM    8  O2  UNL     1      21.629   3.289  49.033  1.00  0.00    -0.349 OA
HETATM    9  C5  UNL     1      21.495   2.609  50.206  1.00  0.00     0.068 A 
HETATM   10  C6  UNL     1      21.797   2.462  51.539  1.00  0.00     0.037 A 
HETATM   11  C10 UNL     1      20.644   1.597  49.812  1.00  0.00     0.037 A 
HETATM   12  C7  UNL     1      21.311   1.454  52.320  1.00  0.00     0.018 A 
HETATM   13  C8  UNL     1      20.444   0.434  51.889  1.00  0.00     0.010 A 
HETATM   14  C9  UNL     1      20.143   0.577  50.574  1.00  0.00     0.018 A 
HETATM   15  C11 UNL     1      20.446  -0.172  53.229  1.00  0.00     0.164 C 
HETATM   16  O3  UNL     1      19.443  -0.325  53.957  1.00  0.00    -0.292 OA
HETATM   17  C12 UNL     1      21.605  -0.724  54.015  1.00  0.00     0.077 C 
HETATM   18  C13 UNL     1      22.931  -1.010  54.097  1.00  0.00     0.006 C 
HETATM   19  C14 UNL     1      24.234  -0.941  53.345  1.00  0.00     0.035 C 
HETATM   20  C15 UNL     1      25.170  -0.057  54.018  1.00  0.00    -0.002 C 
HETATM   21  C16 UNL     1      25.464   1.084  53.342  1.00  0.00     0.141 C 
HETATM   22  O4  UNL     1      26.060   2.335  53.060  1.00  0.00    -0.301 OA
HETATM   23  C17 UNL     1      26.883   2.502  51.929  1.00  0.00     0.180 C 
HETATM   24  C18 UNL     1      26.775   2.913  50.689  1.00  0.00     0.063 C 
HETATM   25  C19 UNL     1      25.929   3.433  49.631  1.00  0.00     0.200 C 
HETATM   26  O6  UNL     1      24.573   3.638  49.994  1.00  0.00    -0.376 OA
BRANCH  23  27
HETATM   27  O5  UNL     1      27.995   2.045  52.594  1.00  0.00    -0.341 OA
HETATM   28  H16 UNL     1      28.743   1.531  52.193  1.00  0.00     0.220 HD
ENDBRANCH  23  27
ENDBRANCH   3   6
TORSDOF 3
ENDMDL
MODEL 6
REMARK VINA RESULT:      -7.6      2.604      3.638
REMARK  3 active torsions:
REMARK  status: ('A' for Active; 'I' for Inactive)
REMARK    1  A    between atoms: C2_3  and  O1_4 
REMARK    2  A    between atoms: C2_3  and  C3_5 
REMARK    3  A    between atoms: C17_22  and  O5_23 
ROOT
HETATM    1  N1  UNL     1      20.066   2.862  47.315  1.00  0.00    -0.194 NA
HETATM    2  C1  UNL     1      19.473   3.617  47.993  1.00  0.00     0.093 C 
HETATM    3  C2  UNL     1      18.724   4.550  48.814  1.00  0.00     0.255 C 
ENDROOT
BRANCH   3   4
HETATM    4  O1  UNL     1      18.501   5.725  48.089  1.00  0.00    -0.379 OA
HETATM    5  H2  UNL     1      19.283   6.309  48.121  1.00  0.00     0.211 HD
ENDBRANCH   3   4
BRANCH   3   6
HETATM    6  C3  UNL     1      19.554   4.894  50.067  1.00  0.00     0.188 C 
HETATM    7  C4  UNL     1      20.327   6.122  49.889  1.00  0.00     0.211 C 
HETATM    8  O2  UNL     1      21.393   6.187  49.035  1.00  0.00    -0.349 OA
HETATM    9  C5  UNL     1      22.537   5.453  49.127  1.00  0.00     0.068 A 
HETATM   10  C6  UNL     1      23.177   4.237  49.103  1.00  0.00     0.037 A 
HETATM   11  C10 UNL     1      23.459   6.454  49.355  1.00  0.00     0.037 A 
HETATM   12  C7  UNL     1      24.522   4.083  49.283  1.00  0.00     0.018 A 
HETATM   13  C8  UNL     1      25.438   5.125  49.515  1.00  0.00     0.010 A 
HETATM   14  C9  UNL     1      24.808   6.328  49.538  1.00  0.00     0.018 A 
HETATM   15  C11 UNL     1      26.548   4.166  49.606  1.00  0.00     0.164 C 
HETATM   16  O3  UNL     1      27.545   4.139  48.855  1.00  0.00    -0.292 OA
HETATM   17  C12 UNL     1      26.741   3.032  50.576  1.00  0.00     0.077 C 
HETATM   18  C13 UNL     1      26.298   2.323  51.649  1.00  0.00     0.006 C 
HETATM   19  C14 UNL     1      25.191   2.229  52.666  1.00  0.00     0.035 C 
HETATM   20  C15 UNL     1      24.459   0.984  52.515  1.00  0.00    -0.002 C 
HETATM   21  C16 UNL     1      23.177   1.123  52.087  1.00  0.00     0.141 C 
HETATM   22  O4  UNL     1      21.871   0.757  51.688  1.00  0.00    -0.301 OA
HETATM   23  C17 UNL     1      20.745   1.205  52.407  1.00  0.00     0.180 C 
HETATM   24  C18 UNL     1      19.875   2.183  52.356  1.00  0.00     0.063 C 
HETATM   25  C19 UNL     1      19.403   3.380  51.685  1.00  0.00     0.200 C 
HETATM   26  O6  UNL     1      20.147   3.759  50.539  1.00  0.00    -0.376 OA
BRANCH  23  27
HETATM   27  O5  UNL     1      20.835   0.174  53.310  1.00  0.00    -0.341 OA
HETATM   28  H16 UNL     1      20.678   0.240  54.287  1.00  0.00     0.220 HD
ENDBRANCH  23  27
ENDBRANCH   3   6
TORSDOF 3
ENDMDL
MODEL 7
REMARK VINA RESULT:      -7.4      2.690      5.868
REMARK  3 active torsions:
REMARK  status: ('A' for Active; 'I' for Inactive)
REMARK    1  A    between atoms: C2_3  and  O1_4 
REMARK    2  A    between atoms: C2_3  and  C3_5 
REMARK    3  A    between atoms: C17_22  and  O5_23 
ROOT
HETATM    1  N1  UNL     1      23.817   4.373  53.523  1.00  0.00    -0.194 NA
HETATM    2  C1  UNL     1      24.530   3.443  53.437  1.00  0.00     0.093 C 
HETATM    3  C2  UNL     1      25.426   2.306  53.344  1.00  0.00     0.255 C 
ENDROOT
BRANCH   3   4
HETATM    4  O1  UNL     1      26.657   2.730  52.832  1.00  0.00    -0.379 OA
HETATM    5  H2  UNL     1      27.397   2.372  53.358  1.00  0.00     0.211 HD
ENDBRANCH   3   4
BRANCH   3   6
HETATM    6  C3  UNL     1      24.822   1.269  52.375  1.00  0.00     0.188 C 
HETATM    7  C4  UNL     1      25.046   1.632  50.978  1.00  0.00     0.211 C 
HETATM    8  O2  UNL     1      24.415   2.697  50.398  1.00  0.00    -0.349 OA
HETATM    9  C5  UNL     1      23.069   2.841  50.243  1.00  0.00     0.068 A 
HETATM   10  C6  UNL     1      21.816   2.983  50.790  1.00  0.00     0.037 A 
HETATM   11  C10 UNL     1      22.973   2.836  48.867  1.00  0.00     0.037 A 
HETATM   12  C7  UNL     1      20.674   3.095  50.050  1.00  0.00     0.018 A 
HETATM   13  C8  UNL     1      20.608   3.086  48.645  1.00  0.00     0.010 A 
HETATM   14  C9  UNL     1      21.845   2.948  48.103  1.00  0.00     0.018 A 
HETATM   15  C11 UNL     1      19.144   3.220  48.686  1.00  0.00     0.164 C 
HETATM   16  O3  UNL     1      18.490   4.168  48.204  1.00  0.00    -0.292 OA
HETATM   17  C12 UNL     1      18.126   2.295  49.295  1.00  0.00     0.077 C 
HETATM   18  C13 UNL     1      17.843   1.139  49.953  1.00  0.00     0.006 C 
HETATM   19  C14 UNL     1      18.461  -0.095  50.556  1.00  0.00     0.035 C 
HETATM   20  C15 UNL     1      18.246  -0.129  51.992  1.00  0.00    -0.002 C 
HETATM   21  C16 UNL     1      19.370   0.014  52.741  1.00  0.00     0.141 C 
HETATM   22  O4  UNL     1      20.187   0.115  53.891  1.00  0.00    -0.301 OA
HETATM   23  C17 UNL     1      21.211  -0.823  54.132  1.00  0.00     0.180 C 
HETATM   24  C18 UNL     1      22.499  -0.944  53.923  1.00  0.00     0.063 C 
HETATM   25  C19 UNL     1      23.721  -0.371  53.393  1.00  0.00     0.200 C 
HETATM   26  O6  UNL     1      23.578   0.916  52.814  1.00  0.00    -0.376 OA
BRANCH  23  27
HETATM   27  O5  UNL     1      20.347  -1.703  54.737  1.00  0.00    -0.341 OA
HETATM   28  H16 UNL     1      19.554  -2.125  54.314  1.00  0.00     0.220 HD
ENDBRANCH  23  27
ENDBRANCH   3   6
TORSDOF 3
ENDMDL
MODEL 8
REMARK VINA RESULT:      -7.4     10.935     13.185
REMARK  3 active torsions:
REMARK  status: ('A' for Active; 'I' for Inactive)
REMARK    1  A    between atoms: C2_3  and  O1_4 
REMARK    2  A    between atoms: C2_3  and  C3_5 
REMARK    3  A    between atoms: C17_22  and  O5_23 
ROOT
HETATM    1  N1  UNL     1      28.527   8.331  45.655  1.00  0.00    -0.194 NA
HETATM    2  C1  UNL     1      29.012   9.258  46.191  1.00  0.00     0.093 C 
HETATM    3  C2  UNL     1      29.590  10.415  46.849  1.00  0.00     0.255 C 
ENDROOT
BRANCH   3   4
HETATM    4  O1  UNL     1      29.538  11.512  45.983  1.00  0.00    -0.379 OA
HETATM    5  H2  UNL     1      28.812  12.117  46.227  1.00  0.00     0.211 HD
ENDBRANCH   3   4
BRANCH   3   6
HETATM    6  C3  UNL     1      31.067  10.118  47.178  1.00  0.00     0.188 C 
HETATM    7  C4  UNL     1      31.970  10.641  46.155  1.00  0.00     0.211 C 
HETATM    8  O2  UNL     1      32.032  10.100  44.901  1.00  0.00    -0.349 OA
HETATM    9  C5  UNL     1      32.393   8.822  44.598  1.00  0.00     0.068 A 
HETATM   10  C6  UNL     1      32.160   7.469  44.672  1.00  0.00     0.037 A 
HETATM   11  C10 UNL     1      33.545   9.052  43.876  1.00  0.00     0.037 A 
HETATM   12  C7  UNL     1      32.970   6.528  44.106  1.00  0.00     0.018 A 
HETATM   13  C8  UNL     1      34.141   6.793  43.374  1.00  0.00     0.010 A 
HETATM   14  C9  UNL     1      34.372   8.129  43.298  1.00  0.00     0.018 A 
HETATM   15  C11 UNL     1      34.375   5.356  43.174  1.00  0.00     0.164 C 
HETATM   16  O3  UNL     1      34.423   4.777  42.069  1.00  0.00    -0.292 OA
HETATM   17  C12 UNL     1      34.596   4.281  44.204  1.00  0.00     0.077 C 
HETATM   18  C13 UNL     1      34.729   3.922  45.508  1.00  0.00     0.006 C 
HETATM   19  C14 UNL     1      34.741   4.455  46.917  1.00  0.00     0.035 C 
HETATM   20  C15 UNL     1      33.631   3.912  47.681  1.00  0.00    -0.002 C 
HETATM   21  C16 UNL     1      32.683   4.818  48.034  1.00  0.00     0.141 C 
HETATM   22  O4  UNL     1      31.500   5.335  48.611  1.00  0.00    -0.301 OA
HETATM   23  C17 UNL     1      31.559   6.329  49.609  1.00  0.00     0.180 C 
HETATM   24  C18 UNL     1      31.497   7.635  49.696  1.00  0.00     0.063 C 
HETATM   25  C19 UNL     1      31.348   8.911  49.022  1.00  0.00     0.200 C 
HETATM   26  O6  UNL     1      31.180   8.830  47.616  1.00  0.00    -0.376 OA
BRANCH  23  27
HETATM   27  O5  UNL     1      31.725   5.402  50.608  1.00  0.00    -0.341 OA
HETATM   28  H16 UNL     1      32.588   5.013  50.904  1.00  0.00     0.220 HD
ENDBRANCH  23  27
ENDBRANCH   3   6
TORSDOF 3
ENDMDL
MODEL 9
REMARK VINA RESULT:      -7.3      8.676     12.173
REMARK  3 active torsions:
REMARK  status: ('A' for Active; 'I' for Inactive)
REMARK    1  A    between atoms: C2_3  and  O1_4 
REMARK    2  A    between atoms: C2_3  and  C3_5 
REMARK    3  A    between atoms: C17_22  and  O5_23 
ROOT
HETATM    1  N1  UNL     1      29.005  11.678  44.668  1.00  0.00    -0.194 NA
HETATM    2  C1  UNL     1      28.957  12.441  45.561  1.00  0.00     0.093 C 
HETATM    3  C2  UNL     1      28.905  13.399  46.648  1.00  0.00     0.255 C 
ENDROOT
BRANCH   3   4
HETATM    4  O1  UNL     1      30.168  13.976  46.815  1.00  0.00    -0.379 OA
HETATM    5  H2  UNL     1      30.874  13.354  46.557  1.00  0.00     0.211 HD
ENDBRANCH   3   4
BRANCH   3   6
HETATM    6  C3  UNL     1      28.527  12.662  47.949  1.00  0.00     0.188 C 
HETATM    7  C4  UNL     1      29.706  12.285  48.725  1.00  0.00     0.211 C 
HETATM    8  O2  UNL     1      30.570  11.314  48.302  1.00  0.00    -0.349 OA
HETATM    9  C5  UNL     1      30.260  10.003  48.094  1.00  0.00     0.068 A 
HETATM   10  C6  UNL     1      29.562   9.039  47.407  1.00  0.00     0.037 A 
HETATM   11  C10 UNL     1      31.046   9.404  49.057  1.00  0.00     0.037 A 
HETATM   12  C7  UNL     1      29.657   7.702  47.668  1.00  0.00     0.018 A 
HETATM   13  C8  UNL     1      30.468   7.121  48.659  1.00  0.00     0.010 A 
HETATM   14  C9  UNL     1      31.160   8.071  49.338  1.00  0.00     0.018 A 
HETATM   15  C11 UNL     1      29.989   5.778  48.301  1.00  0.00     0.164 C 
HETATM   16  O3  UNL     1      30.704   4.842  47.885  1.00  0.00    -0.292 OA
HETATM   17  C12 UNL     1      28.588   5.231  48.340  1.00  0.00     0.077 C 
HETATM   18  C13 UNL     1      27.271   5.412  48.623  1.00  0.00     0.006 C 
HETATM   19  C14 UNL     1      26.269   6.408  49.144  1.00  0.00     0.035 C 
HETATM   20  C15 UNL     1      25.303   6.752  48.115  1.00  0.00    -0.002 C 
HETATM   21  C16 UNL     1      25.376   8.033  47.669  1.00  0.00     0.141 C 
HETATM   22  O4  UNL     1      25.063   9.190  46.917  1.00  0.00    -0.301 OA
HETATM   23  C17 UNL     1      24.640  10.372  47.557  1.00  0.00     0.180 C 
HETATM   24  C18 UNL     1      25.163  11.490  47.997  1.00  0.00     0.063 C 
HETATM   25  C19 UNL     1      26.345  12.312  48.177  1.00  0.00     0.200 C 
HETATM   26  O6  UNL     1      27.548  11.749  47.679  1.00  0.00    -0.376 OA
BRANCH  23  27
HETATM   27  O5  UNL     1      23.331   9.956  47.594  1.00  0.00    -0.341 OA
HETATM   28  H16 UNL     1      22.844   9.501  46.860  1.00  0.00     0.220 HD
ENDBRANCH  23  27
ENDBRANCH   3   6
TORSDOF 3
ENDMDL
