MODEL 1
REMARK VINA RESULT:      -7.8      0.000      0.000
REMARK  3 active torsions:
REMARK  status: ('A' for Active; 'I' for Inactive)
REMARK       I    between atoms: C3_3  and  N1_5 
REMARK    1  A    between atoms: N1_5  and  C4_6 
REMARK    2  A    between atoms: C7_11  and  N4_12 
REMARK    3  A    between atoms: N4_12  and  C8_13 
ROOT
HETATM    1  C1  UNL     1      29.865  -0.844  53.812  1.00  0.00     0.022 C 
HETATM    2  C2  UNL     1      29.223   0.192  53.736  1.00  0.00    -0.016 C 
HETATM    3  C3  UNL     1      28.491   1.421  53.650  1.00  0.00     0.300 C 
HETATM    4  O1  UNL     1      28.839   2.488  54.265  1.00  0.00    -0.258 OA
HETATM    5  N1  UNL     1      27.331   1.461  52.850  1.00  0.00    -0.315 N 
HETATM    6  H2  UNL     1      27.060   0.588  52.347  1.00  0.00     0.170 HD
ENDROOT
BRANCH   5   7
HETATM    7  C4  UNL     1      26.252   2.249  52.375  1.00  0.00     0.053 C 
HETATM    8  C5  UNL     1      25.207   2.446  53.161  1.00  0.00     0.147 C 
HETATM    9  N2  UNL     1      23.996   3.173  52.978  1.00  0.00    -0.252 NA
HETATM   10  C6  UNL     1      23.605   4.033  52.120  1.00  0.00     0.234 C 
HETATM   11  N3  UNL     1      24.071   4.719  50.959  1.00  0.00    -0.225 NA
HETATM   12  C7  UNL     1      25.090   4.509  50.197  1.00  0.00     0.129 C 
HETATM   13  C14 UNL     1      26.206   3.566  50.116  1.00  0.00     0.053 C 
HETATM   14  C15 UNL     1      26.632   2.674  51.024  1.00  0.00     0.035 C 
BRANCH  12  15
HETATM   15  N4  UNL     1      25.148   5.462  49.151  1.00  0.00    -0.341 N 
HETATM   16  H5  UNL     1      24.441   5.462  48.383  1.00  0.00     0.167 HD
BRANCH  15  17
HETATM   17  C8  UNL     1      26.147   6.464  49.068  1.00  0.00     0.034 A 
HETATM   18  C9  UNL     1      26.002   7.541  49.943  1.00  0.00     0.029 A 
HETATM   19  C10 UNL     1      26.849   8.619  50.053  1.00  0.00     0.004 A 
HETATM   20  C11 UNL     1      27.946   8.626  49.213  1.00  0.00     0.019 A 
HETATM   21  C12 UNL     1      28.138   7.579  48.324  1.00  0.00     0.013 A 
HETATM   22 BR1  UNL     1      29.657   7.617  47.184  1.00  0.00    -0.051 Br
HETATM   23  C13 UNL     1      27.261   6.530  48.257  1.00  0.00     0.048 A 
ENDBRANCH  15  17
ENDBRANCH  12  15
ENDBRANCH   5   7
TORSDOF 3
ENDMDL
MODEL 2
REMARK VINA RESULT:      -7.7      4.786      5.754
REMARK  3 active torsions:
REMARK  status: ('A' for Active; 'I' for Inactive)
REMARK       I    between atoms: C3_3  and  N1_5 
REMARK    1  A    between atoms: N1_5  and  C4_6 
REMARK    2  A    between atoms: C7_11  and  N4_12 
REMARK    3  A    between atoms: N4_12  and  C8_13 
ROOT
HETATM    1  C1  UNL     1      30.047  -1.144  53.816  1.00  0.00     0.022 C 
HETATM    2  C2  UNL     1      28.975  -0.622  54.080  1.00  0.00    -0.016 C 
HETATM    3  C3  UNL     1      27.727   0.014  54.385  1.00  0.00     0.300 C 
HETATM    4  O1  UNL     1      27.645   1.185  54.894  1.00  0.00    -0.258 OA
HETATM    5  N1  UNL     1      26.532  -0.681  54.111  1.00  0.00    -0.315 N 
HETATM    6  H2  UNL     1      26.610  -1.631  53.689  1.00  0.00     0.170 HD
ENDROOT
BRANCH   5   7
HETATM    7  C4  UNL     1      25.115  -0.656  54.161  1.00  0.00     0.053 C 
HETATM    8  C5  UNL     1      24.499  -1.233  55.179  1.00  0.00     0.147 C 
HETATM    9  N2  UNL     1      23.121  -1.372  55.509  1.00  0.00    -0.252 NA
HETATM   10  C6  UNL     1      22.051  -0.825  55.078  1.00  0.00     0.234 C 
HETATM   11  N3  UNL     1      21.619   0.142  54.122  1.00  0.00    -0.225 NA
HETATM   12  C7  UNL     1      22.230   0.690  53.128  1.00  0.00     0.129 C 
HETATM   13  C14 UNL     1      23.554   0.636  52.507  1.00  0.00     0.053 C 
HETATM   14  C15 UNL     1      24.686   0.079  52.967  1.00  0.00     0.035 C 
BRANCH  12  15
HETATM   15  N4  UNL     1      21.386   1.606  52.453  1.00  0.00    -0.341 N 
HETATM   16  H5  UNL     1      20.597   2.077  52.950  1.00  0.00     0.167 HD
BRANCH  15  17
HETATM   17  C8  UNL     1      21.542   1.945  51.086  1.00  0.00     0.034 A 
HETATM   18  C9  UNL     1      21.259   0.929  50.172  1.00  0.00     0.029 A 
HETATM   19  C10 UNL     1      21.326   1.026  48.803  1.00  0.00     0.004 A 
HETATM   20  C11 UNL     1      21.710   2.251  48.292  1.00  0.00     0.019 A 
HETATM   21  C12 UNL     1      22.001   3.296  49.156  1.00  0.00     0.013 A 
HETATM   22 BR1  UNL     1      22.523   4.968  48.423  1.00  0.00    -0.051 Br
HETATM   23  C13 UNL     1      21.918   3.142  50.514  1.00  0.00     0.048 A 
ENDBRANCH  15  17
ENDBRANCH  12  15
ENDBRANCH   5   7
TORSDOF 3
ENDMDL
MODEL 3
REMARK VINA RESULT:      -7.5      5.845      8.400
REMARK  3 active torsions:
REMARK  status: ('A' for Active; 'I' for Inactive)
REMARK       I    between atoms: C3_3  and  N1_5 
REMARK    1  A    between atoms: N1_5  and  C4_6 
REMARK    2  A    between atoms: C7_11  and  N4_12 
REMARK    3  A    between atoms: N4_12  and  C8_13 
ROOT
HETATM    1  C1  UNL     1      15.812  -0.775  51.929  1.00  0.00     0.022 C 
HETATM    2  C2  UNL     1      16.811  -1.144  52.527  1.00  0.00    -0.016 C 
HETATM    3  C3  UNL     1      17.976  -1.603  53.225  1.00  0.00     0.300 C 
HETATM    4  O1  UNL     1      18.010  -2.696  53.887  1.00  0.00    -0.258 OA
HETATM    5  N1  UNL     1      19.143  -0.813  53.179  1.00  0.00    -0.315 N 
HETATM    6  H2  UNL     1      19.107   0.073  52.630  1.00  0.00     0.170 HD
ENDROOT
BRANCH   5   7
HETATM    7  C4  UNL     1      20.492  -0.676  53.596  1.00  0.00     0.053 C 
HETATM    8  C5  UNL     1      20.935  -1.428  54.589  1.00  0.00     0.147 C 
HETATM    9  N2  UNL     1      22.207  -1.524  55.222  1.00  0.00    -0.252 NA
HETATM   10  C6  UNL     1      23.374  -1.099  54.925  1.00  0.00     0.234 C 
HETATM   11  N3  UNL     1      24.050  -0.360  53.909  1.00  0.00    -0.225 NA
HETATM   12  C7  UNL     1      23.602   0.377  52.951  1.00  0.00     0.129 C 
HETATM   13  C14 UNL     1      22.304   0.807  52.431  1.00  0.00     0.053 C 
HETATM   14  C15 UNL     1      21.077   0.349  52.725  1.00  0.00     0.035 C 
BRANCH  12  15
HETATM   15  N4  UNL     1      24.664   0.915  52.183  1.00  0.00    -0.341 N 
HETATM   16  H5  UNL     1      24.480   1.400  51.277  1.00  0.00     0.167 HD
BRANCH  15  17
HETATM   17  C8  UNL     1      26.024   0.836  52.574  1.00  0.00     0.034 A 
HETATM   18  C9  UNL     1      26.639   2.049  52.884  1.00  0.00     0.029 A 
HETATM   19  C10 UNL     1      27.938   2.220  53.299  1.00  0.00     0.004 A 
HETATM   20  C11 UNL     1      28.700   1.073  53.418  1.00  0.00     0.019 A 
HETATM   21  C12 UNL     1      28.138  -0.160  53.124  1.00  0.00     0.013 A 
HETATM   22 BR1  UNL     1      29.210  -1.717  53.300  1.00  0.00    -0.051 Br
HETATM   23  C13 UNL     1      26.836  -0.270  52.714  1.00  0.00     0.048 A 
ENDBRANCH  15  17
ENDBRANCH  12  15
ENDBRANCH   5   7
TORSDOF 3
ENDMDL
MODEL 4
REMARK VINA RESULT:      -7.2      4.120      7.344
REMARK  3 active torsions:
REMARK  status: ('A' for Active; 'I' for Inactive)
REMARK       I    between atoms: C3_3  and  N1_5 
REMARK    1  A    between atoms: N1_5  and  C4_6 
REMARK    2  A    between atoms: C7_11  and  N4_12 
REMARK    3  A    between atoms: N4_12  and  C8_13 
ROOT
HETATM    1  C1  UNL     1      29.306   7.815  46.413  1.00  0.00     0.022 C 
HETATM    2  C2  UNL     1      28.867   7.043  47.250  1.00  0.00    -0.016 C 
HETATM    3  C3  UNL     1      28.374   6.132  48.242  1.00  0.00     0.300 C 
HETATM    4  O1  UNL     1      29.061   5.153  48.695  1.00  0.00    -0.258 OA
HETATM    5  N1  UNL     1      27.071   6.324  48.745  1.00  0.00    -0.315 N 
HETATM    6  H2  UNL     1      26.524   7.130  48.375  1.00  0.00     0.170 HD
ENDROOT
BRANCH   5   7
HETATM    7  C4  UNL     1      26.067   5.853  49.629  1.00  0.00     0.053 C 
HETATM    8  C5  UNL     1      25.327   6.731  50.285  1.00  0.00     0.147 C 
HETATM    9  N2  UNL     1      24.264   6.577  51.219  1.00  0.00    -0.252 NA
HETATM   10  C6  UNL     1      23.535   5.590  51.571  1.00  0.00     0.234 C 
HETATM   11  N3  UNL     1      23.349   4.204  51.288  1.00  0.00    -0.225 NA
HETATM   12  C7  UNL     1      24.086   3.358  50.653  1.00  0.00     0.129 C 
HETATM   13  C14 UNL     1      25.367   3.353  49.946  1.00  0.00     0.053 C 
HETATM   14  C15 UNL     1      26.126   4.390  49.557  1.00  0.00     0.035 C 
BRANCH  12  15
HETATM   15  N4  UNL     1      23.482   2.077  50.625  1.00  0.00    -0.341 N 
HETATM   16  H5  UNL     1      22.982   1.736  49.773  1.00  0.00     0.167 HD
BRANCH  15  17
HETATM   17  C8  UNL     1      23.507   1.182  51.724  1.00  0.00     0.034 A 
HETATM   18  C9  UNL     1      24.761   0.950  52.290  1.00  0.00     0.029 A 
HETATM   19  C10 UNL     1      25.030   0.137  53.365  1.00  0.00     0.004 A 
HETATM   20  C11 UNL     1      23.947  -0.508  53.934  1.00  0.00     0.019 A 
HETATM   21  C12 UNL     1      22.678  -0.311  53.410  1.00  0.00     0.013 A 
HETATM   22 BR1  UNL     1      21.211  -1.209  54.214  1.00  0.00    -0.051 Br
HETATM   23  C13 UNL     1      22.469   0.511  52.335  1.00  0.00     0.048 A 
ENDBRANCH  15  17
ENDBRANCH  12  15
ENDBRANCH   5   7
TORSDOF 3
ENDMDL
MODEL 5
REMARK VINA RESULT:      -7.0      2.352      3.050
REMARK  3 active torsions:
REMARK  status: ('A' for Active; 'I' for Inactive)
REMARK       I    between atoms: C3_3  and  N1_5 
REMARK    1  A    between atoms: N1_5  and  C4_6 
REMARK    2  A    between atoms: C7_11  and  N4_12 
REMARK    3  A    between atoms: N4_12  and  C8_13 
ROOT
HETATM    1  C1  UNL     1      30.167  -0.802  53.828  1.00  0.00     0.022 C 
HETATM    2  C2  UNL     1      29.009  -0.989  53.489  1.00  0.00    -0.016 C 
HETATM    3  C3  UNL     1      27.650  -1.232  53.100  1.00  0.00     0.300 C 
HETATM    4  O1  UNL     1      27.223  -2.379  52.731  1.00  0.00    -0.258 OA
HETATM    5  N1  UNL     1      26.739  -0.156  53.127  1.00  0.00    -0.315 N 
HETATM    6  H2  UNL     1      27.096   0.773  53.436  1.00  0.00     0.170 HD
ENDROOT
BRANCH   5   7
HETATM    7  C4  UNL     1      25.406   0.266  52.891  1.00  0.00     0.053 C 
HETATM    8  C5  UNL     1      24.431  -0.250  53.621  1.00  0.00     0.147 C 
HETATM    9  N2  UNL     1      23.024  -0.034  53.628  1.00  0.00    -0.252 NA
HETATM   10  C6  UNL     1      22.266   0.852  53.109  1.00  0.00     0.234 C 
HETATM   11  N3  UNL     1      22.338   2.028  52.305  1.00  0.00    -0.225 NA
HETATM   12  C7  UNL     1      23.295   2.514  51.591  1.00  0.00     0.129 C 
HETATM   13  C14 UNL     1      24.678   2.172  51.255  1.00  0.00     0.053 C 
HETATM   14  C15 UNL     1      25.485   1.255  51.812  1.00  0.00     0.035 C 
BRANCH  12  15
HETATM   15  N4  UNL     1      22.899   3.719  50.961  1.00  0.00    -0.341 N 
HETATM   16  H5  UNL     1      21.905   3.880  50.683  1.00  0.00     0.167 HD
BRANCH  15  17
HETATM   17  C8  UNL     1      23.799   4.774  50.665  1.00  0.00     0.034 A 
HETATM   18  C9  UNL     1      23.543   5.988  51.304  1.00  0.00     0.029 A 
HETATM   19  C10 UNL     1      24.282   7.141  51.185  1.00  0.00     0.004 A 
HETATM   20  C11 UNL     1      25.382   7.081  50.351  1.00  0.00     0.019 A 
HETATM   21  C12 UNL     1      25.682   5.898  49.692  1.00  0.00     0.013 A 
HETATM   22 BR1  UNL     1      27.202   5.848  48.554  1.00  0.00    -0.051 Br
HETATM   23  C13 UNL     1      24.909   4.779  49.848  1.00  0.00     0.048 A 
ENDBRANCH  15  17
ENDBRANCH  12  15
ENDBRANCH   5   7
TORSDOF 3
ENDMDL
MODEL 6
REMARK VINA RESULT:      -6.9      5.509      8.508
REMARK  3 active torsions:
REMARK  status: ('A' for Active; 'I' for Inactive)
REMARK       I    between atoms: C3_3  and  N1_5 
REMARK    1  A    between atoms: N1_5  and  C4_6 
REMARK    2  A    between atoms: C7_11  and  N4_12 
REMARK    3  A    between atoms: N4_12  and  C8_13 
ROOT
HETATM    1  C1  UNL     1      26.746   3.390  50.047  1.00  0.00     0.022 C 
HETATM    2  C2  UNL     1      26.706   2.571  50.952  1.00  0.00    -0.016 C 
HETATM    3  C3  UNL     1      26.680   1.620  52.025  1.00  0.00     0.300 C 
HETATM    4  O1  UNL     1      27.730   1.239  52.648  1.00  0.00    -0.258 OA
HETATM    5  N1  UNL     1      25.438   1.079  52.415  1.00  0.00    -0.315 N 
HETATM    6  H2  UNL     1      24.588   1.402  51.906  1.00  0.00     0.170 HD
ENDROOT
BRANCH   5   7
HETATM    7  C4  UNL     1      24.761   0.191  53.290  1.00  0.00     0.053 C 
HETATM    8  C5  UNL     1      25.366  -0.203  54.398  1.00  0.00     0.147 C 
HETATM    9  N2  UNL     1      24.959  -1.067  55.454  1.00  0.00    -0.252 NA
HETATM   10  C6  UNL     1      23.837  -1.568  55.801  1.00  0.00     0.234 C 
HETATM   11  N3  UNL     1      22.467  -1.577  55.404  1.00  0.00    -0.225 NA
HETATM   12  C7  UNL     1      21.893  -1.197  54.314  1.00  0.00     0.129 C 
HETATM   13  C14 UNL     1      22.283  -0.605  53.033  1.00  0.00     0.053 C 
HETATM   14  C15 UNL     1      23.455  -0.059  52.672  1.00  0.00     0.035 C 
BRANCH  12  15
HETATM   15  N4  UNL     1      20.493  -1.401  54.377  1.00  0.00    -0.341 N 
HETATM   16  H5  UNL     1      20.059  -1.907  55.182  1.00  0.00     0.167 HD
BRANCH  15  17
HETATM   17  C8  UNL     1      19.595  -0.948  53.379  1.00  0.00     0.034 A 
HETATM   18  C9  UNL     1      18.297  -1.454  53.453  1.00  0.00     0.029 A 
HETATM   19  C10 UNL     1      17.256  -1.150  52.608  1.00  0.00     0.004 A 
HETATM   20  C11 UNL     1      17.532  -0.256  51.591  1.00  0.00     0.019 A 
HETATM   21  C12 UNL     1      18.806   0.279  51.473  1.00  0.00     0.013 A 
HETATM   22 BR1  UNL     1      19.153   1.507  50.066  1.00  0.00    -0.051 Br
HETATM   23  C13 UNL     1      19.806  -0.061  52.344  1.00  0.00     0.048 A 
ENDBRANCH  15  17
ENDBRANCH  12  15
ENDBRANCH   5   7
TORSDOF 3
ENDMDL
MODEL 7
REMARK VINA RESULT:      -6.8      5.193      7.828
REMARK  3 active torsions:
REMARK  status: ('A' for Active; 'I' for Inactive)
REMARK       I    between atoms: C3_3  and  N1_5 
REMARK    1  A    between atoms: N1_5  and  C4_6 
REMARK    2  A    between atoms: C7_11  and  N4_12 
REMARK    3  A    between atoms: N4_12  and  C8_13 
ROOT
HETATM    1  C1  UNL     1      23.273   6.094  47.750  1.00  0.00     0.022 C 
HETATM    2  C2  UNL     1      24.369   6.055  48.287  1.00  0.00    -0.016 C 
HETATM    3  C3  UNL     1      25.650   5.986  48.926  1.00  0.00     0.300 C 
HETATM    4  O1  UNL     1      25.859   5.334  50.007  1.00  0.00    -0.258 OA
HETATM    5  N1  UNL     1      26.735   6.667  48.337  1.00  0.00    -0.315 N 
HETATM    6  H2  UNL     1      26.556   7.189  47.452  1.00  0.00     0.170 HD
ENDROOT
BRANCH   5   7
HETATM    7  C4  UNL     1      28.113   6.992  48.426  1.00  0.00     0.053 C 
HETATM    8  C5  UNL     1      28.462   8.202  48.829  1.00  0.00     0.147 C 
HETATM    9  N2  UNL     1      29.732   8.817  49.020  1.00  0.00    -0.252 NA
HETATM   10  C6  UNL     1      30.927   8.372  49.080  1.00  0.00     0.234 C 
HETATM   11  N3  UNL     1      31.649   7.144  49.005  1.00  0.00    -0.225 NA
HETATM   12  C7  UNL     1      31.296   5.972  48.600  1.00  0.00     0.129 C 
HETATM   13  C14 UNL     1      30.097   5.326  48.064  1.00  0.00     0.053 C 
HETATM   14  C15 UNL     1      28.835   5.782  48.018  1.00  0.00     0.035 C 
BRANCH  12  15
HETATM   15  N4  UNL     1      32.366   5.051  48.714  1.00  0.00    -0.341 N 
HETATM   16  H5  UNL     1      32.616   4.627  49.635  1.00  0.00     0.167 HD
BRANCH  15  17
HETATM   17  C8  UNL     1      33.160   4.643  47.613  1.00  0.00     0.034 A 
HETATM   18  C9  UNL     1      34.194   3.753  47.906  1.00  0.00     0.029 A 
HETATM   19  C10 UNL     1      35.080   3.212  47.005  1.00  0.00     0.004 A 
HETATM   20  C11 UNL     1      34.923   3.591  45.685  1.00  0.00     0.019 A 
HETATM   21  C12 UNL     1      33.910   4.473  45.339  1.00  0.00     0.013 A 
HETATM   22 BR1  UNL     1      33.719   4.973  43.517  1.00  0.00    -0.051 Br
HETATM   23  C13 UNL     1      33.055   4.981  46.280  1.00  0.00     0.048 A 
ENDBRANCH  15  17
ENDBRANCH  12  15
ENDBRANCH   5   7
TORSDOF 3
ENDMDL
MODEL 8
REMARK VINA RESULT:      -6.7      4.902      7.689
REMARK  3 active torsions:
REMARK  status: ('A' for Active; 'I' for Inactive)
REMARK       I    between atoms: C3_3  and  N1_5 
REMARK    1  A    between atoms: N1_5  and  C4_6 
REMARK    2  A    between atoms: C7_11  and  N4_12 
REMARK    3  A    between atoms: N4_12  and  C8_13 
ROOT
HETATM    1  C1  UNL     1      16.887  -0.674  51.694  1.00  0.00     0.022 C 
HETATM    2  C2  UNL     1      18.017  -0.414  52.076  1.00  0.00    -0.016 C 
HETATM    3  C3  UNL     1      19.343  -0.129  52.541  1.00  0.00     0.300 C 
HETATM    4  O1  UNL     1      19.735  -0.377  53.733  1.00  0.00    -0.258 OA
HETATM    5  N1  UNL     1      20.262   0.451  51.643  1.00  0.00    -0.315 N 
HETATM    6  H2  UNL     1      19.934   0.642  50.672  1.00  0.00     0.170 HD
ENDROOT
BRANCH   5   7
HETATM    7  C4  UNL     1      21.578   0.944  51.457  1.00  0.00     0.053 C 
HETATM    8  C5  UNL     1      21.846   1.669  50.384  1.00  0.00     0.147 C 
HETATM    9  N2  UNL     1      23.041   2.294  49.925  1.00  0.00    -0.252 NA
HETATM   10  C6  UNL     1      24.167   2.550  50.470  1.00  0.00     0.234 C 
HETATM   11  N3  UNL     1      24.848   2.395  51.714  1.00  0.00    -0.225 NA
HETATM   12  C7  UNL     1      24.578   1.675  52.749  1.00  0.00     0.129 C 
HETATM   13  C14 UNL     1      23.540   0.736  53.175  1.00  0.00     0.053 C 
HETATM   14  C15 UNL     1      22.346   0.478  52.616  1.00  0.00     0.035 C 
BRANCH  12  15
HETATM   15  N4  UNL     1      25.555   1.849  53.759  1.00  0.00    -0.341 N 
HETATM   16  H5  UNL     1      25.350   2.410  54.616  1.00  0.00     0.167 HD
BRANCH  15  17
HETATM   17  C8  UNL     1      26.856   1.290  53.687  1.00  0.00     0.034 A 
HETATM   18  C9  UNL     1      27.912   2.185  53.860  1.00  0.00     0.029 A 
HETATM   19  C10 UNL     1      29.251   1.874  53.845  1.00  0.00     0.004 A 
HETATM   20  C11 UNL     1      29.571   0.545  53.638  1.00  0.00     0.019 A 
HETATM   21  C12 UNL     1      28.559  -0.386  53.461  1.00  0.00     0.013 A 
HETATM   22 BR1  UNL     1      29.030  -2.204  53.182  1.00  0.00    -0.051 Br
HETATM   23  C13 UNL     1      27.240  -0.019  53.485  1.00  0.00     0.048 A 
ENDBRANCH  15  17
ENDBRANCH  12  15
ENDBRANCH   5   7
TORSDOF 3
ENDMDL
MODEL 9
REMARK VINA RESULT:      -6.5      6.418      7.563
REMARK  3 active torsions:
REMARK  status: ('A' for Active; 'I' for Inactive)
REMARK       I    between atoms: C3_3  and  N1_5 
REMARK    1  A    between atoms: N1_5  and  C4_6 
REMARK    2  A    between atoms: C7_11  and  N4_12 
REMARK    3  A    between atoms: N4_12  and  C8_13 
ROOT
HETATM    1  C1  UNL     1      32.016   0.474  46.701  1.00  0.00     0.022 C 
HETATM    2  C2  UNL     1      32.564   1.497  47.080  1.00  0.00    -0.016 C 
HETATM    3  C3  UNL     1      33.231   2.687  47.523  1.00  0.00     0.300 C 
HETATM    4  O1  UNL     1      34.345   2.672  48.150  1.00  0.00    -0.258 OA
HETATM    5  N1  UNL     1      32.632   3.935  47.253  1.00  0.00    -0.315 N 
HETATM    6  H2  UNL     1      31.728   3.935  46.735  1.00  0.00     0.170 HD
ENDROOT
BRANCH   5   7
HETATM    7  C4  UNL     1      32.727   5.343  47.392  1.00  0.00     0.053 C 
HETATM    8  C5  UNL     1      33.263   6.049  46.411  1.00  0.00     0.147 C 
HETATM    9  N2  UNL     1      33.492   7.445  46.253  1.00  0.00    -0.252 NA
HETATM   10  C6  UNL     1      33.082   8.482  46.874  1.00  0.00     0.234 C 
HETATM   11  N3  UNL     1      32.246   8.849  47.971  1.00  0.00    -0.225 NA
HETATM   12  C7  UNL     1      31.737   8.148  48.926  1.00  0.00     0.129 C 
HETATM   13  C14 UNL     1      31.730   6.750  49.359  1.00  0.00     0.053 C 
HETATM   14  C15 UNL     1      32.142   5.655  48.700  1.00  0.00     0.035 C 
BRANCH  12  15
HETATM   15  N4  UNL     1      30.963   8.956  49.794  1.00  0.00    -0.341 N 
HETATM   16  H5  UNL     1      31.224   9.070  50.799  1.00  0.00     0.167 HD
BRANCH  15  17
HETATM   17  C8  UNL     1      29.802   9.654  49.377  1.00  0.00     0.034 A 
HETATM   18  C9  UNL     1      28.634   8.896  49.293  1.00  0.00     0.029 A 
HETATM   19  C10 UNL     1      27.391   9.355  48.927  1.00  0.00     0.004 A 
HETATM   20  C11 UNL     1      27.300  10.698  48.615  1.00  0.00     0.019 A 
HETATM   21  C12 UNL     1      28.431  11.498  48.683  1.00  0.00     0.013 A 
HETATM   22 BR1  UNL     1      28.273  13.340  48.250  1.00  0.00    -0.051 Br
HETATM   23  C13 UNL     1      29.645  10.986  49.053  1.00  0.00     0.048 A 
ENDBRANCH  15  17
ENDBRANCH  12  15
ENDBRANCH   5   7
TORSDOF 3
ENDMDL
