MODEL 1
REMARK VINA RESULT:      -8.9      0.000      0.000
REMARK  6 active torsions:
REMARK  status: ('A' for Active; 'I' for Inactive)
REMARK    1  A    between atoms: O1_2  and  C2_3 
REMARK    2  A    between atoms: C6_7  and  N1_8 
REMARK    3  A    between atoms: N1_8  and  C7_9 
REMARK    4  A    between atoms: N4_18  and  C14_19 
REMARK    5  A    between atoms: C14_19  and  C15_20 
REMARK    6  A    between atoms: C15_20  and  N5_21 
ROOT
HETATM    1  C7  UNL     1      24.729  -0.400  53.845  1.00  0.00     0.120 C 
HETATM    2  N2  UNL     1      24.581  -0.918  54.923  1.00  0.00    -0.219 NA
HETATM    3  C8  UNL     1      23.138  -1.046  54.831  1.00  0.00     0.137 C 
HETATM    4  N3  UNL     1      21.999  -1.764  55.274  1.00  0.00    -0.263 NA
HETATM    5  C9  UNL     1      20.746  -1.569  54.326  1.00  0.00     0.175 C 
HETATM    6  C10 UNL     1      21.290  -0.681  53.503  1.00  0.00     0.121 A 
HETATM    7  C11 UNL     1      22.389  -1.164  52.478  1.00  0.00     0.067 A 
HETATM    8  C12 UNL     1      22.351   0.097  52.586  1.00  0.00     0.088 A 
HETATM    9  C13 UNL     1      23.351   0.095  53.835  1.00  0.00     0.158 C 
HETATM   10  N4  UNL     1      22.118   1.478  52.463  1.00  0.00    -0.372 N 
HETATM   11  C21 UNL     1      20.615   1.439  52.568  1.00  0.00     0.216 C 
HETATM   12  C22 UNL     1      19.998   0.608  51.546  1.00  0.00     0.063 C 
HETATM   13  O3  UNL     1      20.711   0.650  53.905  1.00  0.00    -0.351 OA
ENDROOT
BRANCH   1  14
HETATM   14  N1  UNL     1      25.267   0.239  52.585  1.00  0.00    -0.344 N 
HETATM   15  H7  UNL     1      25.310   0.552  51.621  1.00  0.00     0.167 HD
BRANCH  14  16
HETATM   16  C6  UNL     1      26.602   0.748  52.963  1.00  0.00     0.036 A 
HETATM   17  C5  UNL     1      26.976   2.055  53.172  1.00  0.00     0.029 A 
HETATM   18  C4  UNL     1      28.268   2.325  53.544  1.00  0.00     0.005 A 
HETATM   19  C3  UNL     1      29.221   1.354  53.722  1.00  0.00     0.037 A 
HETATM   20  C2  UNL     1      28.905   0.027  53.526  1.00  0.00     0.070 A 
HETATM   21  C23 UNL     1      27.587  -0.227  53.148  1.00  0.00     0.066 A 
BRANCH  20  22
HETATM   22  O1  UNL     1      29.783  -1.042  53.678  1.00  0.00    -0.356 OA
HETATM   23  C1  UNL     1      29.398  -2.365  53.320  1.00  0.00     0.210 C 
ENDBRANCH  20  22
ENDBRANCH  14  16
ENDBRANCH   1  14
BRANCH  10  24
HETATM   24  C14 UNL     1      22.935   2.630  52.346  1.00  0.00     0.150 C 
BRANCH  24  25
HETATM   25  C15 UNL     1      23.393   2.905  50.937  1.00  0.00     0.292 C 
BRANCH  25  26
HETATM   26  N5  UNL     1      24.508   3.862  51.030  1.00  0.00     0.098 N 
HETATM   27  C16 UNL     1      23.917   5.058  51.598  1.00  0.00     0.299 C 
HETATM   28  C17 UNL     1      23.419   5.881  50.444  1.00  0.00     0.198 C 
HETATM   29  O2  UNL     1      24.452   6.391  49.664  1.00  0.00    -0.387 OA
HETATM   30  C18 UNL     1      25.534   5.563  49.561  1.00  0.00     0.203 C 
HETATM   31  C19 UNL     1      25.188   4.100  49.805  1.00  0.00     0.242 C 
HETATM   32  C20 UNL     1      26.509   3.357  49.832  1.00  0.00     0.045 C 
ENDBRANCH  25  26
ENDBRANCH  24  25
ENDBRANCH  10  24
TORSDOF 6
ENDMDL
MODEL 2
REMARK VINA RESULT:      -8.5      1.826      6.798
REMARK  6 active torsions:
REMARK  status: ('A' for Active; 'I' for Inactive)
REMARK    1  A    between atoms: O1_2  and  C2_3 
REMARK    2  A    between atoms: C6_7  and  N1_8 
REMARK    3  A    between atoms: N1_8  and  C7_9 
REMARK    4  A    between atoms: N4_18  and  C14_19 
REMARK    5  A    between atoms: C14_19  and  C15_20 
REMARK    6  A    between atoms: C15_20  and  N5_21 
ROOT
HETATM    1  C7  UNL     1      20.944   2.831  51.464  1.00  0.00     0.120 C 
HETATM    2  N2  UNL     1      20.446   3.812  51.957  1.00  0.00    -0.219 NA
HETATM    3  C8  UNL     1      21.465   4.741  51.505  1.00  0.00     0.137 C 
HETATM    4  N3  UNL     1      21.752   6.090  51.177  1.00  0.00    -0.263 NA
HETATM    5  C9  UNL     1      23.059   6.241  50.296  1.00  0.00     0.175 C 
HETATM    6  C10 UNL     1      23.421   4.963  50.307  1.00  0.00     0.121 A 
HETATM    7  C11 UNL     1      22.587   3.928  49.458  1.00  0.00     0.067 A 
HETATM    8  C12 UNL     1      23.357   3.361  50.287  1.00  0.00     0.088 A 
HETATM    9  C13 UNL     1      22.274   3.444  51.463  1.00  0.00     0.158 C 
HETATM   10  N4  UNL     1      24.408   2.724  50.970  1.00  0.00    -0.372 N 
HETATM   11  C21 UNL     1      25.473   3.759  50.710  1.00  0.00     0.216 C 
HETATM   12  C22 UNL     1      25.700   3.994  49.294  1.00  0.00     0.063 C 
HETATM   13  O3  UNL     1      24.557   4.873  51.292  1.00  0.00    -0.351 OA
ENDROOT
BRANCH   1  14
HETATM   14  N1  UNL     1      21.277   1.435  50.987  1.00  0.00    -0.344 N 
HETATM   15  H7  UNL     1      21.712   0.692  50.450  1.00  0.00     0.167 HD
BRANCH  14  16
HETATM   16  C6  UNL     1      20.434   0.546  51.811  1.00  0.00     0.036 A 
HETATM   17  C5  UNL     1      19.119   0.199  51.601  1.00  0.00     0.029 A 
HETATM   18  C4  UNL     1      18.512  -0.668  52.474  1.00  0.00     0.005 A 
HETATM   19  C3  UNL     1      19.149  -1.216  53.558  1.00  0.00     0.037 A 
HETATM   20  C2  UNL     1      20.466  -0.905  53.821  1.00  0.00     0.070 A 
HETATM   21  C23 UNL     1      21.065  -0.022  52.922  1.00  0.00     0.066 A 
BRANCH  20  22
HETATM   22  O1  UNL     1      21.215  -1.398  54.885  1.00  0.00    -0.356 OA
HETATM   23  C1  UNL     1      22.630  -1.250  54.917  1.00  0.00     0.210 C 
ENDBRANCH  20  22
ENDBRANCH  14  16
ENDBRANCH   1  14
BRANCH  10  24
HETATM   24  C14 UNL     1      24.537   1.542  51.741  1.00  0.00     0.150 C 
BRANCH  24  25
HETATM   25  C15 UNL     1      25.376   1.720  52.981  1.00  0.00     0.292 C 
BRANCH  25  26
HETATM   26  N5  UNL     1      26.730   1.244  52.651  1.00  0.00     0.098 N 
HETATM   27  C16 UNL     1      26.525  -0.068  52.070  1.00  0.00     0.299 C 
HETATM   28  C17 UNL     1      26.550  -1.050  53.206  1.00  0.00     0.198 C 
HETATM   29  O2  UNL     1      27.809  -1.166  53.787  1.00  0.00    -0.387 OA
HETATM   30  C18 UNL     1      28.522  -0.001  53.809  1.00  0.00     0.203 C 
HETATM   31  C19 UNL     1      27.639   1.238  53.744  1.00  0.00     0.242 C 
HETATM   32  C20 UNL     1      28.581   2.416  53.597  1.00  0.00     0.045 C 
ENDBRANCH  25  26
ENDBRANCH  24  25
ENDBRANCH  10  24
TORSDOF 6
ENDMDL
MODEL 3
REMARK VINA RESULT:      -8.5      1.619      6.061
REMARK  6 active torsions:
REMARK  status: ('A' for Active; 'I' for Inactive)
REMARK    1  A    between atoms: O1_2  and  C2_3 
REMARK    2  A    between atoms: C6_7  and  N1_8 
REMARK    3  A    between atoms: N1_8  and  C7_9 
REMARK    4  A    between atoms: N4_18  and  C14_19 
REMARK    5  A    between atoms: C14_19  and  C15_20 
REMARK    6  A    between atoms: C15_20  and  N5_21 
ROOT
HETATM    1  C7  UNL     1      22.697   3.180  50.401  1.00  0.00     0.120 C 
HETATM    2  N2  UNL     1      22.031   2.840  49.457  1.00  0.00    -0.219 NA
HETATM    3  C8  UNL     1      21.327   1.774  50.146  1.00  0.00     0.137 C 
HETATM    4  N3  UNL     1      20.148   0.987  50.183  1.00  0.00    -0.263 NA
HETATM    5  C9  UNL     1      19.925   0.286  51.585  1.00  0.00     0.175 C 
HETATM    6  C10 UNL     1      21.058   0.679  52.156  1.00  0.00     0.121 A 
HETATM    7  C11 UNL     1      21.213   2.191  52.580  1.00  0.00     0.067 A 
HETATM    8  C12 UNL     1      22.318   1.574  52.584  1.00  0.00     0.088 A 
HETATM    9  C13 UNL     1      22.571   1.864  51.031  1.00  0.00     0.158 C 
HETATM   10  N4  UNL     1      23.480   0.842  52.887  1.00  0.00    -0.372 N 
HETATM   11  C21 UNL     1      22.804  -0.392  53.430  1.00  0.00     0.216 C 
HETATM   12  C22 UNL     1      21.933  -0.109  54.559  1.00  0.00     0.063 C 
HETATM   13  O3  UNL     1      21.962  -0.525  52.130  1.00  0.00    -0.351 OA
ENDROOT
BRANCH   1  14
HETATM   14  N1  UNL     1      23.660   3.855  51.352  1.00  0.00    -0.344 N 
HETATM   15  H7  UNL     1      24.035   4.237  52.214  1.00  0.00     0.167 HD
BRANCH  14  16
HETATM   16  C6  UNL     1      24.825   4.211  50.517  1.00  0.00     0.036 A 
HETATM   17  C5  UNL     1      25.826   3.379  50.069  1.00  0.00     0.029 A 
HETATM   18  C4  UNL     1      26.817   3.898  49.276  1.00  0.00     0.005 A 
HETATM   19  C3  UNL     1      26.869   5.216  48.899  1.00  0.00     0.037 A 
HETATM   20  C2  UNL     1      25.895   6.097  49.317  1.00  0.00     0.070 A 
HETATM   21  C23 UNL     1      24.896   5.550  50.122  1.00  0.00     0.066 A 
BRANCH  20  22
HETATM   22  O1  UNL     1      25.841   7.451  48.998  1.00  0.00    -0.356 OA
HETATM   23  C1  UNL     1      25.470   8.420  49.972  1.00  0.00     0.210 C 
ENDBRANCH  20  22
ENDBRANCH  14  16
ENDBRANCH   1  14
BRANCH  10  24
HETATM   24  C14 UNL     1      24.872   1.050  52.722  1.00  0.00     0.150 C 
BRANCH  24  25
HETATM   25  C15 UNL     1      25.715   0.326  53.740  1.00  0.00     0.292 C 
BRANCH  25  26
HETATM   26  N5  UNL     1      27.049   0.150  53.142  1.00  0.00     0.098 N 
HETATM   27  C16 UNL     1      26.844  -0.804  52.069  1.00  0.00     0.299 C 
HETATM   28  C17 UNL     1      27.025  -2.170  52.667  1.00  0.00     0.198 C 
HETATM   29  O2  UNL     1      28.340  -2.417  53.049  1.00  0.00    -0.387 OA
HETATM   30  C18 UNL     1      29.000  -1.317  53.519  1.00  0.00     0.203 C 
HETATM   31  C19 UNL     1      28.061  -0.245  54.057  1.00  0.00     0.242 C 
HETATM   32  C20 UNL     1      28.932   0.957  54.365  1.00  0.00     0.045 C 
ENDBRANCH  25  26
ENDBRANCH  24  25
ENDBRANCH  10  24
TORSDOF 6
ENDMDL
MODEL 4
REMARK VINA RESULT:      -8.3      1.568      5.770
REMARK  6 active torsions:
REMARK  status: ('A' for Active; 'I' for Inactive)
REMARK    1  A    between atoms: O1_2  and  C2_3 
REMARK    2  A    between atoms: C6_7  and  N1_8 
REMARK    3  A    between atoms: N1_8  and  C7_9 
REMARK    4  A    between atoms: N4_18  and  C14_19 
REMARK    5  A    between atoms: C14_19  and  C15_20 
REMARK    6  A    between atoms: C15_20  and  N5_21 
ROOT
HETATM    1  C7  UNL     1      26.450   3.209  50.896  1.00  0.00     0.120 C 
HETATM    2  N2  UNL     1      27.140   3.531  49.962  1.00  0.00    -0.219 NA
HETATM    3  C8  UNL     1      26.189   4.467  49.390  1.00  0.00     0.137 C 
HETATM    4  N3  UNL     1      26.028   5.618  48.579  1.00  0.00    -0.263 NA
HETATM    5  C9  UNL     1      24.629   6.328  48.795  1.00  0.00     0.175 C 
HETATM    6  C10 UNL     1      24.114   5.439  49.636  1.00  0.00     0.121 A 
HETATM    7  C11 UNL     1      24.668   5.378  51.113  1.00  0.00     0.067 A 
HETATM    8  C12 UNL     1      23.971   4.363  50.817  1.00  0.00     0.088 A 
HETATM    9  C13 UNL     1      25.225   3.591  50.191  1.00  0.00     0.158 C 
HETATM   10  N4  UNL     1      22.966   3.401  50.613  1.00  0.00    -0.372 N 
HETATM   11  C21 UNL     1      22.014   4.267  49.827  1.00  0.00     0.216 C 
HETATM   12  C22 UNL     1      21.601   5.456  50.555  1.00  0.00     0.063 C 
HETATM   13  O3  UNL     1      23.144   4.626  48.821  1.00  0.00    -0.351 OA
ENDROOT
BRANCH   1  14
HETATM   14  N1  UNL     1      25.873   2.597  52.153  1.00  0.00    -0.344 N 
HETATM   15  H7  UNL     1      25.193   2.347  52.863  1.00  0.00     0.167 HD
BRANCH  14  16
HETATM   16  C6  UNL     1      27.014   1.913  52.796  1.00  0.00     0.036 A 
HETATM   17  C5  UNL     1      28.096   2.487  53.421  1.00  0.00     0.029 A 
HETATM   18  C4  UNL     1      29.048   1.675  53.983  1.00  0.00     0.005 A 
HETATM   19  C3  UNL     1      28.981   0.305  53.957  1.00  0.00     0.037 A 
HETATM   20  C2  UNL     1      27.921  -0.328  53.344  1.00  0.00     0.070 A 
HETATM   21  C23 UNL     1      26.964   0.516  52.779  1.00  0.00     0.066 A 
BRANCH  20  22
HETATM   22  O1  UNL     1      27.744  -1.705  53.256  1.00  0.00    -0.356 OA
HETATM   23  C1  UNL     1      26.844  -2.271  52.311  1.00  0.00     0.210 C 
ENDBRANCH  20  22
ENDBRANCH  14  16
ENDBRANCH   1  14
BRANCH  10  24
HETATM   24  C14 UNL     1      22.810   2.027  50.926  1.00  0.00     0.150 C 
BRANCH  24  25
HETATM   25  C15 UNL     1      22.411   1.776  52.358  1.00  0.00     0.292 C 
BRANCH  25  26
HETATM   26  N5  UNL     1      22.207   0.325  52.495  1.00  0.00     0.098 N 
HETATM   27  C16 UNL     1      21.027   0.044  51.701  1.00  0.00     0.299 C 
HETATM   28  C17 UNL     1      19.845   0.211  52.613  1.00  0.00     0.198 C 
HETATM   29  O2  UNL     1      19.789  -0.768  53.600  1.00  0.00    -0.387 OA
HETATM   30  C18 UNL     1      21.012  -1.175  54.052  1.00  0.00     0.203 C 
HETATM   31  C19 UNL     1      22.103  -0.135  53.836  1.00  0.00     0.242 C 
HETATM   32  C20 UNL     1      23.405  -0.807  54.221  1.00  0.00     0.045 C 
ENDBRANCH  25  26
ENDBRANCH  24  25
ENDBRANCH  10  24
TORSDOF 6
ENDMDL
MODEL 5
REMARK VINA RESULT:      -8.2      1.709      6.383
REMARK  6 active torsions:
REMARK  status: ('A' for Active; 'I' for Inactive)
REMARK    1  A    between atoms: O1_2  and  C2_3 
REMARK    2  A    between atoms: C6_7  and  N1_8 
REMARK    3  A    between atoms: N1_8  and  C7_9 
REMARK    4  A    between atoms: N4_18  and  C14_19 
REMARK    5  A    between atoms: C14_19  and  C15_20 
REMARK    6  A    between atoms: C15_20  and  N5_21 
ROOT
HETATM    1  C7  UNL     1      21.393   2.617  51.790  1.00  0.00     0.120 C 
HETATM    2  N2  UNL     1      20.571   3.463  52.037  1.00  0.00    -0.219 NA
HETATM    3  C8  UNL     1      21.220   4.525  51.290  1.00  0.00     0.137 C 
HETATM    4  N3  UNL     1      21.032   5.749  50.600  1.00  0.00    -0.263 NA
HETATM    5  C9  UNL     1      22.234   6.092  49.627  1.00  0.00     0.175 C 
HETATM    6  C10 UNL     1      23.015   5.069  49.951  1.00  0.00     0.121 A 
HETATM    7  C11 UNL     1      22.617   3.622  49.462  1.00  0.00     0.067 A 
HETATM    8  C12 UNL     1      23.509   3.598  50.360  1.00  0.00     0.088 A 
HETATM    9  C13 UNL     1      22.428   3.622  51.539  1.00  0.00     0.158 C 
HETATM   10  N4  UNL     1      24.694   3.568  51.116  1.00  0.00    -0.372 N 
HETATM   11  C21 UNL     1      25.343   4.794  50.523  1.00  0.00     0.216 C 
HETATM   12  C22 UNL     1      25.519   4.699  49.083  1.00  0.00     0.063 C 
HETATM   13  O3  UNL     1      24.080   5.641  50.849  1.00  0.00    -0.351 OA
ENDROOT
BRANCH   1  14
HETATM   14  N1  UNL     1      22.203   1.345  51.677  1.00  0.00    -0.344 N 
HETATM   15  H7  UNL     1      22.927   0.702  51.375  1.00  0.00     0.167 HD
BRANCH  14  16
HETATM   16  C6  UNL     1      21.523   0.387  52.574  1.00  0.00     0.036 A 
HETATM   17  C5  UNL     1      20.216  -0.038  52.516  1.00  0.00     0.029 A 
HETATM   18  C4  UNL     1      19.775  -0.959  53.431  1.00  0.00     0.005 A 
HETATM   19  C3  UNL     1      20.573  -1.487  54.415  1.00  0.00     0.037 A 
HETATM   20  C2  UNL     1      21.891  -1.098  54.523  1.00  0.00     0.070 A 
HETATM   21  C23 UNL     1      22.320  -0.162  53.583  1.00  0.00     0.066 A 
BRANCH  20  22
HETATM   22  O1  UNL     1      22.794  -1.564  55.474  1.00  0.00    -0.356 OA
HETATM   23  C1  UNL     1      24.179  -1.250  55.387  1.00  0.00     0.210 C 
ENDBRANCH  20  22
ENDBRANCH  14  16
ENDBRANCH   1  14
BRANCH  10  24
HETATM   24  C14 UNL     1      25.200   2.757  52.162  1.00  0.00     0.150 C 
BRANCH  24  25
HETATM   25  C15 UNL     1      26.195   1.725  51.698  1.00  0.00     0.292 C 
BRANCH  25  26
HETATM   26  N5  UNL     1      26.585   0.944  52.884  1.00  0.00     0.098 N 
HETATM   27  C16 UNL     1      27.090   1.930  53.821  1.00  0.00     0.299 C 
HETATM   28  C17 UNL     1      28.558   2.077  53.540  1.00  0.00     0.198 C 
HETATM   29  O2  UNL     1      29.284   0.937  53.875  1.00  0.00    -0.387 OA
HETATM   30  C18 UNL     1      28.610  -0.233  53.666  1.00  0.00     0.203 C 
HETATM   31  C19 UNL     1      27.505  -0.107  52.626  1.00  0.00     0.242 C 
HETATM   32  C20 UNL     1      26.756  -1.424  52.649  1.00  0.00     0.045 C 
ENDBRANCH  25  26
ENDBRANCH  24  25
ENDBRANCH  10  24
TORSDOF 6
ENDMDL
MODEL 6
REMARK VINA RESULT:      -8.2      1.906      5.226
REMARK  6 active torsions:
REMARK  status: ('A' for Active; 'I' for Inactive)
REMARK    1  A    between atoms: O1_2  and  C2_3 
REMARK    2  A    between atoms: C6_7  and  N1_8 
REMARK    3  A    between atoms: N1_8  and  C7_9 
REMARK    4  A    between atoms: N4_18  and  C14_19 
REMARK    5  A    between atoms: C14_19  and  C15_20 
REMARK    6  A    between atoms: C15_20  and  N5_21 
ROOT
HETATM    1  C7  UNL     1      22.669   1.731  50.101  1.00  0.00     0.120 C 
HETATM    2  N2  UNL     1      21.850   1.499  49.247  1.00  0.00    -0.219 NA
HETATM    3  C8  UNL     1      20.788   1.114  50.158  1.00  0.00     0.137 C 
HETATM    4  N3  UNL     1      19.386   1.008  50.338  1.00  0.00    -0.263 NA
HETATM    5  C9  UNL     1      18.971   0.902  51.863  1.00  0.00     0.175 C 
HETATM    6  C10 UNL     1      20.197   0.861  52.372  1.00  0.00     0.121 A 
HETATM    7  C11 UNL     1      21.066   2.178  52.372  1.00  0.00     0.067 A 
HETATM    8  C12 UNL     1      21.757   1.145  52.613  1.00  0.00     0.088 A 
HETATM    9  C13 UNL     1      21.996   0.851  51.059  1.00  0.00     0.158 C 
HETATM   10  N4  UNL     1      22.468   0.070  53.176  1.00  0.00    -0.372 N 
HETATM   11  C21 UNL     1      21.342  -0.509  53.995  1.00  0.00     0.216 C 
HETATM   12  C22 UNL     1      20.789   0.440  54.947  1.00  0.00     0.063 C 
HETATM   13  O3  UNL     1      20.437  -0.582  52.732  1.00  0.00    -0.351 OA
ENDROOT
BRANCH   1  14
HETATM   14  N1  UNL     1      23.904   2.110  50.887  1.00  0.00    -0.344 N 
HETATM   15  H7  UNL     1      24.636   2.066  51.588  1.00  0.00     0.167 HD
BRANCH  14  16
HETATM   16  C6  UNL     1      24.384   3.355  50.253  1.00  0.00     0.036 A 
HETATM   17  C5  UNL     1      23.672   4.509  50.018  1.00  0.00     0.029 A 
HETATM   18  C4  UNL     1      24.308   5.576  49.435  1.00  0.00     0.005 A 
HETATM   19  C3  UNL     1      25.629   5.557  49.068  1.00  0.00     0.037 A 
HETATM   20  C2  UNL     1      26.393   4.429  49.277  1.00  0.00     0.070 A 
HETATM   21  C23 UNL     1      25.729   3.356  49.871  1.00  0.00     0.066 A 
BRANCH  20  22
HETATM   22  O1  UNL     1      27.739   4.293  48.949  1.00  0.00    -0.356 OA
HETATM   23  C1  UNL     1      28.462   5.366  48.356  1.00  0.00     0.210 C 
ENDBRANCH  20  22
ENDBRANCH  14  16
ENDBRANCH   1  14
BRANCH  10  24
HETATM   24  C14 UNL     1      23.781  -0.447  53.045  1.00  0.00     0.150 C 
BRANCH  24  25
HETATM   25  C15 UNL     1      24.485  -0.645  54.363  1.00  0.00     0.292 C 
BRANCH  25  26
HETATM   26  N5  UNL     1      25.929  -0.536  54.096  1.00  0.00     0.098 N 
HETATM   27  C16 UNL     1      26.340   0.666  54.794  1.00  0.00     0.299 C 
HETATM   28  C17 UNL     1      26.162   1.805  53.830  1.00  0.00     0.198 C 
HETATM   29  O2  UNL     1      27.055   1.749  52.765  1.00  0.00    -0.387 OA
HETATM   30  C18 UNL     1      27.355   0.481  52.354  1.00  0.00     0.203 C 
HETATM   31  C19 UNL     1      26.278  -0.532  52.718  1.00  0.00     0.242 C 
HETATM   32  C20 UNL     1      26.842  -1.891  52.357  1.00  0.00     0.045 C 
ENDBRANCH  25  26
ENDBRANCH  24  25
ENDBRANCH  10  24
TORSDOF 6
ENDMDL
MODEL 7
REMARK VINA RESULT:      -8.2      1.502      2.267
REMARK  6 active torsions:
REMARK  status: ('A' for Active; 'I' for Inactive)
REMARK    1  A    between atoms: O1_2  and  C2_3 
REMARK    2  A    between atoms: C6_7  and  N1_8 
REMARK    3  A    between atoms: N1_8  and  C7_9 
REMARK    4  A    between atoms: N4_18  and  C14_19 
REMARK    5  A    between atoms: C14_19  and  C15_20 
REMARK    6  A    between atoms: C15_20  and  N5_21 
ROOT
HETATM    1  C7  UNL     1      23.595  -0.112  53.387  1.00  0.00     0.120 C 
HETATM    2  N2  UNL     1      23.034  -0.746  54.244  1.00  0.00    -0.219 NA
HETATM    3  C8  UNL     1      21.689  -0.355  53.866  1.00  0.00     0.137 C 
HETATM    4  N3  UNL     1      20.318  -0.714  53.891  1.00  0.00    -0.263 NA
HETATM    5  C9  UNL     1      19.459   0.077  52.821  1.00  0.00     0.175 C 
HETATM    6  C10 UNL     1      20.426   0.869  52.375  1.00  0.00     0.121 A 
HETATM    7  C11 UNL     1      21.562   0.249  51.472  1.00  0.00     0.067 A 
HETATM    8  C12 UNL     1      21.864   1.401  51.902  1.00  0.00     0.088 A 
HETATM    9  C13 UNL     1      22.468   0.816  53.264  1.00  0.00     0.158 C 
HETATM   10  N4  UNL     1      22.078   2.774  52.112  1.00  0.00    -0.372 N 
HETATM   11  C21 UNL     1      20.651   3.230  51.934  1.00  0.00     0.216 C 
HETATM   12  C22 UNL     1      20.103   2.875  50.634  1.00  0.00     0.063 C 
HETATM   13  O3  UNL     1      20.173   2.212  53.007  1.00  0.00    -0.351 OA
ENDROOT
BRANCH   1  14
HETATM   14  N1  UNL     1      24.597   0.538  52.459  1.00  0.00    -0.344 N 
HETATM   15  H7  UNL     1      24.973   1.157  51.749  1.00  0.00     0.167 HD
BRANCH  14  16
HETATM   16  C6  UNL     1      25.869  -0.160  52.733  1.00  0.00     0.036 A 
HETATM   17  C5  UNL     1      26.208  -1.452  52.404  1.00  0.00     0.029 A 
HETATM   18  C4  UNL     1      27.459  -1.914  52.726  1.00  0.00     0.005 A 
HETATM   19  C3  UNL     1      28.403  -1.152  53.366  1.00  0.00     0.037 A 
HETATM   20  C2  UNL     1      28.121   0.150  53.721  1.00  0.00     0.070 A 
HETATM   21  C23 UNL     1      26.845   0.601  53.385  1.00  0.00     0.066 A 
BRANCH  20  22
HETATM   22  O1  UNL     1      28.996   1.018  54.368  1.00  0.00    -0.356 OA
HETATM   23  C1  UNL     1      29.108   2.379  53.971  1.00  0.00     0.210 C 
ENDBRANCH  20  22
ENDBRANCH  14  16
ENDBRANCH   1  14
BRANCH  10  24
HETATM   24  C14 UNL     1      23.193   3.579  52.454  1.00  0.00     0.150 C 
BRANCH  24  25
HETATM   25  C15 UNL     1      23.011   5.037  52.118  1.00  0.00     0.292 C 
BRANCH  25  26
HETATM   26  N5  UNL     1      23.825   5.303  50.920  1.00  0.00     0.098 N 
HETATM   27  C16 UNL     1      24.399   6.614  51.152  1.00  0.00     0.299 C 
HETATM   28  C17 UNL     1      23.421   7.615  50.606  1.00  0.00     0.198 C 
HETATM   29  O2  UNL     1      23.322   7.566  49.219  1.00  0.00    -0.387 OA
HETATM   30  C18 UNL     1      23.457   6.311  48.695  1.00  0.00     0.203 C 
HETATM   31  C19 UNL     1      23.117   5.210  49.691  1.00  0.00     0.242 C 
HETATM   32  C20 UNL     1      23.487   3.906  49.015  1.00  0.00     0.045 C 
ENDBRANCH  25  26
ENDBRANCH  24  25
ENDBRANCH  10  24
TORSDOF 6
ENDMDL
MODEL 8
REMARK VINA RESULT:      -8.0      2.522      6.476
REMARK  6 active torsions:
REMARK  status: ('A' for Active; 'I' for Inactive)
REMARK    1  A    between atoms: O1_2  and  C2_3 
REMARK    2  A    between atoms: C6_7  and  N1_8 
REMARK    3  A    between atoms: N1_8  and  C7_9 
REMARK    4  A    between atoms: N4_18  and  C14_19 
REMARK    5  A    between atoms: C14_19  and  C15_20 
REMARK    6  A    between atoms: C15_20  and  N5_21 
ROOT
HETATM    1  C7  UNL     1      24.095   4.918  49.014  1.00  0.00     0.120 C 
HETATM    2  N2  UNL     1      23.344   4.773  48.084  1.00  0.00    -0.219 NA
HETATM    3  C8  UNL     1      22.469   3.821  48.743  1.00  0.00     0.137 C 
HETATM    4  N3  UNL     1      21.162   3.275  48.789  1.00  0.00    -0.263 NA
HETATM    5  C9  UNL     1      20.854   2.542  50.159  1.00  0.00     0.175 C 
HETATM    6  C10 UNL     1      22.060   2.673  50.699  1.00  0.00     0.121 A 
HETATM    7  C11 UNL     1      22.521   4.097  51.199  1.00  0.00     0.067 A 
HETATM    8  C12 UNL     1      23.484   3.280  51.119  1.00  0.00     0.088 A 
HETATM    9  C13 UNL     1      23.736   3.613  49.574  1.00  0.00     0.158 C 
HETATM   10  N4  UNL     1      24.490   2.320  51.327  1.00  0.00    -0.372 N 
HETATM   11  C21 UNL     1      23.606   1.207  51.830  1.00  0.00     0.216 C 
HETATM   12  C22 UNL     1      22.845   1.580  53.012  1.00  0.00     0.063 C 
HETATM   13  O3  UNL     1      22.711   1.322  50.564  1.00  0.00    -0.351 OA
ENDROOT
BRANCH   1  14
HETATM   14  N1  UNL     1      25.203   5.333  49.957  1.00  0.00    -0.344 N 
HETATM   15  H7  UNL     1      25.718   5.460  50.822  1.00  0.00     0.167 HD
BRANCH  14  16
HETATM   16  C6  UNL     1      26.204   5.992  49.093  1.00  0.00     0.036 A 
HETATM   17  C5  UNL     1      26.098   7.209  48.459  1.00  0.00     0.029 A 
HETATM   18  C4  UNL     1      27.155   7.664  47.713  1.00  0.00     0.005 A 
HETATM   19  C3  UNL     1      28.327   6.966  47.561  1.00  0.00     0.037 A 
HETATM   20  C2  UNL     1      28.491   5.741  48.171  1.00  0.00     0.070 A 
HETATM   21  C23 UNL     1      27.405   5.296  48.925  1.00  0.00     0.066 A 
BRANCH  20  22
HETATM   22  O1  UNL     1      29.629   4.946  48.092  1.00  0.00    -0.356 OA
HETATM   23  C1  UNL     1      30.931   5.518  48.148  1.00  0.00     0.210 C 
ENDBRANCH  20  22
ENDBRANCH  14  16
ENDBRANCH   1  14
BRANCH  10  24
HETATM   24  C14 UNL     1      25.890   2.266  51.111  1.00  0.00     0.150 C 
BRANCH  24  25
HETATM   25  C15 UNL     1      26.537   1.019  51.658  1.00  0.00     0.292 C 
BRANCH  25  26
HETATM   26  N5  UNL     1      26.621   1.188  53.119  1.00  0.00     0.098 N 
HETATM   27  C16 UNL     1      27.644   2.197  53.312  1.00  0.00     0.299 C 
HETATM   28  C17 UNL     1      28.954   1.468  53.406  1.00  0.00     0.198 C 
HETATM   29  O2  UNL     1      29.058   0.701  54.563  1.00  0.00    -0.387 OA
HETATM   30  C18 UNL     1      27.879   0.146  54.971  1.00  0.00     0.203 C 
HETATM   31  C19 UNL     1      26.871  -0.011  53.840  1.00  0.00     0.242 C 
HETATM   32  C20 UNL     1      25.580  -0.465  54.489  1.00  0.00     0.045 C 
ENDBRANCH  25  26
ENDBRANCH  24  25
ENDBRANCH  10  24
TORSDOF 6
ENDMDL
MODEL 9
REMARK VINA RESULT:      -7.9      2.839      4.217
REMARK  6 active torsions:
REMARK  status: ('A' for Active; 'I' for Inactive)
REMARK    1  A    between atoms: O1_2  and  C2_3 
REMARK    2  A    between atoms: C6_7  and  N1_8 
REMARK    3  A    between atoms: N1_8  and  C7_9 
REMARK    4  A    between atoms: N4_18  and  C14_19 
REMARK    5  A    between atoms: C14_19  and  C15_20 
REMARK    6  A    between atoms: C15_20  and  N5_21 
ROOT
HETATM    1  C7  UNL     1      25.059   2.697  52.501  1.00  0.00     0.120 C 
HETATM    2  N2  UNL     1      24.243   2.687  53.388  1.00  0.00    -0.219 NA
HETATM    3  C8  UNL     1      23.099   2.975  52.543  1.00  0.00     0.137 C 
HETATM    4  N3  UNL     1      21.694   2.852  52.397  1.00  0.00    -0.263 NA
HETATM    5  C9  UNL     1      21.215   3.049  50.901  1.00  0.00     0.175 C 
HETATM    6  C10 UNL     1      22.397   3.361  50.382  1.00  0.00     0.121 A 
HETATM    7  C11 UNL     1      23.480   2.225  50.218  1.00  0.00     0.067 A 
HETATM    8  C12 UNL     1      23.973   3.384  50.086  1.00  0.00     0.088 A 
HETATM    9  C13 UNL     1      24.211   3.544  51.660  1.00  0.00     0.158 C 
HETATM   10  N4  UNL     1      24.467   4.622  49.638  1.00  0.00    -0.372 N 
HETATM   11  C21 UNL     1      23.230   5.080  48.908  1.00  0.00     0.216 C 
HETATM   12  C22 UNL     1      22.817   4.157  47.862  1.00  0.00     0.063 C 
HETATM   13  O3  UNL     1      22.371   4.854  50.184  1.00  0.00    -0.351 OA
ENDROOT
BRANCH   1  14
HETATM   14  N1  UNL     1      26.313   2.629  51.659  1.00  0.00    -0.344 N 
HETATM   15  H7  UNL     1      26.933   2.748  50.865  1.00  0.00     0.167 HD
BRANCH  14  16
HETATM   16  C6  UNL     1      27.304   1.946  52.516  1.00  0.00     0.036 A 
HETATM   17  C5  UNL     1      28.274   2.521  53.305  1.00  0.00     0.029 A 
HETATM   18  C4  UNL     1      29.090   1.711  54.053  1.00  0.00     0.005 A 
HETATM   19  C3  UNL     1      28.992   0.342  54.060  1.00  0.00     0.037 A 
HETATM   20  C2  UNL     1      28.041  -0.291  53.289  1.00  0.00     0.070 A 
HETATM   21  C23 UNL     1      27.221   0.551  52.536  1.00  0.00     0.066 A 
BRANCH  20  22
HETATM   22  O1  UNL     1      27.846  -1.666  53.216  1.00  0.00    -0.356 OA
HETATM   23  C1  UNL     1      26.816  -2.220  52.406  1.00  0.00     0.210 C 
ENDBRANCH  20  22
ENDBRANCH  14  16
ENDBRANCH   1  14
BRANCH  10  24
HETATM   24  C14 UNL     1      25.674   5.345  49.807  1.00  0.00     0.150 C 
BRANCH  24  25
HETATM   25  C15 UNL     1      25.980   6.283  48.667  1.00  0.00     0.292 C 
BRANCH  25  26
HETATM   26  N5  UNL     1      27.307   6.862  48.936  1.00  0.00     0.098 N 
HETATM   27  C16 UNL     1      27.038   8.238  49.306  1.00  0.00     0.299 C 
HETATM   28  C17 UNL     1      27.042   9.034  48.032  1.00  0.00     0.198 C 
HETATM   29  O2  UNL     1      28.306   9.114  47.455  1.00  0.00    -0.387 OA
HETATM   30  C18 UNL     1      29.067   7.991  47.621  1.00  0.00     0.203 C 
HETATM   31  C19 UNL     1      28.235   6.740  47.866  1.00  0.00     0.242 C 
HETATM   32  C20 UNL     1      29.222   5.641  48.204  1.00  0.00     0.045 C 
ENDBRANCH  25  26
ENDBRANCH  24  25
ENDBRANCH  10  24
TORSDOF 6
ENDMDL
