MODEL 1
REMARK VINA RESULT:      -7.5      0.000      0.000
REMARK  4 active torsions:
REMARK  status: ('A' for Active; 'I' for Inactive)
REMARK    1  A    between atoms: O1_2  and  C2_3 
REMARK    2  A    between atoms: C5_6  and  O2_7 
REMARK    3  A    between atoms: C8_12  and  N3_13 
REMARK    4  A    between atoms: N5_16  and  C10_17 
ROOT
HETATM    1  C2  UNL     1      22.414  -0.714  53.817  1.00  0.00     0.046 C 
HETATM    2  C3  UNL     1      21.180  -0.349  53.414  1.00  0.00     0.036 C 
HETATM    3  C4  UNL     1      20.699   0.229  52.149  1.00  0.00     0.059 C 
HETATM    4  C5  UNL     1      21.377   1.027  51.286  1.00  0.00     0.149 C 
HETATM    5  N1  UNL     1      22.699   1.626  51.179  1.00  0.00    -0.288 N 
HETATM    6  C7  UNL     1      22.356   2.208  49.886  1.00  0.00     0.220 C 
HETATM    7  N2  UNL     1      21.680   3.272  50.106  1.00  0.00    -0.213 NA
HETATM    8  C8  UNL     1      21.345   3.767  51.386  1.00  0.00     0.197 C 
HETATM    9  N4  UNL     1      21.669   4.345  52.520  1.00  0.00    -0.239 NA
HETATM   10  C9  UNL     1      23.064   4.724  52.669  1.00  0.00     0.308 C 
HETATM   11  N5  UNL     1      23.767   4.680  51.421  1.00  0.00    -0.231 N 
HETATM   12  O3  UNL     1      24.784   3.747  51.307  1.00  0.00    -0.244 OA
HETATM   13  C16 UNL     1      24.737   2.570  52.070  1.00  0.00     0.193 C 
HETATM   14  C17 UNL     1      23.828   1.609  52.040  1.00  0.00     0.044 C 
HETATM   15  C18 UNL     1      24.349   0.691  53.068  1.00  0.00     0.066 C 
HETATM   16  C19 UNL     1      23.737  -0.661  53.115  1.00  0.00     0.070 C 
ENDROOT
BRANCH  11  17
HETATM   17  C10 UNL     1      23.476   5.514  50.310  1.00  0.00     0.098 A 
HETATM   18  C11 UNL     1      22.705   6.636  50.425  1.00  0.00     0.036 A 
HETATM   19  C12 UNL     1      22.396   7.484  49.362  1.00  0.00     0.026 A 
HETATM   20  C13 UNL     1      22.888   7.190  48.107  1.00  0.00     0.037 A 
HETATM   21 CL1  UNL     1      22.488   8.265  46.786  1.00  0.00    -0.084 Cl
HETATM   22  C14 UNL     1      23.663   6.067  47.972  1.00  0.00     0.068 A 
HETATM   23  C15 UNL     1      23.956   5.238  49.053  1.00  0.00     0.146 A 
HETATM   24  F1  UNL     1      24.730   4.154  48.816  1.00  0.00    -0.204 F 
ENDBRANCH  11  17
BRANCH   8  25
HETATM   25  N3  UNL     1      20.159   3.859  52.190  1.00  0.00    -0.271 NA
HETATM   26  H10 UNL     1      20.117   4.642  52.890  1.00  0.00     0.127 HD
HETATM   27  H11 UNL     1      19.970   4.592  52.936  1.00  0.00     0.127 HD
ENDBRANCH   8  25
BRANCH   4  28
HETATM   28  O2  UNL     1      20.751   1.473  50.134  1.00  0.00    -0.340 OA
HETATM   29  C6  UNL     1      19.435   1.056  49.867  1.00  0.00     0.211 C 
ENDBRANCH   4  28
BRANCH   1  30
HETATM   30  O1  UNL     1      22.290  -1.208  55.132  1.00  0.00    -0.360 OA
HETATM   31  C1  UNL     1      23.484  -1.529  55.819  1.00  0.00     0.209 C 
ENDBRANCH   1  30
TORSDOF 4
ENDMDL
MODEL 2
REMARK VINA RESULT:      -7.4      1.868      2.464
REMARK  4 active torsions:
REMARK  status: ('A' for Active; 'I' for Inactive)
REMARK    1  A    between atoms: O1_2  and  C2_3 
REMARK    2  A    between atoms: C5_6  and  O2_7 
REMARK    3  A    between atoms: C8_12  and  N3_13 
REMARK    4  A    between atoms: N5_16  and  C10_17 
ROOT
HETATM    1  C2  UNL     1      25.420   0.486  53.183  1.00  0.00     0.046 C 
HETATM    2  C3  UNL     1      24.076   0.460  53.297  1.00  0.00     0.036 C 
HETATM    3  C4  UNL     1      23.010   0.682  52.306  1.00  0.00     0.059 C 
HETATM    4  C5  UNL     1      23.048   1.468  51.202  1.00  0.00     0.149 C 
HETATM    5  N1  UNL     1      23.994   2.352  50.537  1.00  0.00    -0.288 N 
HETATM    6  C7  UNL     1      23.038   2.607  49.465  1.00  0.00     0.220 C 
HETATM    7  N2  UNL     1      22.212   3.490  49.884  1.00  0.00    -0.213 NA
HETATM    8  C8  UNL     1      22.250   4.092  51.162  1.00  0.00     0.197 C 
HETATM    9  N4  UNL     1      22.787   4.912  52.034  1.00  0.00    -0.239 NA
HETATM   10  C9  UNL     1      23.959   5.647  51.585  1.00  0.00     0.308 C 
HETATM   11  N5  UNL     1      24.123   5.572  50.163  1.00  0.00    -0.231 N 
HETATM   12  O3  UNL     1      25.250   4.917  49.696  1.00  0.00    -0.244 OA
HETATM   13  C16 UNL     1      25.841   3.909  50.474  1.00  0.00     0.193 C 
HETATM   14  C17 UNL     1      25.314   2.760  50.866  1.00  0.00     0.044 C 
HETATM   15  C18 UNL     1      26.427   2.185  51.641  1.00  0.00     0.066 C 
HETATM   16  C19 UNL     1      26.305   0.750  52.004  1.00  0.00     0.070 C 
ENDROOT
BRANCH  11  17
HETATM   17  C10 UNL     1      23.206   6.111  49.224  1.00  0.00     0.098 A 
HETATM   18  C11 UNL     1      23.103   5.631  47.949  1.00  0.00     0.036 A 
HETATM   19  C12 UNL     1      22.215   6.129  46.996  1.00  0.00     0.026 A 
HETATM   20  C13 UNL     1      21.381   7.172  47.339  1.00  0.00     0.037 A 
HETATM   21 CL1  UNL     1      20.276   7.784  46.129  1.00  0.00    -0.084 Cl
HETATM   22  C14 UNL     1      21.470   7.668  48.614  1.00  0.00     0.068 A 
HETATM   23  C15 UNL     1      22.368   7.150  49.547  1.00  0.00     0.146 A 
HETATM   24  F1  UNL     1      22.378   7.708  50.779  1.00  0.00    -0.204 F 
ENDBRANCH  11  17
BRANCH   8  25
HETATM   25  N3  UNL     1      21.480   4.016  52.371  1.00  0.00    -0.271 NA
HETATM   26  H10 UNL     1      20.578   4.557  52.396  1.00  0.00     0.127 HD
HETATM   27  H11 UNL     1      20.552   4.505  52.547  1.00  0.00     0.127 HD
ENDBRANCH   8  25
BRANCH   4  28
HETATM   28  O2  UNL     1      21.936   1.546  50.381  1.00  0.00    -0.340 OA
HETATM   29  C6  UNL     1      20.878   0.641  50.576  1.00  0.00     0.211 C 
ENDBRANCH   4  28
BRANCH   1  30
HETATM   30  O1  UNL     1      25.947   0.202  54.460  1.00  0.00    -0.360 OA
HETATM   31  C1  UNL     1      27.349   0.312  54.620  1.00  0.00     0.209 C 
ENDBRANCH   1  30
TORSDOF 4
ENDMDL
MODEL 3
REMARK VINA RESULT:      -7.3      1.882      2.299
REMARK  4 active torsions:
REMARK  status: ('A' for Active; 'I' for Inactive)
REMARK    1  A    between atoms: O1_2  and  C2_3 
REMARK    2  A    between atoms: C5_6  and  O2_7 
REMARK    3  A    between atoms: C8_12  and  N3_13 
REMARK    4  A    between atoms: N5_16  and  C10_17 
ROOT
HETATM    1  C2  UNL     1      20.169  -0.063  52.457  1.00  0.00     0.046 C 
HETATM    2  C3  UNL     1      19.460   0.750  51.647  1.00  0.00     0.036 C 
HETATM    3  C4  UNL     1      19.825   1.443  50.400  1.00  0.00     0.059 C 
HETATM    4  C5  UNL     1      21.049   1.890  50.023  1.00  0.00     0.149 C 
HETATM    5  N1  UNL     1      22.402   1.919  50.558  1.00  0.00    -0.288 N 
HETATM    6  C7  UNL     1      22.894   2.561  49.344  1.00  0.00     0.220 C 
HETATM    7  N2  UNL     1      22.627   3.809  49.430  1.00  0.00    -0.213 NA
HETATM    8  C8  UNL     1      21.974   4.424  50.521  1.00  0.00     0.197 C 
HETATM    9  N4  UNL     1      21.956   4.852  51.762  1.00  0.00    -0.239 NA
HETATM   10  C9  UNL     1      23.179   4.655  52.524  1.00  0.00     0.308 C 
HETATM   11  N5  UNL     1      24.285   4.311  51.680  1.00  0.00    -0.231 N 
HETATM   12  O3  UNL     1      24.834   3.050  51.850  1.00  0.00    -0.244 OA
HETATM   13  C16 UNL     1      24.035   2.004  52.337  1.00  0.00     0.193 C 
HETATM   14  C17 UNL     1      22.951   1.477  51.792  1.00  0.00     0.044 C 
HETATM   15  C18 UNL     1      22.599   0.451  52.788  1.00  0.00     0.066 C 
HETATM   16  C19 UNL     1      21.584  -0.550  52.373  1.00  0.00     0.070 C 
ENDROOT
BRANCH  11  17
HETATM   17  C10 UNL     1      24.831   5.168  50.690  1.00  0.00     0.098 A 
HETATM   18  C11 UNL     1      24.551   6.504  50.649  1.00  0.00     0.036 A 
HETATM   19  C12 UNL     1      25.067   7.382  49.696  1.00  0.00     0.026 A 
HETATM   20  C13 UNL     1      25.915   6.892  48.724  1.00  0.00     0.037 A 
HETATM   21 CL1  UNL     1      26.551   8.008  47.537  1.00  0.00    -0.084 Cl
HETATM   22  C14 UNL     1      26.208   5.553  48.749  1.00  0.00     0.068 A 
HETATM   23  C15 UNL     1      25.677   4.699  49.715  1.00  0.00     0.146 A 
HETATM   24  F1  UNL     1      26.028   3.393  49.654  1.00  0.00    -0.204 F 
ENDBRANCH  11  17
BRANCH   8  25
HETATM   25  N3  UNL     1      20.680   4.992  50.774  1.00  0.00    -0.271 NA
HETATM   26  H10 UNL     1      20.595   6.038  50.696  1.00  0.00     0.127 HD
HETATM   27  H11 UNL     1      20.438   6.027  50.734  1.00  0.00     0.127 HD
ENDBRANCH   8  25
BRANCH   4  28
HETATM   28  O2  UNL     1      21.196   2.522  48.800  1.00  0.00    -0.340 OA
HETATM   29  C6  UNL     1      20.090   2.608  47.937  1.00  0.00     0.211 C 
ENDBRANCH   4  28
BRANCH   1  30
HETATM   30  O1  UNL     1      19.315  -0.440  53.514  1.00  0.00    -0.360 OA
HETATM   31  C1  UNL     1      18.170  -1.202  53.180  1.00  0.00     0.209 C 
ENDBRANCH   1  30
TORSDOF 4
ENDMDL
MODEL 4
REMARK VINA RESULT:      -7.2      6.488     10.829
REMARK  4 active torsions:
REMARK  status: ('A' for Active; 'I' for Inactive)
REMARK    1  A    between atoms: O1_2  and  C2_3 
REMARK    2  A    between atoms: C5_6  and  O2_7 
REMARK    3  A    between atoms: C8_12  and  N3_13 
REMARK    4  A    between atoms: N5_16  and  C10_17 
ROOT
HETATM    1  C2  UNL     1      28.595  13.239  47.149  1.00  0.00     0.046 C 
HETATM    2  C3  UNL     1      29.161  12.930  48.334  1.00  0.00     0.036 C 
HETATM    3  C4  UNL     1      29.708  11.666  48.853  1.00  0.00     0.059 C 
HETATM    4  C5  UNL     1      29.329  10.402  48.537  1.00  0.00     0.149 C 
HETATM    5  N1  UNL     1      28.354   9.749  47.677  1.00  0.00    -0.288 N 
HETATM    6  C7  UNL     1      28.848   8.436  48.075  1.00  0.00     0.220 C 
HETATM    7  N2  UNL     1      28.325   8.151  49.208  1.00  0.00    -0.213 NA
HETATM    8  C8  UNL     1      27.431   8.982  49.917  1.00  0.00     0.197 C 
HETATM    9  N4  UNL     1      26.249   9.531  50.079  1.00  0.00    -0.239 NA
HETATM   10  C9  UNL     1      25.245   9.195  49.083  1.00  0.00     0.308 C 
HETATM   11  N5  UNL     1      25.641   8.075  48.281  1.00  0.00    -0.231 N 
HETATM   12  O3  UNL     1      25.854   8.314  46.934  1.00  0.00    -0.244 OA
HETATM   13  C16 UNL     1      26.246   9.592  46.507  1.00  0.00     0.193 C 
HETATM   14  C17 UNL     1      27.346  10.259  46.816  1.00  0.00     0.044 C 
HETATM   15  C18 UNL     1      27.144  11.509  46.063  1.00  0.00     0.066 C 
HETATM   16  C19 UNL     1      28.324  12.400  45.937  1.00  0.00     0.070 C 
ENDROOT
BRANCH  11  17
HETATM   17  C10 UNL     1      25.838   6.763  48.784  1.00  0.00     0.098 A 
HETATM   18  C11 UNL     1      26.867   5.968  48.363  1.00  0.00     0.036 A 
HETATM   19  C12 UNL     1      27.097   4.675  48.831  1.00  0.00     0.026 A 
HETATM   20  C13 UNL     1      26.245   4.145  49.778  1.00  0.00     0.037 A 
HETATM   21 CL1  UNL     1      26.550   2.520  50.352  1.00  0.00    -0.084 Cl
HETATM   22  C14 UNL     1      25.206   4.927  50.212  1.00  0.00     0.068 A 
HETATM   23  C15 UNL     1      25.001   6.217  49.726  1.00  0.00     0.146 A 
HETATM   24  F1  UNL     1      23.947   6.908  50.219  1.00  0.00    -0.204 F 
ENDBRANCH  11  17
BRANCH   8  25
HETATM   25  N3  UNL     1      27.482   9.800  51.096  1.00  0.00    -0.271 NA
HETATM   26  H10 UNL     1      27.067  10.764  51.026  1.00  0.00     0.127 HD
HETATM   27  H11 UNL     1      27.106  10.791  51.181  1.00  0.00     0.127 HD
ENDBRANCH   8  25
BRANCH   4  28
HETATM   28  O2  UNL     1      29.971   9.330  49.133  1.00  0.00    -0.340 OA
HETATM   29  C6  UNL     1      31.237   9.526  49.710  1.00  0.00     0.211 C 
ENDBRANCH   4  28
BRANCH   1  30
HETATM   30  O1  UNL     1      28.252  14.606  47.199  1.00  0.00    -0.360 OA
HETATM   31  C1  UNL     1      29.020  15.495  46.411  1.00  0.00     0.209 C 
ENDBRANCH   1  30
TORSDOF 4
ENDMDL
MODEL 5
REMARK VINA RESULT:      -7.2      7.836     10.445
REMARK  4 active torsions:
REMARK  status: ('A' for Active; 'I' for Inactive)
REMARK    1  A    between atoms: O1_2  and  C2_3 
REMARK    2  A    between atoms: C5_6  and  O2_7 
REMARK    3  A    between atoms: C8_12  and  N3_13 
REMARK    4  A    between atoms: N5_16  and  C10_17 
ROOT
HETATM    1  C2  UNL     1      25.971   7.216  49.720  1.00  0.00     0.046 C 
HETATM    2  C3  UNL     1      26.308   8.517  49.841  1.00  0.00     0.036 C 
HETATM    3  C4  UNL     1      27.047   9.420  48.943  1.00  0.00     0.059 C 
HETATM    4  C5  UNL     1      28.018   9.099  48.052  1.00  0.00     0.149 C 
HETATM    5  N1  UNL     1      28.718   7.905  47.600  1.00  0.00    -0.288 N 
HETATM    6  C7  UNL     1      29.475   8.689  46.630  1.00  0.00     0.220 C 
HETATM    7  N2  UNL     1      30.439   9.253  47.254  1.00  0.00    -0.213 NA
HETATM    8  C8  UNL     1      30.698   9.117  48.636  1.00  0.00     0.197 C 
HETATM    9  N4  UNL     1      31.107   8.418  49.669  1.00  0.00    -0.239 NA
HETATM   10  C9  UNL     1      31.555   7.064  49.389  1.00  0.00     0.308 C 
HETATM   11  N5  UNL     1      31.761   6.848  47.986  1.00  0.00    -0.231 N 
HETATM   12  O3  UNL     1      30.932   5.929  47.365  1.00  0.00    -0.244 OA
HETATM   13  C16 UNL     1      29.648   5.693  47.879  1.00  0.00     0.193 C 
HETATM   14  C17 UNL     1      28.642   6.544  47.998  1.00  0.00     0.044 C 
HETATM   15  C18 UNL     1      27.610   5.685  48.604  1.00  0.00     0.066 C 
HETATM   16  C19 UNL     1      26.228   6.229  48.623  1.00  0.00     0.070 C 
ENDROOT
BRANCH  11  17
HETATM   17  C10 UNL     1      32.740   7.521  47.211  1.00  0.00     0.098 A 
HETATM   18  C11 UNL     1      33.769   8.217  47.780  1.00  0.00     0.036 A 
HETATM   19  C12 UNL     1      34.752   8.890  47.057  1.00  0.00     0.026 A 
HETATM   20  C13 UNL     1      34.702   8.866  45.678  1.00  0.00     0.037 A 
HETATM   21 CL1  UNL     1      35.945   9.718  44.788  1.00  0.00    -0.084 Cl
HETATM   22  C14 UNL     1      33.677   8.174  45.088  1.00  0.00     0.068 A 
HETATM   23  C15 UNL     1      32.708   7.509  45.837  1.00  0.00     0.146 A 
HETATM   24  F1  UNL     1      31.737   6.853  45.160  1.00  0.00    -0.204 F 
ENDBRANCH  11  17
BRANCH   8  25
HETATM   25  N3  UNL     1      30.575   9.943  49.804  1.00  0.00    -0.271 NA
HETATM   26  H10 UNL     1      31.169   9.687  50.633  1.00  0.00     0.127 HD
HETATM   27  H11 UNL     1      31.107   9.812  50.715  1.00  0.00     0.127 HD
ENDBRANCH   8  25
BRANCH   4  28
HETATM   28  O2  UNL     1      28.598  10.096  47.287  1.00  0.00    -0.340 OA
HETATM   29  C6  UNL     1      27.989  11.362  47.240  1.00  0.00     0.211 C 
ENDBRANCH   4  28
BRANCH   1  30
HETATM   30  O1  UNL     1      25.264   6.863  50.888  1.00  0.00    -0.360 OA
HETATM   31  C1  UNL     1      23.949   7.368  51.026  1.00  0.00     0.209 C 
ENDBRANCH   1  30
TORSDOF 4
ENDMDL
MODEL 6
REMARK VINA RESULT:      -7.2      2.602      3.524
REMARK  4 active torsions:
REMARK  status: ('A' for Active; 'I' for Inactive)
REMARK    1  A    between atoms: O1_2  and  C2_3 
REMARK    2  A    between atoms: C5_6  and  O2_7 
REMARK    3  A    between atoms: C8_12  and  N3_13 
REMARK    4  A    between atoms: N5_16  and  C10_17 
ROOT
HETATM    1  C2  UNL     1      26.340   2.019  52.827  1.00  0.00     0.046 C 
HETATM    2  C3  UNL     1      25.152   1.687  53.372  1.00  0.00     0.036 C 
HETATM    3  C4  UNL     1      23.878   1.280  52.758  1.00  0.00     0.059 C 
HETATM    4  C5  UNL     1      23.388   1.632  51.543  1.00  0.00     0.149 C 
HETATM    5  N1  UNL     1      23.792   2.454  50.412  1.00  0.00    -0.288 N 
HETATM    6  C7  UNL     1      22.587   2.079  49.680  1.00  0.00     0.220 C 
HETATM    7  N2  UNL     1      21.627   2.806  50.112  1.00  0.00    -0.213 NA
HETATM    8  C8  UNL     1      21.749   3.790  51.119  1.00  0.00     0.197 C 
HETATM    9  N4  UNL     1      22.157   4.964  51.540  1.00  0.00    -0.239 NA
HETATM   10  C9  UNL     1      22.867   5.782  50.570  1.00  0.00     0.308 C 
HETATM   11  N5  UNL     1      22.715   5.279  49.235  1.00  0.00    -0.231 N 
HETATM   12  O3  UNL     1      23.859   4.819  48.605  1.00  0.00    -0.244 OA
HETATM   13  C16 UNL     1      24.922   4.319  49.373  1.00  0.00     0.193 C 
HETATM   14  C17 UNL     1      24.929   3.274  50.184  1.00  0.00     0.044 C 
HETATM   15  C18 UNL     1      26.318   3.300  50.674  1.00  0.00     0.066 C 
HETATM   16  C19 UNL     1      26.784   2.090  51.397  1.00  0.00     0.070 C 
ENDROOT
BRANCH  11  17
HETATM   17  C10 UNL     1      21.479   5.216  48.542  1.00  0.00     0.098 A 
HETATM   18  C11 UNL     1      20.371   5.894  48.965  1.00  0.00     0.036 A 
HETATM   19  C12 UNL     1      19.139   5.862  48.313  1.00  0.00     0.026 A 
HETATM   20  C13 UNL     1      19.007   5.102  47.169  1.00  0.00     0.037 A 
HETATM   21 CL1  UNL     1      17.452   5.073  46.367  1.00  0.00    -0.084 Cl
HETATM   22  C14 UNL     1      20.107   4.414  46.729  1.00  0.00     0.068 A 
HETATM   23  C15 UNL     1      21.328   4.466  47.401  1.00  0.00     0.146 A 
HETATM   24  F1  UNL     1      22.354   3.751  46.886  1.00  0.00    -0.204 F 
ENDBRANCH  11  17
BRANCH   8  25
HETATM   25  N3  UNL     1      21.352   3.929  52.492  1.00  0.00    -0.271 NA
HETATM   26  H10 UNL     1      20.346   3.724  52.720  1.00  0.00     0.127 HD
HETATM   27  H11 UNL     1      20.375   3.757  52.876  1.00  0.00     0.127 HD
ENDBRANCH   8  25
BRANCH   4  28
HETATM   28  O2  UNL     1      22.160   1.141  51.135  1.00  0.00    -0.340 OA
HETATM   29  C6  UNL     1      21.570   0.090  51.857  1.00  0.00     0.211 C 
ENDBRANCH   4  28
BRANCH   1  30
HETATM   30  O1  UNL     1      27.212   2.326  53.892  1.00  0.00    -0.360 OA
HETATM   31  C1  UNL     1      28.599   2.327  53.613  1.00  0.00     0.209 C 
ENDBRANCH   1  30
TORSDOF 4
ENDMDL
MODEL 7
REMARK VINA RESULT:      -7.1      2.758      4.572
REMARK  4 active torsions:
REMARK  status: ('A' for Active; 'I' for Inactive)
REMARK    1  A    between atoms: O1_2  and  C2_3 
REMARK    2  A    between atoms: C5_6  and  O2_7 
REMARK    3  A    between atoms: C8_12  and  N3_13 
REMARK    4  A    between atoms: N5_16  and  C10_17 
ROOT
HETATM    1  C2  UNL     1      24.608   0.010  53.415  1.00  0.00     0.046 C 
HETATM    2  C3  UNL     1      25.093   1.182  52.956  1.00  0.00     0.036 C 
HETATM    3  C4  UNL     1      24.449   2.489  52.747  1.00  0.00     0.059 C 
HETATM    4  C5  UNL     1      23.150   2.739  52.444  1.00  0.00     0.149 C 
HETATM    5  N1  UNL     1      21.931   1.981  52.206  1.00  0.00    -0.288 N 
HETATM    6  C7  UNL     1      21.171   3.214  52.031  1.00  0.00     0.220 C 
HETATM    7  N2  UNL     1      21.375   3.631  50.839  1.00  0.00    -0.213 NA
HETATM    8  C8  UNL     1      22.194   2.985  49.886  1.00  0.00     0.197 C 
HETATM    9  N4  UNL     1      22.431   2.007  49.043  1.00  0.00    -0.239 NA
HETATM   10  C9  UNL     1      21.398   0.989  48.937  1.00  0.00     0.308 C 
HETATM   11  N5  UNL     1      20.169   1.411  49.542  1.00  0.00    -0.231 N 
HETATM   12  O3  UNL     1      19.740   0.699  50.650  1.00  0.00    -0.244 OA
HETATM   13  C16 UNL     1      20.679   0.051  51.466  1.00  0.00     0.193 C 
HETATM   14  C17 UNL     1      21.664   0.587  52.170  1.00  0.00     0.044 C 
HETATM   15  C18 UNL     1      22.266  -0.612  52.779  1.00  0.00     0.066 C 
HETATM   16  C19 UNL     1      23.236  -0.376  53.877  1.00  0.00     0.070 C 
ENDROOT
BRANCH  11  17
HETATM   17  C10 UNL     1      19.387   2.504  49.086  1.00  0.00     0.098 A 
HETATM   18  C11 UNL     1      19.568   3.063  47.852  1.00  0.00     0.036 A 
HETATM   19  C12 UNL     1      18.822   4.135  47.364  1.00  0.00     0.026 A 
HETATM   20  C13 UNL     1      17.836   4.682  48.159  1.00  0.00     0.037 A 
HETATM   21 CL1  UNL     1      16.913   6.027  47.529  1.00  0.00    -0.084 Cl
HETATM   22  C14 UNL     1      17.641   4.134  49.401  1.00  0.00     0.068 A 
HETATM   23  C15 UNL     1      18.402   3.061  49.863  1.00  0.00     0.146 A 
HETATM   24  F1  UNL     1      18.130   2.592  51.102  1.00  0.00    -0.204 F 
ENDBRANCH  11  17
BRANCH   8  25
HETATM   25  N3  UNL     1      23.477   3.221  49.285  1.00  0.00    -0.271 NA
HETATM   26  H10 UNL     1      24.307   2.761  49.739  1.00  0.00     0.127 HD
HETATM   27  H11 UNL     1      24.403   2.827  49.627  1.00  0.00     0.127 HD
ENDBRANCH   8  25
BRANCH   4  28
HETATM   28  O2  UNL     1      22.726   4.048  52.289  1.00  0.00    -0.340 OA
HETATM   29  C6  UNL     1      23.585   5.094  52.667  1.00  0.00     0.211 C 
ENDBRANCH   4  28
BRANCH   1  30
HETATM   30  O1  UNL     1      25.676  -0.911  53.404  1.00  0.00    -0.360 OA
HETATM   31  C1  UNL     1      26.726  -0.673  52.486  1.00  0.00     0.209 C 
ENDBRANCH   1  30
TORSDOF 4
ENDMDL
MODEL 8
REMARK VINA RESULT:      -7.0      8.791     11.262
REMARK  4 active torsions:
REMARK  status: ('A' for Active; 'I' for Inactive)
REMARK    1  A    between atoms: O1_2  and  C2_3 
REMARK    2  A    between atoms: C5_6  and  O2_7 
REMARK    3  A    between atoms: C8_12  and  N3_13 
REMARK    4  A    between atoms: N5_16  and  C10_17 
ROOT
HETATM    1  C2  UNL     1      33.116   4.212  46.193  1.00  0.00     0.046 C 
HETATM    2  C3  UNL     1      32.396   4.133  47.331  1.00  0.00     0.036 C 
HETATM    3  C4  UNL     1      31.118   4.752  47.721  1.00  0.00     0.059 C 
HETATM    4  C5  UNL     1      30.603   5.935  47.302  1.00  0.00     0.149 C 
HETATM    5  N1  UNL     1      30.979   7.023  46.411  1.00  0.00    -0.288 N 
HETATM    6  C7  UNL     1      29.718   7.707  46.677  1.00  0.00     0.220 C 
HETATM    7  N2  UNL     1      29.838   8.323  47.792  1.00  0.00    -0.213 NA
HETATM    8  C8  UNL     1      31.000   8.321  48.595  1.00  0.00     0.197 C 
HETATM    9  N4  UNL     1      32.236   8.692  48.836  1.00  0.00    -0.239 NA
HETATM   10  C9  UNL     1      32.852   9.554  47.839  1.00  0.00     0.308 C 
HETATM   11  N5  UNL     1      31.884  10.095  46.930  1.00  0.00    -0.231 N 
HETATM   12  O3  UNL     1      31.984   9.706  45.604  1.00  0.00    -0.244 OA
HETATM   13  C16 UNL     1      32.557   8.465  45.285  1.00  0.00     0.193 C 
HETATM   14  C17 UNL     1      32.139   7.257  45.625  1.00  0.00     0.044 C 
HETATM   15  C18 UNL     1      33.165   6.410  44.993  1.00  0.00     0.066 C 
HETATM   16  C19 UNL     1      32.867   4.958  44.918  1.00  0.00     0.070 C 
ENDROOT
BRANCH  11  17
HETATM   17  C10 UNL     1      30.841  10.979  47.307  1.00  0.00     0.098 A 
HETATM   18  C11 UNL     1      30.845  11.644  48.501  1.00  0.00     0.036 A 
HETATM   19  C12 UNL     1      29.843  12.522  48.910  1.00  0.00     0.026 A 
HETATM   20  C13 UNL     1      28.769  12.748  48.073  1.00  0.00     0.037 A 
HETATM   21 CL1  UNL     1      27.521  13.853  48.605  1.00  0.00    -0.084 Cl
HETATM   22  C14 UNL     1      28.746  12.090  46.871  1.00  0.00     0.068 A 
HETATM   23  C15 UNL     1      29.764  11.217  46.488  1.00  0.00     0.146 A 
HETATM   24  F1  UNL     1      29.649  10.617  45.282  1.00  0.00    -0.204 F 
ENDBRANCH  11  17
BRANCH   8  25
HETATM   25  N3  UNL     1      31.403   7.733  49.842  1.00  0.00    -0.271 NA
HETATM   26  H10 UNL     1      30.642   7.516  50.534  1.00  0.00     0.127 HD
HETATM   27  H11 UNL     1      30.753   7.459  50.637  1.00  0.00     0.127 HD
ENDBRANCH   8  25
BRANCH   4  28
HETATM   28  O2  UNL     1      29.373   6.352  47.783  1.00  0.00    -0.340 OA
HETATM   29  C6  UNL     1      28.517   5.408  48.376  1.00  0.00     0.211 C 
ENDBRANCH   4  28
BRANCH   1  30
HETATM   30  O1  UNL     1      34.263   3.411  46.375  1.00  0.00    -0.360 OA
HETATM   31  C1  UNL     1      34.817   3.361  47.676  1.00  0.00     0.209 C 
ENDBRANCH   1  30
TORSDOF 4
ENDMDL
MODEL 9
REMARK VINA RESULT:      -7.0      3.806      7.627
REMARK  4 active torsions:
REMARK  status: ('A' for Active; 'I' for Inactive)
REMARK    1  A    between atoms: O1_2  and  C2_3 
REMARK    2  A    between atoms: C5_6  and  O2_7 
REMARK    3  A    between atoms: C8_12  and  N3_13 
REMARK    4  A    between atoms: N5_16  and  C10_17 
ROOT
HETATM    1  C2  UNL     1      22.149   8.219  47.051  1.00  0.00     0.046 C 
HETATM    2  C3  UNL     1      22.955   8.850  47.930  1.00  0.00     0.036 C 
HETATM    3  C4  UNL     1      24.267   8.482  48.487  1.00  0.00     0.059 C 
HETATM    4  C5  UNL     1      24.764   7.237  48.699  1.00  0.00     0.149 C 
HETATM    5  N1  UNL     1      24.334   5.858  48.524  1.00  0.00    -0.288 N 
HETATM    6  C7  UNL     1      25.620   5.371  49.010  1.00  0.00     0.220 C 
HETATM    7  N2  UNL     1      25.596   5.419  50.288  1.00  0.00    -0.213 NA
HETATM    8  C8  UNL     1      24.501   5.866  51.060  1.00  0.00     0.197 C 
HETATM    9  N4  UNL     1      23.292   5.707  51.548  1.00  0.00    -0.239 NA
HETATM   10  C9  UNL     1      22.612   4.475  51.184  1.00  0.00     0.308 C 
HETATM   11  N5  UNL     1      23.513   3.516  50.614  1.00  0.00    -0.231 N 
HETATM   12  O3  UNL     1      23.304   3.172  49.288  1.00  0.00    -0.244 OA
HETATM   13  C16 UNL     1      22.692   4.088  48.420  1.00  0.00     0.193 C 
HETATM   14  C17 UNL     1      23.119   5.287  48.059  1.00  0.00     0.044 C 
HETATM   15  C18 UNL     1      22.035   5.719  47.159  1.00  0.00     0.066 C 
HETATM   16  C19 UNL     1      22.307   6.917  46.327  1.00  0.00     0.070 C 
ENDROOT
BRANCH  11  17
HETATM   17  C10 UNL     1      24.594   2.921  51.313  1.00  0.00     0.098 A 
HETATM   18  C11 UNL     1      25.702   2.443  50.672  1.00  0.00     0.036 A 
HETATM   19  C12 UNL     1      26.786   1.854  51.320  1.00  0.00     0.026 A 
HETATM   20  C13 UNL     1      26.761   1.734  52.694  1.00  0.00     0.037 A 
HETATM   21 CL1  UNL     1      28.131   0.991  53.489  1.00  0.00    -0.084 Cl
HETATM   22  C14 UNL     1      25.657   2.208  53.356  1.00  0.00     0.068 A 
HETATM   23  C15 UNL     1      24.587   2.793  52.681  1.00  0.00     0.146 A 
HETATM   24  F1  UNL     1      23.545   3.230  53.425  1.00  0.00    -0.204 F 
ENDBRANCH  11  17
BRANCH   8  25
HETATM   25  N3  UNL     1      24.189   7.022  51.852  1.00  0.00    -0.271 NA
HETATM   26  H10 UNL     1      23.564   6.874  52.686  1.00  0.00     0.127 HD
HETATM   27  H11 UNL     1      23.574   7.032  52.720  1.00  0.00     0.127 HD
ENDBRANCH   8  25
BRANCH   4  28
HETATM   28  O2  UNL     1      26.033   7.091  49.233  1.00  0.00    -0.340 OA
HETATM   29  C6  UNL     1      26.856   8.224  49.358  1.00  0.00     0.211 C 
ENDBRANCH   4  28
BRANCH   1  30
HETATM   30  O1  UNL     1      21.010   9.032  46.880  1.00  0.00    -0.360 OA
HETATM   31  C1  UNL     1      21.198  10.433  46.945  1.00  0.00     0.209 C 
ENDBRANCH   1  30
TORSDOF 4
ENDMDL
