MODEL 1
REMARK VINA RESULT:      -7.1      0.000      0.000
REMARK  5 active torsions:
REMARK  status: ('A' for Active; 'I' for Inactive)
REMARK    1  A    between atoms: C2_2  and  C3_3 
REMARK    2  A    between atoms: C3_3  and  C4_4 
REMARK       I    between atoms: C4_4  and  N1_6 
REMARK    3  A    between atoms: N1_6  and  C5_7 
REMARK    4  A    between atoms: C7_9  and  C8_10 
REMARK    5  A    between atoms: N2_13  and  C11_14 
ROOT
HETATM    1  C8  UNL     1      23.666   3.977  50.996  1.00  0.00     0.026 C 
HETATM    2  C9  UNL     1      23.297   2.988  49.948  1.00  0.00     0.031 C 
HETATM    3  C10 UNL     1      22.734   1.692  50.442  1.00  0.00     0.144 C 
HETATM    4  N2  UNL     1      23.162   1.360  51.778  1.00  0.00    -0.313 N 
HETATM    5  N3  UNL     1      24.349   1.957  52.213  1.00  0.00    -0.237 NA
HETATM    6  C17 UNL     1      24.116   3.366  52.296  1.00  0.00     0.119 C 
HETATM    7  H18 UNL     1      25.083   1.724  51.522  1.00  0.00     0.146 HD
ENDROOT
BRANCH   1   8
HETATM    8  C7  UNL     1      24.825   4.767  50.447  1.00  0.00     0.004 C 
HETATM    9  C5  UNL     1      25.239   6.042  50.365  1.00  0.00     0.005 C 
HETATM   10  C6  UNL     1      24.393   7.096  50.953  1.00  0.00     0.068 C 
BRANCH   9  11
HETATM   11  N1  UNL     1      26.477   6.407  49.722  1.00  0.00    -0.328 N 
HETATM   12  C4  UNL     1      26.397   6.879  48.383  1.00  0.00     0.252 C 
HETATM   13  O1  UNL     1      25.278   6.960  47.813  1.00  0.00    -0.268 OA
HETATM   14  H4  UNL     1      27.386   6.323  50.235  1.00  0.00     0.169 HD
BRANCH  12  15
HETATM   15  C3  UNL     1      27.657   7.238  47.764  1.00  0.00     0.125 C 
BRANCH  15  16
HETATM   16  C2  UNL     1      28.676   6.428  47.856  1.00  0.00    -0.149 C 
HETATM   17  C1  UNL     1      29.686   5.651  48.187  1.00  0.00     0.096 C 
ENDBRANCH  15  16
ENDBRANCH  12  15
ENDBRANCH   9  11
ENDBRANCH   1   8
BRANCH   4  18
HETATM   18  C11 UNL     1      22.462   0.490  52.641  1.00  0.00     0.046 A 
HETATM   19  C12 UNL     1      23.112  -0.154  53.678  1.00  0.00     0.031 A 
HETATM   20  C13 UNL     1      22.409  -1.002  54.511  1.00  0.00     0.004 A 
HETATM   21  C14 UNL     1      21.070  -1.252  54.368  1.00  0.00     0.019 A 
HETATM   22  C15 UNL     1      20.395  -0.613  53.327  1.00  0.00     0.013 A 
HETATM   23 BR1  UNL     1      18.533  -0.915  53.072  1.00  0.00    -0.051 Br
HETATM   24  C16 UNL     1      21.122   0.233  52.506  1.00  0.00     0.049 A 
ENDBRANCH   4  18
TORSDOF 5
ENDMDL
MODEL 2
REMARK VINA RESULT:      -7.0      3.922      5.346
REMARK  5 active torsions:
REMARK  status: ('A' for Active; 'I' for Inactive)
REMARK    1  A    between atoms: C2_2  and  C3_3 
REMARK    2  A    between atoms: C3_3  and  C4_4 
REMARK       I    between atoms: C4_4  and  N1_6 
REMARK    3  A    between atoms: N1_6  and  C5_7 
REMARK    4  A    between atoms: C7_9  and  C8_10 
REMARK    5  A    between atoms: N2_13  and  C11_14 
ROOT
HETATM    1  C8  UNL     1      23.382   1.345  52.645  1.00  0.00     0.026 C 
HETATM    2  C9  UNL     1      23.012   1.384  51.205  1.00  0.00     0.031 C 
HETATM    3  C10 UNL     1      21.616   0.955  50.877  1.00  0.00     0.144 C 
HETATM    4  N2  UNL     1      21.057   0.050  51.850  1.00  0.00    -0.313 N 
HETATM    5  N3  UNL     1      21.973  -0.666  52.626  1.00  0.00    -0.237 NA
HETATM    6  C17 UNL     1      22.678   0.277  53.439  1.00  0.00     0.119 C 
HETATM    7  H18 UNL     1      22.603  -1.167  51.975  1.00  0.00     0.146 HD
ENDROOT
BRANCH   1   8
HETATM    8  C7  UNL     1      24.858   1.043  52.697  1.00  0.00     0.004 C 
HETATM    9  C5  UNL     1      26.013   1.528  52.214  1.00  0.00     0.005 C 
HETATM   10  C6  UNL     1      25.968   2.721  51.351  1.00  0.00     0.068 C 
BRANCH   9  11
HETATM   11  N1  UNL     1      27.285   0.919  52.512  1.00  0.00    -0.328 N 
HETATM   12  C4  UNL     1      28.022   1.458  53.602  1.00  0.00     0.252 C 
HETATM   13  O1  UNL     1      27.556   2.427  54.255  1.00  0.00    -0.268 OA
HETATM   14  H4  UNL     1      27.635   0.114  51.941  1.00  0.00     0.169 HD
BRANCH  12  15
HETATM   15  C3  UNL     1      29.296   0.825  53.877  1.00  0.00     0.125 C 
BRANCH  15  16
HETATM   16  C2  UNL     1      29.482  -0.424  53.548  1.00  0.00    -0.149 C 
HETATM   17  C1  UNL     1      29.583  -1.732  53.438  1.00  0.00     0.096 C 
ENDBRANCH  15  16
ENDBRANCH  12  15
ENDBRANCH   9  11
ENDBRANCH   1   8
BRANCH   4  18
HETATM   18  C11 UNL     1      19.674  -0.141  52.052  1.00  0.00     0.046 A 
HETATM   19  C12 UNL     1      19.209  -0.897  53.113  1.00  0.00     0.031 A 
HETATM   20  C13 UNL     1      17.851  -1.072  53.292  1.00  0.00     0.004 A 
HETATM   21  C14 UNL     1      16.910  -0.529  52.460  1.00  0.00     0.019 A 
HETATM   22  C15 UNL     1      17.356   0.237  51.382  1.00  0.00     0.013 A 
HETATM   23 BR1  UNL     1      16.101   1.023  50.186  1.00  0.00    -0.051 Br
HETATM   24  C16 UNL     1      18.724   0.399  51.224  1.00  0.00     0.049 A 
ENDBRANCH   4  18
TORSDOF 5
ENDMDL
MODEL 3
REMARK VINA RESULT:      -7.0      4.868      8.722
REMARK  5 active torsions:
REMARK  status: ('A' for Active; 'I' for Inactive)
REMARK    1  A    between atoms: C2_2  and  C3_3 
REMARK    2  A    between atoms: C3_3  and  C4_4 
REMARK       I    between atoms: C4_4  and  N1_6 
REMARK    3  A    between atoms: N1_6  and  C5_7 
REMARK    4  A    between atoms: C7_9  and  C8_10 
REMARK    5  A    between atoms: N2_13  and  C11_14 
ROOT
HETATM    1  C8  UNL     1      25.856   3.254  49.989  1.00  0.00     0.026 C 
HETATM    2  C9  UNL     1      25.152   4.290  50.790  1.00  0.00     0.031 C 
HETATM    3  C10 UNL     1      25.089   5.656  50.181  1.00  0.00     0.144 C 
HETATM    4  N2  UNL     1      26.164   5.915  49.256  1.00  0.00    -0.313 N 
HETATM    5  N3  UNL     1      27.318   5.141  49.417  1.00  0.00    -0.237 NA
HETATM    6  C17 UNL     1      26.969   3.785  49.126  1.00  0.00     0.119 C 
HETATM    7  H18 UNL     1      27.635   5.261  50.394  1.00  0.00     0.146 HD
ENDROOT
BRANCH   1   8
HETATM    8  C7  UNL     1      26.471   2.296  50.976  1.00  0.00     0.004 C 
HETATM    9  C5  UNL     1      26.088   1.350  51.850  1.00  0.00     0.005 C 
HETATM   10  C6  UNL     1      24.651   1.058  51.984  1.00  0.00     0.068 C 
BRANCH   9  11
HETATM   11  N1  UNL     1      27.036   0.620  52.653  1.00  0.00    -0.328 N 
HETATM   12  C4  UNL     1      27.359   1.163  53.927  1.00  0.00     0.252 C 
HETATM   13  O1  UNL     1      26.823   2.237  54.305  1.00  0.00    -0.268 OA
HETATM   14  H4  UNL     1      27.458  -0.270  52.299  1.00  0.00     0.169 HD
BRANCH  12  15
HETATM   15  C3  UNL     1      28.315   0.407  54.712  1.00  0.00     0.125 C 
BRANCH  15  16
HETATM   16  C2  UNL     1      29.172  -0.372  54.112  1.00  0.00    -0.149 C 
HETATM   17  C1  UNL     1      29.939  -1.333  53.641  1.00  0.00     0.096 C 
ENDBRANCH  15  16
ENDBRANCH  12  15
ENDBRANCH   9  11
ENDBRANCH   1   8
BRANCH   4  18
HETATM   18  C11 UNL     1      26.110   6.880  48.228  1.00  0.00     0.046 A 
HETATM   19  C12 UNL     1      24.898   7.364  47.772  1.00  0.00     0.031 A 
HETATM   20  C13 UNL     1      24.867   8.308  46.765  1.00  0.00     0.004 A 
HETATM   21  C14 UNL     1      25.995   8.807  46.172  1.00  0.00     0.019 A 
HETATM   22  C15 UNL     1      27.230   8.332  46.616  1.00  0.00     0.013 A 
HETATM   23 BR1  UNL     1      28.840   8.984  45.836  1.00  0.00    -0.051 Br
HETATM   24  C16 UNL     1      27.234   7.386  47.628  1.00  0.00     0.049 A 
ENDBRANCH   4  18
TORSDOF 5
ENDMDL
MODEL 4
REMARK VINA RESULT:      -7.0      3.830      8.868
REMARK  5 active torsions:
REMARK  status: ('A' for Active; 'I' for Inactive)
REMARK    1  A    between atoms: C2_2  and  C3_3 
REMARK    2  A    between atoms: C3_3  and  C4_4 
REMARK       I    between atoms: C4_4  and  N1_6 
REMARK    3  A    between atoms: N1_6  and  C5_7 
REMARK    4  A    between atoms: C7_9  and  C8_10 
REMARK    5  A    between atoms: N2_13  and  C11_14 
ROOT
HETATM    1  C8  UNL     1      24.050   3.113  49.435  1.00  0.00     0.026 C 
HETATM    2  C9  UNL     1      23.417   4.453  49.552  1.00  0.00     0.031 C 
HETATM    3  C10 UNL     1      24.284   5.619  49.193  1.00  0.00     0.144 C 
HETATM    4  N2  UNL     1      25.691   5.353  49.360  1.00  0.00    -0.313 N 
HETATM    5  N3  UNL     1      26.025   4.325  50.248  1.00  0.00    -0.237 NA
HETATM    6  C17 UNL     1      25.533   3.101  49.694  1.00  0.00     0.119 C 
HETATM    7  H18 UNL     1      25.581   4.547  51.156  1.00  0.00     0.146 HD
ENDROOT
BRANCH   1   8
HETATM    8  C7  UNL     1      23.406   2.244  50.484  1.00  0.00     0.004 C 
HETATM    9  C5  UNL     1      22.381   1.384  50.603  1.00  0.00     0.005 C 
HETATM   10  C6  UNL     1      21.546   1.116  49.419  1.00  0.00     0.068 C 
BRANCH   9  11
HETATM   11  N1  UNL     1      22.075   0.723  51.847  1.00  0.00    -0.328 N 
HETATM   12  C4  UNL     1      21.124   1.350  52.698  1.00  0.00     0.252 C 
HETATM   13  O1  UNL     1      20.593   2.437  52.350  1.00  0.00    -0.268 OA
HETATM   14  H4  UNL     1      22.542  -0.181  52.096  1.00  0.00     0.169 HD
BRANCH  12  15
HETATM   15  C3  UNL     1      20.838   0.662  53.941  1.00  0.00     0.125 C 
BRANCH  15  16
HETATM   16  C2  UNL     1      21.646  -0.272  54.363  1.00  0.00    -0.149 C 
HETATM   17  C1  UNL     1      22.290  -1.254  54.958  1.00  0.00     0.096 C 
ENDBRANCH  15  16
ENDBRANCH  12  15
ENDBRANCH   9  11
ENDBRANCH   1   8
BRANCH   4  18
HETATM   18  C11 UNL     1      26.716   6.055  48.691  1.00  0.00     0.046 A 
HETATM   19  C12 UNL     1      26.469   7.282  48.103  1.00  0.00     0.031 A 
HETATM   20  C13 UNL     1      27.486   7.952  47.454  1.00  0.00     0.004 A 
HETATM   21  C14 UNL     1      28.760   7.462  47.351  1.00  0.00     0.019 A 
HETATM   22  C15 UNL     1      29.032   6.225  47.936  1.00  0.00     0.013 A 
HETATM   23 BR1  UNL     1      30.782   5.484  47.832  1.00  0.00    -0.051 Br
HETATM   24  C16 UNL     1      27.994   5.572  48.583  1.00  0.00     0.049 A 
ENDBRANCH   4  18
TORSDOF 5
ENDMDL
MODEL 5
REMARK VINA RESULT:      -6.9      2.940      4.464
REMARK  5 active torsions:
REMARK  status: ('A' for Active; 'I' for Inactive)
REMARK    1  A    between atoms: C2_2  and  C3_3 
REMARK    2  A    between atoms: C3_3  and  C4_4 
REMARK       I    between atoms: C4_4  and  N1_6 
REMARK    3  A    between atoms: N1_6  and  C5_7 
REMARK    4  A    between atoms: C7_9  and  C8_10 
REMARK    5  A    between atoms: N2_13  and  C11_14 
ROOT
HETATM    1  C8  UNL     1      26.347   5.869  48.745  1.00  0.00     0.026 C 
HETATM    2  C9  UNL     1      27.223   4.680  48.922  1.00  0.00     0.031 C 
HETATM    3  C10 UNL     1      26.561   3.457  49.474  1.00  0.00     0.144 C 
HETATM    4  N2  UNL     1      25.398   3.753  50.273  1.00  0.00    -0.313 N 
HETATM    5  N3  UNL     1      25.335   5.038  50.821  1.00  0.00    -0.237 NA
HETATM    6  C17 UNL     1      25.219   5.963  49.736  1.00  0.00     0.119 C 
HETATM    7  H18 UNL     1      26.203   5.183  51.366  1.00  0.00     0.146 HD
ENDROOT
BRANCH   1   8
HETATM    8  C7  UNL     1      27.223   7.078  48.946  1.00  0.00     0.004 C 
HETATM    9  C5  UNL     1      27.760   8.076  48.226  1.00  0.00     0.005 C 
HETATM   10  C6  UNL     1      27.489   8.125  46.779  1.00  0.00     0.068 C 
BRANCH   9  11
HETATM   11  N1  UNL     1      28.589   9.093  48.824  1.00  0.00    -0.328 N 
HETATM   12  C4  UNL     1      29.974   8.802  48.961  1.00  0.00     0.252 C 
HETATM   13  O1  UNL     1      30.423   7.694  48.569  1.00  0.00    -0.268 OA
HETATM   14  H4  UNL     1      28.172  10.002  49.136  1.00  0.00     0.169 HD
BRANCH  12  15
HETATM   15  C3  UNL     1      30.781   9.844  49.565  1.00  0.00     0.125 C 
BRANCH  15  16
HETATM   16  C2  UNL     1      30.645  11.079  49.168  1.00  0.00    -0.149 C 
HETATM   17  C1  UNL     1      30.473  12.373  49.003  1.00  0.00     0.096 C 
ENDBRANCH  15  16
ENDBRANCH  12  15
ENDBRANCH   9  11
ENDBRANCH   1   8
BRANCH   4  18
HETATM   18  C11 UNL     1      24.352   2.839  50.519  1.00  0.00     0.046 A 
HETATM   19  C12 UNL     1      23.273   2.746  49.660  1.00  0.00     0.031 A 
HETATM   20  C13 UNL     1      22.260   1.844  49.919  1.00  0.00     0.004 A 
HETATM   21  C14 UNL     1      22.257   1.014  51.007  1.00  0.00     0.019 A 
HETATM   22  C15 UNL     1      23.336   1.091  51.889  1.00  0.00     0.013 A 
HETATM   23 BR1  UNL     1      23.398  -0.036  53.422  1.00  0.00    -0.051 Br
HETATM   24  C16 UNL     1      24.341   2.003  51.606  1.00  0.00     0.049 A 
ENDBRANCH   4  18
TORSDOF 5
ENDMDL
MODEL 6
REMARK VINA RESULT:      -6.9      4.678      7.625
REMARK  5 active torsions:
REMARK  status: ('A' for Active; 'I' for Inactive)
REMARK    1  A    between atoms: C2_2  and  C3_3 
REMARK    2  A    between atoms: C3_3  and  C4_4 
REMARK       I    between atoms: C4_4  and  N1_6 
REMARK    3  A    between atoms: N1_6  and  C5_7 
REMARK    4  A    between atoms: C7_9  and  C8_10 
REMARK    5  A    between atoms: N2_13  and  C11_14 
ROOT
HETATM    1  C8  UNL     1      24.398   3.014  51.301  1.00  0.00     0.026 C 
HETATM    2  C9  UNL     1      23.886   3.635  52.551  1.00  0.00     0.031 C 
HETATM    3  C10 UNL     1      23.263   4.988  52.402  1.00  0.00     0.144 C 
HETATM    4  N2  UNL     1      23.755   5.715  51.259  1.00  0.00    -0.313 N 
HETATM    5  N3  UNL     1      25.011   5.333  50.776  1.00  0.00    -0.237 NA
HETATM    6  C17 UNL     1      24.890   3.998  50.274  1.00  0.00     0.119 C 
HETATM    7  H18 UNL     1      25.676   5.392  51.566  1.00  0.00     0.146 HD
ENDROOT
BRANCH   1   8
HETATM    8  C7  UNL     1      25.573   2.159  51.700  1.00  0.00     0.004 C 
HETATM    9  C5  UNL     1      25.820   1.002  52.337  1.00  0.00     0.005 C 
HETATM   10  C6  UNL     1      24.679   0.228  52.857  1.00  0.00     0.068 C 
BRANCH   9  11
HETATM   11  N1  UNL     1      27.159   0.501  52.525  1.00  0.00    -0.328 N 
HETATM   12  C4  UNL     1      27.857   0.938  53.684  1.00  0.00     0.252 C 
HETATM   13  O1  UNL     1      27.301   1.730  54.489  1.00  0.00    -0.268 OA
HETATM   14  H4  UNL     1      27.582  -0.157  51.829  1.00  0.00     0.169 HD
BRANCH  12  15
HETATM   15  C3  UNL     1      29.199   0.417  53.846  1.00  0.00     0.125 C 
BRANCH  15  16
HETATM   16  C2  UNL     1      29.443  -0.837  53.579  1.00  0.00    -0.149 C 
HETATM   17  C1  UNL     1      29.448  -2.125  53.308  1.00  0.00     0.096 C 
ENDBRANCH  15  16
ENDBRANCH  12  15
ENDBRANCH   9  11
ENDBRANCH   1   8
BRANCH   4  18
HETATM   18  C11 UNL     1      23.054   6.761  50.623  1.00  0.00     0.046 A 
HETATM   19  C12 UNL     1      21.708   6.965  50.867  1.00  0.00     0.031 A 
HETATM   20  C13 UNL     1      21.040   7.995  50.235  1.00  0.00     0.004 A 
HETATM   21  C14 UNL     1      21.646   8.850  49.355  1.00  0.00     0.019 A 
HETATM   22  C15 UNL     1      23.004   8.663  49.092  1.00  0.00     0.013 A 
HETATM   23 BR1  UNL     1      23.909   9.818  47.879  1.00  0.00    -0.051 Br
HETATM   24  C16 UNL     1      23.652   7.623  49.741  1.00  0.00     0.049 A 
ENDBRANCH   4  18
TORSDOF 5
ENDMDL
MODEL 7
REMARK VINA RESULT:      -6.9      3.898      8.875
REMARK  5 active torsions:
REMARK  status: ('A' for Active; 'I' for Inactive)
REMARK    1  A    between atoms: C2_2  and  C3_3 
REMARK    2  A    between atoms: C3_3  and  C4_4 
REMARK       I    between atoms: C4_4  and  N1_6 
REMARK    3  A    between atoms: N1_6  and  C5_7 
REMARK    4  A    between atoms: C7_9  and  C8_10 
REMARK    5  A    between atoms: N2_13  and  C11_14 
ROOT
HETATM    1  C8  UNL     1      24.204   3.140  49.463  1.00  0.00     0.026 C 
HETATM    2  C9  UNL     1      23.631   4.507  49.577  1.00  0.00     0.031 C 
HETATM    3  C10 UNL     1      24.545   5.632  49.201  1.00  0.00     0.144 C 
HETATM    4  N2  UNL     1      25.940   5.305  49.353  1.00  0.00    -0.313 N 
HETATM    5  N3  UNL     1      26.239   4.269  50.245  1.00  0.00    -0.237 NA
HETATM    6  C17 UNL     1      25.687   3.065  49.705  1.00  0.00     0.119 C 
HETATM    7  H18 UNL     1      25.816   4.516  51.157  1.00  0.00     0.146 HD
ENDROOT
BRANCH   1   8
HETATM    8  C7  UNL     1      23.534   2.307  50.525  1.00  0.00     0.004 C 
HETATM    9  C5  UNL     1      22.498   1.462  50.652  1.00  0.00     0.005 C 
HETATM   10  C6  UNL     1      21.679   1.169  49.463  1.00  0.00     0.068 C 
BRANCH   9  11
HETATM   11  N1  UNL     1      22.167   0.838  51.909  1.00  0.00    -0.328 N 
HETATM   12  C4  UNL     1      21.148   1.452  52.688  1.00  0.00     0.252 C 
HETATM   13  O1  UNL     1      20.582   2.495  52.270  1.00  0.00    -0.268 OA
HETATM   14  H4  UNL     1      22.664  -0.030  52.218  1.00  0.00     0.169 HD
BRANCH  12  15
HETATM   15  C3  UNL     1      20.837   0.802  53.946  1.00  0.00     0.125 C 
BRANCH  15  16
HETATM   16  C2  UNL     1      21.607  -0.155  54.386  1.00  0.00    -0.149 C 
HETATM   17  C1  UNL     1      22.190  -1.185  54.962  1.00  0.00     0.096 C 
ENDBRANCH  15  16
ENDBRANCH  12  15
ENDBRANCH   9  11
ENDBRANCH   1   8
BRANCH   4  18
HETATM   18  C11 UNL     1      26.987   5.957  48.668  1.00  0.00     0.046 A 
HETATM   19  C12 UNL     1      28.232   5.367  48.548  1.00  0.00     0.031 A 
HETATM   20  C13 UNL     1      29.243   6.023  47.873  1.00  0.00     0.004 A 
HETATM   21  C14 UNL     1      29.084   7.255  47.300  1.00  0.00     0.019 A 
HETATM   22  C15 UNL     1      27.835   7.870  47.410  1.00  0.00     0.013 A 
HETATM   23 BR1  UNL     1      27.544   9.584  46.635  1.00  0.00    -0.051 Br
HETATM   24  C16 UNL     1      26.837   7.191  48.091  1.00  0.00     0.049 A 
ENDBRANCH   4  18
TORSDOF 5
ENDMDL
MODEL 8
REMARK VINA RESULT:      -6.7      2.079      2.727
REMARK  5 active torsions:
REMARK  status: ('A' for Active; 'I' for Inactive)
REMARK    1  A    between atoms: C2_2  and  C3_3 
REMARK    2  A    between atoms: C3_3  and  C4_4 
REMARK       I    between atoms: C4_4  and  N1_6 
REMARK    3  A    between atoms: N1_6  and  C5_7 
REMARK    4  A    between atoms: C7_9  and  C8_10 
REMARK    5  A    between atoms: N2_13  and  C11_14 
ROOT
HETATM    1  C8  UNL     1      25.593   4.189  49.649  1.00  0.00     0.026 C 
HETATM    2  C9  UNL     1      26.493   3.115  50.144  1.00  0.00     0.031 C 
HETATM    3  C10 UNL     1      25.831   2.000  50.892  1.00  0.00     0.144 C 
HETATM    4  N2  UNL     1      24.591   2.391  51.514  1.00  0.00    -0.313 N 
HETATM    5  N3  UNL     1      24.432   3.757  51.769  1.00  0.00    -0.237 NA
HETATM    6  C17 UNL     1      24.378   4.427  50.506  1.00  0.00     0.119 C 
HETATM    7  H18 UNL     1      25.242   4.061  52.336  1.00  0.00     0.146 HD
ENDROOT
BRANCH   1   8
HETATM    8  C7  UNL     1      26.402   5.461  49.656  1.00  0.00     0.004 C 
HETATM    9  C5  UNL     1      26.401   6.670  49.073  1.00  0.00     0.005 C 
HETATM   10  C6  UNL     1      25.334   6.984  48.105  1.00  0.00     0.068 C 
BRANCH   9  11
HETATM   11  N1  UNL     1      27.405   7.663  49.362  1.00  0.00    -0.328 N 
HETATM   12  C4  UNL     1      28.556   7.682  48.528  1.00  0.00     0.252 C 
HETATM   13  O1  UNL     1      28.662   6.853  47.587  1.00  0.00    -0.268 OA
HETATM   14  H4  UNL     1      27.276   8.333  50.156  1.00  0.00     0.169 HD
BRANCH  12  15
HETATM   15  C3  UNL     1      29.548   8.690  48.843  1.00  0.00     0.125 C 
BRANCH  15  16
HETATM   16  C2  UNL     1      30.782   8.333  49.076  1.00  0.00    -0.149 C 
HETATM   17  C1  UNL     1      31.969   8.011  49.543  1.00  0.00     0.096 C 
ENDBRANCH  15  16
ENDBRANCH  12  15
ENDBRANCH   9  11
ENDBRANCH   1   8
BRANCH   4  18
HETATM   18  C11 UNL     1      23.563   1.492  51.867  1.00  0.00     0.046 A 
HETATM   19  C12 UNL     1      22.457   1.324  51.053  1.00  0.00     0.031 A 
HETATM   20  C13 UNL     1      21.462   0.439  51.417  1.00  0.00     0.004 A 
HETATM   21  C14 UNL     1      21.502  -0.302  52.567  1.00  0.00     0.019 A 
HETATM   22  C15 UNL     1      22.608  -0.147  53.404  1.00  0.00     0.013 A 
HETATM   23 BR1  UNL     1      22.730  -1.148  55.019  1.00  0.00    -0.051 Br
HETATM   24  C16 UNL     1      23.595   0.746  53.016  1.00  0.00     0.049 A 
ENDBRANCH   4  18
TORSDOF 5
ENDMDL
MODEL 9
REMARK VINA RESULT:      -6.7      4.689      5.992
REMARK  5 active torsions:
REMARK  status: ('A' for Active; 'I' for Inactive)
REMARK    1  A    between atoms: C2_2  and  C3_3 
REMARK    2  A    between atoms: C3_3  and  C4_4 
REMARK       I    between atoms: C4_4  and  N1_6 
REMARK    3  A    between atoms: N1_6  and  C5_7 
REMARK    4  A    between atoms: C7_9  and  C8_10 
REMARK    5  A    between atoms: N2_13  and  C11_14 
ROOT
HETATM    1  C8  UNL     1      22.681   0.974  53.039  1.00  0.00     0.026 C 
HETATM    2  C9  UNL     1      22.460   2.221  52.259  1.00  0.00     0.031 C 
HETATM    3  C10 UNL     1      21.161   2.309  51.521  1.00  0.00     0.144 C 
HETATM    4  N2  UNL     1      20.605   1.020  51.194  1.00  0.00    -0.313 N 
HETATM    5  N3  UNL     1      21.509  -0.047  51.138  1.00  0.00    -0.237 NA
HETATM    6  C17 UNL     1      22.019  -0.247  52.460  1.00  0.00     0.119 C 
HETATM    7  H18 UNL     1      22.254   0.216  50.469  1.00  0.00     0.146 HD
ENDROOT
BRANCH   1   8
HETATM    8  C7  UNL     1      24.167   0.724  53.032  1.00  0.00     0.004 C 
HETATM    9  C5  UNL     1      25.082   0.014  53.712  1.00  0.00     0.005 C 
HETATM   10  C6  UNL     1      24.629  -0.823  54.837  1.00  0.00     0.068 C 
BRANCH   9  11
HETATM   11  N1  UNL     1      26.484   0.048  53.376  1.00  0.00    -0.328 N 
HETATM   12  C4  UNL     1      27.230   1.174  53.822  1.00  0.00     0.252 C 
HETATM   13  O1  UNL     1      26.659   2.083  54.478  1.00  0.00    -0.268 OA
HETATM   14  H4  UNL     1      26.917  -0.731  52.827  1.00  0.00     0.169 HD
BRANCH  12  15
HETATM   15  C3  UNL     1      28.635   1.179  53.469  1.00  0.00     0.125 C 
BRANCH  15  16
HETATM   16  C2  UNL     1      29.357   0.111  53.670  1.00  0.00    -0.149 C 
HETATM   17  C1  UNL     1      30.014  -1.029  53.649  1.00  0.00     0.096 C 
ENDBRANCH  15  16
ENDBRANCH  12  15
ENDBRANCH   9  11
ENDBRANCH   1   8
BRANCH   4  18
HETATM   18  C11 UNL     1      19.238   0.788  50.936  1.00  0.00     0.046 A 
HETATM   19  C12 UNL     1      18.574   1.488  49.945  1.00  0.00     0.031 A 
HETATM   20  C13 UNL     1      17.235   1.245  49.708  1.00  0.00     0.004 A 
HETATM   21  C14 UNL     1      16.504   0.330  50.416  1.00  0.00     0.019 A 
HETATM   22  C15 UNL     1      17.153  -0.388  51.422  1.00  0.00     0.013 A 
HETATM   23 BR1  UNL     1      16.197  -1.677  52.444  1.00  0.00    -0.051 Br
HETATM   24  C16 UNL     1      18.497  -0.127  51.639  1.00  0.00     0.049 A 
ENDBRANCH   4  18
TORSDOF 5
ENDMDL
