MODEL 1
REMARK VINA RESULT:      -8.4      0.000      0.000
REMARK  9 active torsions:
REMARK  status: ('A' for Active; 'I' for Inactive)
REMARK    1  A    between atoms: C5_6  and  C6_7 
REMARK    2  A    between atoms: C7_8  and  C8_9 
REMARK    3  A    between atoms: C11_12  and  O1_13 
REMARK    4  A    between atoms: C15_17  and  C16_18 
REMARK    5  A    between atoms: C20_22  and  C21_23 
REMARK    6  A    between atoms: C21_23  and  C22_24 
REMARK    7  A    between atoms: C22_24  and  C23_25 
REMARK    8  A    between atoms: C23_25  and  O3_27 
REMARK    9  A    between atoms: N2_29  and  O4_30 
ROOT
HETATM    1  C1  UNL     1      23.278  -1.451  55.402  1.00  0.00     0.043 C 
HETATM    2  C2  UNL     1      24.319  -0.859  54.960  1.00  0.00     0.029 C 
HETATM    3  N1  UNL     1      25.565  -0.901  55.588  1.00  0.00    -0.386 N 
HETATM    4  C3  UNL     1      26.419  -0.014  54.863  1.00  0.00     0.155 C 
HETATM    5  C4  UNL     1      25.680   0.333  53.634  1.00  0.00    -0.045 C 
HETATM    6  C5  UNL     1      26.431   0.936  52.762  1.00  0.00     0.061 C 
HETATM    7  C14 UNL     1      24.265  -0.111  53.726  1.00  0.00    -0.009 C 
HETATM    8  C15 UNL     1      23.366   0.238  52.790  1.00  0.00    -0.005 C 
HETATM    9  H3  UNL     1      25.910  -1.415  56.395  1.00  0.00     0.160 HD
ENDROOT
BRANCH   8  10
HETATM   10  C16 UNL     1      22.055  -0.337  53.184  1.00  0.00     0.114 C 
HETATM   11  C17 UNL     1      20.792   0.126  53.000  1.00  0.00     0.051 C 
HETATM   12  C18 UNL     1      19.754   1.138  52.500  1.00  0.00     0.033 C 
HETATM   13  N2  UNL     1      19.991  -0.910  53.636  1.00  0.00    -0.266 N 
HETATM   14  C19 UNL     1      18.812   0.453  51.568  1.00  0.00     0.038 C 
HETATM   15  C20 UNL     1      18.037  -0.625  52.252  1.00  0.00    -0.062 C 
HETATM   16  C24 UNL     1      18.637  -1.275  53.263  1.00  0.00     0.120 C 
BRANCH  15  17
HETATM   17  C21 UNL     1      16.690  -0.856  51.728  1.00  0.00     0.046 C 
BRANCH  17  18
HETATM   18  C22 UNL     1      15.969   0.461  51.522  1.00  0.00     0.114 C 
BRANCH  18  19
HETATM   19  C23 UNL     1      15.107   0.742  52.689  1.00  0.00     0.139 C 
HETATM   20  O2  UNL     1      14.788   1.960  52.676  1.00  0.00    -0.650 OA
BRANCH  19  21
HETATM   21  O3  UNL     1      14.646  -0.089  53.700  1.00  0.00    -0.776 OA
HETATM   22  H26 UNL     1      15.037   0.055  54.635  1.00  0.00     0.167 HD
ENDBRANCH  19  21
ENDBRANCH  18  19
ENDBRANCH  17  18
ENDBRANCH  15  17
BRANCH  13  23
HETATM   23  O4  UNL     1      20.302  -1.734  54.688  1.00  0.00    -0.288 OA
HETATM   24  H28 UNL     1      21.265  -1.579  54.865  1.00  0.00     0.244 HD
ENDBRANCH  13  23
ENDBRANCH   8  10
BRANCH   6  25
HETATM   25  C6  UNL     1      26.720   1.585  51.498  1.00  0.00     0.004 C 
HETATM   26  C7  UNL     1      25.818   2.490  51.079  1.00  0.00    -0.018 C 
BRANCH  26  27
HETATM   27  C8  UNL     1      24.533   3.105  51.493  1.00  0.00    -0.056 A 
HETATM   28  C9  UNL     1      23.930   3.788  52.478  1.00  0.00     0.009 A 
HETATM   29  C10 UNL     1      22.555   4.025  52.082  1.00  0.00     0.033 A 
HETATM   30  C11 UNL     1      22.323   3.502  50.901  1.00  0.00     0.050 A 
HETATM   31  C13 UNL     1      23.567   2.843  50.404  1.00  0.00     0.102 A 
BRANCH  30  32
HETATM   32  O1  UNL     1      21.092   3.605  50.316  1.00  0.00    -0.360 OA
HETATM   33  C12 UNL     1      20.120   4.523  50.761  1.00  0.00     0.209 C 
ENDBRANCH  30  32
ENDBRANCH  26  27
ENDBRANCH   6  25
TORSDOF 9
ENDMDL
MODEL 2
REMARK VINA RESULT:      -8.2      1.277      1.772
REMARK  9 active torsions:
REMARK  status: ('A' for Active; 'I' for Inactive)
REMARK    1  A    between atoms: C5_6  and  C6_7 
REMARK    2  A    between atoms: C7_8  and  C8_9 
REMARK    3  A    between atoms: C11_12  and  O1_13 
REMARK    4  A    between atoms: C15_17  and  C16_18 
REMARK    5  A    between atoms: C20_22  and  C21_23 
REMARK    6  A    between atoms: C21_23  and  C22_24 
REMARK    7  A    between atoms: C22_24  and  C23_25 
REMARK    8  A    between atoms: C23_25  and  O3_27 
REMARK    9  A    between atoms: N2_29  and  O4_30 
ROOT
HETATM    1  C1  UNL     1      25.284  -0.588  54.839  1.00  0.00     0.043 C 
HETATM    2  C2  UNL     1      25.961   0.228  54.128  1.00  0.00     0.029 C 
HETATM    3  N1  UNL     1      27.311   0.512  54.341  1.00  0.00    -0.386 N 
HETATM    4  C3  UNL     1      27.657   1.560  53.433  1.00  0.00     0.155 C 
HETATM    5  C4  UNL     1      26.514   1.678  52.508  1.00  0.00    -0.045 C 
HETATM    6  C5  UNL     1      26.789   2.421  51.478  1.00  0.00     0.061 C 
HETATM    7  C14 UNL     1      25.349   0.902  53.008  1.00  0.00    -0.009 C 
HETATM    8  C15 UNL     1      24.148   0.992  52.410  1.00  0.00    -0.005 C 
HETATM    9  H3  UNL     1      28.003   0.123  54.977  1.00  0.00     0.160 HD
ENDROOT
BRANCH   8  10
HETATM   10  C16 UNL     1      23.204   0.125  53.158  1.00  0.00     0.114 C 
HETATM   11  C17 UNL     1      21.875   0.261  53.400  1.00  0.00     0.051 C 
HETATM   12  C18 UNL     1      20.523   0.978  53.303  1.00  0.00     0.033 C 
HETATM   13  N2  UNL     1      21.585  -0.923  54.195  1.00  0.00    -0.266 N 
HETATM   14  C19 UNL     1      19.529   0.062  52.671  1.00  0.00     0.038 C 
HETATM   15  C20 UNL     1      19.288  -1.155  53.502  1.00  0.00    -0.062 C 
HETATM   16  C24 UNL     1      20.311  -1.616  54.241  1.00  0.00     0.120 C 
BRANCH  15  17
HETATM   17  C21 UNL     1      17.940  -1.720  53.409  1.00  0.00     0.046 C 
BRANCH  17  18
HETATM   18  C22 UNL     1      17.184  -1.099  52.252  1.00  0.00     0.114 C 
BRANCH  18  19
HETATM   19  C23 UNL     1      15.763  -0.932  52.622  1.00  0.00     0.139 C 
HETATM   20  O2  UNL     1      15.070  -1.741  51.949  1.00  0.00    -0.650 OA
BRANCH  19  21
HETATM   21  O3  UNL     1      15.153  -0.080  53.530  1.00  0.00    -0.776 OA
HETATM   22  H26 UNL     1      15.014   0.891  53.238  1.00  0.00     0.167 HD
ENDBRANCH  19  21
ENDBRANCH  18  19
ENDBRANCH  17  18
ENDBRANCH  15  17
BRANCH  13  23
HETATM   23  O4  UNL     1      22.398  -1.622  55.053  1.00  0.00    -0.288 OA
HETATM   24  H28 UNL     1      23.068  -2.066  54.473  1.00  0.00     0.244 HD
ENDBRANCH  13  23
ENDBRANCH   8  10
BRANCH   6  25
HETATM   25  C6  UNL     1      26.506   3.083  50.219  1.00  0.00     0.004 C 
HETATM   26  C7  UNL     1      25.348   3.763  50.157  1.00  0.00    -0.018 C 
BRANCH  26  27
HETATM   27  C8  UNL     1      24.169   4.098  50.992  1.00  0.00    -0.056 A 
HETATM   28  C9  UNL     1      23.788   4.685  52.137  1.00  0.00     0.009 A 
HETATM   29  C10 UNL     1      22.344   4.588  52.231  1.00  0.00     0.033 A 
HETATM   30  C11 UNL     1      21.859   3.962  51.185  1.00  0.00     0.050 A 
HETATM   31  C13 UNL     1      22.984   3.569  50.285  1.00  0.00     0.102 A 
BRANCH  30  32
HETATM   32  O1  UNL     1      20.515   3.756  51.049  1.00  0.00    -0.360 OA
HETATM   33  C12 UNL     1      19.667   4.695  50.429  1.00  0.00     0.209 C 
ENDBRANCH  30  32
ENDBRANCH  26  27
ENDBRANCH   6  25
TORSDOF 9
ENDMDL
MODEL 3
REMARK VINA RESULT:      -8.1      3.706      8.271
REMARK  9 active torsions:
REMARK  status: ('A' for Active; 'I' for Inactive)
REMARK    1  A    between atoms: C5_6  and  C6_7 
REMARK    2  A    between atoms: C7_8  and  C8_9 
REMARK    3  A    between atoms: C11_12  and  O1_13 
REMARK    4  A    between atoms: C15_17  and  C16_18 
REMARK    5  A    between atoms: C20_22  and  C21_23 
REMARK    6  A    between atoms: C21_23  and  C22_24 
REMARK    7  A    between atoms: C22_24  and  C23_25 
REMARK    8  A    between atoms: C23_25  and  O3_27 
REMARK    9  A    between atoms: N2_29  and  O4_30 
ROOT
HETATM    1  C1  UNL     1      25.264   5.265  49.368  1.00  0.00     0.043 C 
HETATM    2  C2  UNL     1      24.081   5.254  48.888  1.00  0.00     0.029 C 
HETATM    3  N1  UNL     1      23.535   6.296  48.137  1.00  0.00    -0.386 N 
HETATM    4  C3  UNL     1      22.164   5.961  47.907  1.00  0.00     0.155 C 
HETATM    5  C4  UNL     1      22.023   4.555  48.334  1.00  0.00    -0.045 C 
HETATM    6  C5  UNL     1      20.892   4.038  47.955  1.00  0.00     0.061 C 
HETATM    7  C14 UNL     1      23.225   4.107  49.083  1.00  0.00    -0.009 C 
HETATM    8  C15 UNL     1      23.252   2.915  49.703  1.00  0.00    -0.005 C 
HETATM    9  H3  UNL     1      23.929   7.159  47.772  1.00  0.00     0.160 HD
ENDROOT
BRANCH   8  10
HETATM   10  C16 UNL     1      24.569   2.783  50.373  1.00  0.00     0.114 C 
HETATM   11  C17 UNL     1      24.892   2.351  51.620  1.00  0.00     0.051 C 
HETATM   12  C18 UNL     1      24.568   1.809  53.017  1.00  0.00     0.033 C 
HETATM   13  N2  UNL     1      26.340   2.489  51.627  1.00  0.00    -0.266 N 
HETATM   14  C19 UNL     1      25.291   0.520  53.222  1.00  0.00     0.038 C 
HETATM   15  C20 UNL     1      26.773   0.702  53.186  1.00  0.00    -0.062 C 
HETATM   16  C24 UNL     1      27.261   1.675  52.399  1.00  0.00     0.120 C 
BRANCH  15  17
HETATM   17  C21 UNL     1      27.537  -0.222  54.026  1.00  0.00     0.046 C 
BRANCH  17  18
HETATM   18  C22 UNL     1      28.563  -0.966  53.196  1.00  0.00     0.114 C 
BRANCH  18  19
HETATM   19  C23 UNL     1      28.148  -2.377  53.044  1.00  0.00     0.139 C 
HETATM   20  O2  UNL     1      27.065  -2.415  52.402  1.00  0.00    -0.650 OA
BRANCH  19  21
HETATM   21  O3  UNL     1      28.743  -3.552  53.478  1.00  0.00    -0.776 OA
HETATM   22  H26 UNL     1      29.687  -3.481  53.867  1.00  0.00     0.167 HD
ENDBRANCH  19  21
ENDBRANCH  18  19
ENDBRANCH  17  18
ENDBRANCH  15  17
BRANCH  13  23
HETATM   23  O4  UNL     1      27.138   3.380  50.953  1.00  0.00    -0.288 OA
HETATM   24  H28 UNL     1      26.882   4.273  51.299  1.00  0.00     0.244 HD
ENDBRANCH  13  23
ENDBRANCH   8  10
BRANCH   6  25
HETATM   25  C6  UNL     1      19.901   2.987  47.832  1.00  0.00     0.004 C 
HETATM   26  C7  UNL     1      19.580   2.343  48.969  1.00  0.00    -0.018 C 
BRANCH  26  27
HETATM   27  C8  UNL     1      19.910   2.335  50.414  1.00  0.00    -0.056 A 
HETATM   28  C9  UNL     1      19.904   3.083  51.528  1.00  0.00     0.009 A 
HETATM   29  C10 UNL     1      20.429   2.275  52.613  1.00  0.00     0.033 A 
HETATM   30  C11 UNL     1      20.749   1.079  52.178  1.00  0.00     0.050 A 
HETATM   31  C13 UNL     1      20.462   0.996  50.715  1.00  0.00     0.102 A 
BRANCH  30  32
HETATM   32  O1  UNL     1      21.261   0.137  53.026  1.00  0.00    -0.360 OA
HETATM   33  C12 UNL     1      20.897   0.068  54.385  1.00  0.00     0.209 C 
ENDBRANCH  30  32
ENDBRANCH  26  27
ENDBRANCH   6  25
TORSDOF 9
ENDMDL
MODEL 4
REMARK VINA RESULT:      -8.1      4.460      9.070
REMARK  9 active torsions:
REMARK  status: ('A' for Active; 'I' for Inactive)
REMARK    1  A    between atoms: C5_6  and  C6_7 
REMARK    2  A    between atoms: C7_8  and  C8_9 
REMARK    3  A    between atoms: C11_12  and  O1_13 
REMARK    4  A    between atoms: C15_17  and  C16_18 
REMARK    5  A    between atoms: C20_22  and  C21_23 
REMARK    6  A    between atoms: C21_23  and  C22_24 
REMARK    7  A    between atoms: C22_24  and  C23_25 
REMARK    8  A    between atoms: C23_25  and  O3_27 
REMARK    9  A    between atoms: N2_29  and  O4_30 
ROOT
HETATM    1  C1  UNL     1      22.775   3.633  49.176  1.00  0.00     0.043 C 
HETATM    2  C2  UNL     1      22.262   2.578  49.679  1.00  0.00     0.029 C 
HETATM    3  N1  UNL     1      21.513   1.653  48.950  1.00  0.00    -0.386 N 
HETATM    4  C3  UNL     1      21.011   0.701  49.891  1.00  0.00     0.155 C 
HETATM    5  C4  UNL     1      21.728   0.972  51.151  1.00  0.00    -0.045 C 
HETATM    6  C5  UNL     1      21.556   0.028  52.028  1.00  0.00     0.061 C 
HETATM    7  C14 UNL     1      22.463   2.262  51.074  1.00  0.00    -0.009 C 
HETATM    8  C15 UNL     1      23.056   2.789  52.158  1.00  0.00    -0.005 C 
HETATM    9  H3  UNL     1      21.298   1.571  47.960  1.00  0.00     0.160 HD
ENDROOT
BRANCH   8  10
HETATM   10  C16 UNL     1      23.673   4.077  51.756  1.00  0.00     0.114 C 
HETATM   11  C17 UNL     1      24.853   4.341  51.138  1.00  0.00     0.051 C 
HETATM   12  C18 UNL     1      26.186   3.950  50.487  1.00  0.00     0.033 C 
HETATM   13  N2  UNL     1      24.840   5.794  51.060  1.00  0.00    -0.266 N 
HETATM   14  C19 UNL     1      26.221   4.476  49.091  1.00  0.00     0.038 C 
HETATM   15  C20 UNL     1      26.171   5.967  49.057  1.00  0.00    -0.062 C 
HETATM   16  C24 UNL     1      25.490   6.589  50.034  1.00  0.00     0.120 C 
BRANCH  15  17
HETATM   17  C21 UNL     1      26.879   6.593  47.938  1.00  0.00     0.046 C 
BRANCH  17  18
HETATM   18  C22 UNL     1      28.116   7.315  48.432  1.00  0.00     0.114 C 
BRANCH  18  19
HETATM   19  C23 UNL     1      29.284   6.413  48.341  1.00  0.00     0.139 C 
HETATM   20  O2  UNL     1      29.927   6.685  47.292  1.00  0.00    -0.650 OA
BRANCH  19  21
HETATM   21  O3  UNL     1      29.722   5.403  49.184  1.00  0.00    -0.776 OA
HETATM   22  H26 UNL     1      29.216   5.280  50.065  1.00  0.00     0.167 HD
ENDBRANCH  19  21
ENDBRANCH  18  19
ENDBRANCH  17  18
ENDBRANCH  15  17
BRANCH  13  23
HETATM   23  O4  UNL     1      24.255   6.710  51.898  1.00  0.00    -0.288 OA
HETATM   24  H28 UNL     1      24.760   6.645  52.749  1.00  0.00     0.244 HD
ENDBRANCH  13  23
ENDBRANCH   8  10
BRANCH   6  25
HETATM   25  C6  UNL     1      21.736  -0.627  53.309  1.00  0.00     0.004 C 
HETATM   26  C7  UNL     1      23.003  -0.737  53.743  1.00  0.00    -0.018 C 
BRANCH  26  27
HETATM   27  C8  UNL     1      24.388  -0.395  53.338  1.00  0.00    -0.056 A 
HETATM   28  C9  UNL     1      25.134   0.060  52.320  1.00  0.00     0.009 A 
HETATM   29  C10 UNL     1      26.514   0.114  52.765  1.00  0.00     0.033 A 
HETATM   30  C11 UNL     1      26.610  -0.297  54.008  1.00  0.00     0.050 A 
HETATM   31  C13 UNL     1      25.254  -0.680  54.502  1.00  0.00     0.102 A 
BRANCH  30  32
HETATM   32  O1  UNL     1      27.817  -0.328  54.647  1.00  0.00    -0.360 OA
HETATM   33  C12 UNL     1      28.755   0.718  54.538  1.00  0.00     0.209 C 
ENDBRANCH  30  32
ENDBRANCH  26  27
ENDBRANCH   6  25
TORSDOF 9
ENDMDL
MODEL 5
REMARK VINA RESULT:      -8.1      3.695      7.573
REMARK  9 active torsions:
REMARK  status: ('A' for Active; 'I' for Inactive)
REMARK    1  A    between atoms: C5_6  and  C6_7 
REMARK    2  A    between atoms: C7_8  and  C8_9 
REMARK    3  A    between atoms: C11_12  and  O1_13 
REMARK    4  A    between atoms: C15_17  and  C16_18 
REMARK    5  A    between atoms: C20_22  and  C21_23 
REMARK    6  A    between atoms: C21_23  and  C22_24 
REMARK    7  A    between atoms: C22_24  and  C23_25 
REMARK    8  A    between atoms: C23_25  and  O3_27 
REMARK    9  A    between atoms: N2_29  and  O4_30 
ROOT
HETATM    1  C1  UNL     1      26.960   1.134  52.019  1.00  0.00     0.043 C 
HETATM    2  C2  UNL     1      26.050   0.467  52.616  1.00  0.00     0.029 C 
HETATM    3  N1  UNL     1      26.279  -0.732  53.293  1.00  0.00    -0.386 N 
HETATM    4  C3  UNL     1      25.000  -1.223  53.701  1.00  0.00     0.155 C 
HETATM    5  C4  UNL     1      24.054  -0.117  53.459  1.00  0.00    -0.045 C 
HETATM    6  C5  UNL     1      22.897  -0.329  54.011  1.00  0.00     0.061 C 
HETATM    7  C14 UNL     1      24.690   0.953  52.647  1.00  0.00    -0.009 C 
HETATM    8  C15 UNL     1      23.970   1.984  52.171  1.00  0.00    -0.005 C 
HETATM    9  H3  UNL     1      27.129  -1.245  53.512  1.00  0.00     0.160 HD
ENDROOT
BRANCH   8  10
HETATM   10  C16 UNL     1      24.884   2.852  51.389  1.00  0.00     0.114 C 
HETATM   11  C17 UNL     1      24.671   3.576  50.260  1.00  0.00     0.051 C 
HETATM   12  C18 UNL     1      23.817   4.100  49.100  1.00  0.00     0.033 C 
HETATM   13  N2  UNL     1      25.978   4.173  50.027  1.00  0.00    -0.266 N 
HETATM   14  C19 UNL     1      23.807   5.592  49.133  1.00  0.00     0.038 C 
HETATM   15  C20 UNL     1      25.172   6.161  48.926  1.00  0.00    -0.062 C 
HETATM   16  C24 UNL     1      26.218   5.445  49.371  1.00  0.00     0.120 C 
BRANCH  15  17
HETATM   17  C21 UNL     1      25.213   7.461  48.253  1.00  0.00     0.046 C 
BRANCH  17  18
HETATM   18  C22 UNL     1      24.850   8.569  49.220  1.00  0.00     0.114 C 
BRANCH  18  19
HETATM   19  C23 UNL     1      26.079   9.104  49.844  1.00  0.00     0.139 C 
HETATM   20  O2  UNL     1      26.320  10.241  49.359  1.00  0.00    -0.650 OA
BRANCH  19  21
HETATM   21  O3  UNL     1      26.921   8.563  50.805  1.00  0.00    -0.776 OA
HETATM   22  H26 UNL     1      27.774   8.105  50.473  1.00  0.00     0.167 HD
ENDBRANCH  19  21
ENDBRANCH  18  19
ENDBRANCH  17  18
ENDBRANCH  15  17
BRANCH  13  23
HETATM   23  O4  UNL     1      27.226   3.698  50.344  1.00  0.00    -0.288 OA
HETATM   24  H28 UNL     1      27.827   4.060  49.644  1.00  0.00     0.244 HD
ENDBRANCH  13  23
ENDBRANCH   8  10
BRANCH   6  25
HETATM   25  C6  UNL     1      21.525  -0.011  54.358  1.00  0.00     0.004 C 
HETATM   26  C7  UNL     1      20.763   0.475  53.363  1.00  0.00    -0.018 C 
BRANCH  26  27
HETATM   27  C8  UNL     1      20.841   0.825  51.923  1.00  0.00    -0.056 A 
HETATM   28  C9  UNL     1      21.161   0.345  50.712  1.00  0.00     0.009 A 
HETATM   29  C10 UNL     1      20.945   1.402  49.742  1.00  0.00     0.033 A 
HETATM   30  C11 UNL     1      20.515   2.489  50.337  1.00  0.00     0.050 A 
HETATM   31  C13 UNL     1      20.416   2.236  51.806  1.00  0.00     0.102 A 
BRANCH  30  32
HETATM   32  O1  UNL     1      20.235   3.619  49.622  1.00  0.00    -0.360 OA
HETATM   33  C12 UNL     1      20.226   4.900  50.208  1.00  0.00     0.209 C 
ENDBRANCH  30  32
ENDBRANCH  26  27
ENDBRANCH   6  25
TORSDOF 9
ENDMDL
MODEL 6
REMARK VINA RESULT:      -8.0      3.259      7.720
REMARK  9 active torsions:
REMARK  status: ('A' for Active; 'I' for Inactive)
REMARK    1  A    between atoms: C5_6  and  C6_7 
REMARK    2  A    between atoms: C7_8  and  C8_9 
REMARK    3  A    between atoms: C11_12  and  O1_13 
REMARK    4  A    between atoms: C15_17  and  C16_18 
REMARK    5  A    between atoms: C20_22  and  C21_23 
REMARK    6  A    between atoms: C21_23  and  C22_24 
REMARK    7  A    between atoms: C22_24  and  C23_25 
REMARK    8  A    between atoms: C23_25  and  O3_27 
REMARK    9  A    between atoms: N2_29  and  O4_30 
ROOT
HETATM    1  C1  UNL     1      21.644  -0.912  54.947  1.00  0.00     0.043 C 
HETATM    2  C2  UNL     1      20.828  -0.622  54.009  1.00  0.00     0.029 C 
HETATM    3  N1  UNL     1      19.450  -0.832  54.083  1.00  0.00    -0.386 N 
HETATM    4  C3  UNL     1      18.916  -0.508  52.797  1.00  0.00     0.155 C 
HETATM    5  C4  UNL     1      20.016   0.152  52.066  1.00  0.00    -0.045 C 
HETATM    6  C5  UNL     1      19.606   0.723  50.973  1.00  0.00     0.061 C 
HETATM    7  C14 UNL     1      21.304  -0.013  52.789  1.00  0.00    -0.009 C 
HETATM    8  C15 UNL     1      22.466   0.368  52.232  1.00  0.00    -0.005 C 
HETATM    9  H3  UNL     1      18.842  -1.147  54.836  1.00  0.00     0.160 HD
ENDROOT
BRANCH   8  10
HETATM   10  C16 UNL     1      23.554   0.048  53.189  1.00  0.00     0.114 C 
HETATM   11  C17 UNL     1      24.885  -0.130  52.991  1.00  0.00     0.051 C 
HETATM   12  C18 UNL     1      26.155  -0.195  52.135  1.00  0.00     0.033 C 
HETATM   13  N2  UNL     1      25.357  -0.428  54.336  1.00  0.00    -0.266 N 
HETATM   14  C19 UNL     1      27.147   0.791  52.654  1.00  0.00     0.038 C 
HETATM   15  C20 UNL     1      27.577   0.468  54.046  1.00  0.00    -0.062 C 
HETATM   16  C24 UNL     1      26.682  -0.132  54.849  1.00  0.00     0.120 C 
BRANCH  15  17
HETATM   17  C21 UNL     1      28.948   0.852  54.384  1.00  0.00     0.046 C 
BRANCH  17  18
HETATM   18  C22 UNL     1      29.927   0.241  53.402  1.00  0.00     0.114 C 
BRANCH  18  19
HETATM   19  C23 UNL     1      30.120  -1.189  53.722  1.00  0.00     0.139 C 
HETATM   20  O2  UNL     1      29.276  -1.868  53.078  1.00  0.00    -0.650 OA
BRANCH  19  21
HETATM   21  O3  UNL     1      31.028  -1.820  54.560  1.00  0.00    -0.776 OA
HETATM   22  H26 UNL     1      31.768  -1.241  54.965  1.00  0.00     0.167 HD
ENDBRANCH  19  21
ENDBRANCH  18  19
ENDBRANCH  17  18
ENDBRANCH  15  17
BRANCH  13  23
HETATM   23  O4  UNL     1      24.703  -1.039  55.377  1.00  0.00    -0.288 OA
HETATM   24  H28 UNL     1      24.123  -1.722  54.956  1.00  0.00     0.244 HD
ENDBRANCH  13  23
ENDBRANCH   8  10
BRANCH   6  25
HETATM   25  C6  UNL     1      19.759   1.486  49.750  1.00  0.00     0.004 C 
HETATM   26  C7  UNL     1      20.461   2.629  49.851  1.00  0.00    -0.018 C 
BRANCH  26  27
HETATM   27  C8  UNL     1      21.189   3.442  50.855  1.00  0.00    -0.056 A 
HETATM   28  C9  UNL     1      21.159   3.869  52.126  1.00  0.00     0.009 A 
HETATM   29  C10 UNL     1      22.334   4.690  52.350  1.00  0.00     0.033 A 
HETATM   30  C11 UNL     1      23.054   4.767  51.255  1.00  0.00     0.050 A 
HETATM   31  C13 UNL     1      22.386   3.982  50.175  1.00  0.00     0.102 A 
BRANCH  30  32
HETATM   32  O1  UNL     1      24.216   5.484  51.227  1.00  0.00    -0.360 OA
HETATM   33  C12 UNL     1      24.233   6.890  51.132  1.00  0.00     0.209 C 
ENDBRANCH  30  32
ENDBRANCH  26  27
ENDBRANCH   6  25
TORSDOF 9
ENDMDL
MODEL 7
REMARK VINA RESULT:      -7.8      7.305     12.422
REMARK  9 active torsions:
REMARK  status: ('A' for Active; 'I' for Inactive)
REMARK    1  A    between atoms: C5_6  and  C6_7 
REMARK    2  A    between atoms: C7_8  and  C8_9 
REMARK    3  A    between atoms: C11_12  and  O1_13 
REMARK    4  A    between atoms: C15_17  and  C16_18 
REMARK    5  A    between atoms: C20_22  and  C21_23 
REMARK    6  A    between atoms: C21_23  and  C22_24 
REMARK    7  A    between atoms: C22_24  and  C23_25 
REMARK    8  A    between atoms: C23_25  and  O3_27 
REMARK    9  A    between atoms: N2_29  and  O4_30 
ROOT
HETATM    1  C1  UNL     1      27.378   8.538  49.237  1.00  0.00     0.043 C 
HETATM    2  C2  UNL     1      26.453   7.776  49.676  1.00  0.00     0.029 C 
HETATM    3  N1  UNL     1      25.412   8.209  50.499  1.00  0.00    -0.386 N 
HETATM    4  C3  UNL     1      24.675   7.044  50.875  1.00  0.00     0.155 C 
HETATM    5  C4  UNL     1      25.183   5.958  50.014  1.00  0.00    -0.045 C 
HETATM    6  C5  UNL     1      24.436   4.895  50.070  1.00  0.00     0.061 C 
HETATM    7  C14 UNL     1      26.419   6.381  49.306  1.00  0.00    -0.009 C 
HETATM    8  C15 UNL     1      27.143   5.503  48.591  1.00  0.00    -0.005 C 
HETATM    9  H3  UNL     1      25.136   9.130  50.830  1.00  0.00     0.160 HD
ENDROOT
BRANCH   8  10
HETATM   10  C16 UNL     1      28.315   6.227  48.038  1.00  0.00     0.114 C 
HETATM   11  C17 UNL     1      29.646   5.990  48.167  1.00  0.00     0.051 C 
HETATM   12  C18 UNL     1      30.865   5.216  48.683  1.00  0.00     0.033 C 
HETATM   13  N2  UNL     1      30.227   7.075  47.391  1.00  0.00    -0.266 N 
HETATM   14  C19 UNL     1      31.679   4.752  47.522  1.00  0.00     0.038 C 
HETATM   15  C20 UNL     1      32.225   5.897  46.734  1.00  0.00    -0.062 C 
HETATM   16  C24 UNL     1      31.495   7.024  46.688  1.00  0.00     0.120 C 
BRANCH  15  17
HETATM   17  C21 UNL     1      33.515   5.652  46.086  1.00  0.00     0.046 C 
BRANCH  17  18
HETATM   18  C22 UNL     1      34.548   5.223  47.109  1.00  0.00     0.114 C 
BRANCH  18  19
HETATM   19  C23 UNL     1      35.018   3.857  46.794  1.00  0.00     0.139 C 
HETATM   20  O2  UNL     1      35.023   3.175  47.853  1.00  0.00    -0.650 OA
BRANCH  19  21
HETATM   21  O3  UNL     1      35.416   3.286  45.594  1.00  0.00    -0.776 OA
HETATM   22  H26 UNL     1      36.017   2.460  45.648  1.00  0.00     0.167 HD
ENDBRANCH  19  21
ENDBRANCH  18  19
ENDBRANCH  17  18
ENDBRANCH  15  17
BRANCH  13  23
HETATM   23  O4  UNL     1      29.747   8.341  47.161  1.00  0.00    -0.288 OA
HETATM   24  H28 UNL     1      29.409   8.326  46.229  1.00  0.00     0.244 HD
ENDBRANCH  13  23
ENDBRANCH   8  10
BRANCH   6  25
HETATM   25  C6  UNL     1      24.048   3.540  49.732  1.00  0.00     0.004 C 
HETATM   26  C7  UNL     1      24.476   2.578  50.568  1.00  0.00    -0.018 C 
BRANCH  26  27
HETATM   27  C8  UNL     1      25.267   2.407  51.812  1.00  0.00    -0.056 A 
HETATM   28  C9  UNL     1      25.178   2.361  53.150  1.00  0.00     0.009 A 
HETATM   29  C10 UNL     1      26.511   2.143  53.679  1.00  0.00     0.033 A 
HETATM   30  C11 UNL     1      27.384   2.063  52.702  1.00  0.00     0.050 A 
HETATM   31  C13 UNL     1      26.676   2.239  51.399  1.00  0.00     0.102 A 
BRANCH  30  32
HETATM   32  O1  UNL     1      28.709   1.853  52.959  1.00  0.00    -0.360 OA
HETATM   33  C12 UNL     1      29.153   1.124  54.080  1.00  0.00     0.209 C 
ENDBRANCH  30  32
ENDBRANCH  26  27
ENDBRANCH   6  25
TORSDOF 9
ENDMDL
MODEL 8
REMARK VINA RESULT:      -7.6      2.807      6.325
REMARK  9 active torsions:
REMARK  status: ('A' for Active; 'I' for Inactive)
REMARK    1  A    between atoms: C5_6  and  C6_7 
REMARK    2  A    between atoms: C7_8  and  C8_9 
REMARK    3  A    between atoms: C11_12  and  O1_13 
REMARK    4  A    between atoms: C15_17  and  C16_18 
REMARK    5  A    between atoms: C20_22  and  C21_23 
REMARK    6  A    between atoms: C21_23  and  C22_24 
REMARK    7  A    between atoms: C22_24  and  C23_25 
REMARK    8  A    between atoms: C23_25  and  O3_27 
REMARK    9  A    between atoms: N2_29  and  O4_30 
ROOT
HETATM    1  C1  UNL     1      26.752   2.017  51.587  1.00  0.00     0.043 C 
HETATM    2  C2  UNL     1      26.384   0.994  52.254  1.00  0.00     0.029 C 
HETATM    3  N1  UNL     1      27.166  -0.150  52.424  1.00  0.00    -0.386 N 
HETATM    4  C3  UNL     1      26.353  -1.105  53.109  1.00  0.00     0.155 C 
HETATM    5  C4  UNL     1      25.161  -0.361  53.559  1.00  0.00    -0.045 C 
HETATM    6  C5  UNL     1      24.449  -1.041  54.408  1.00  0.00     0.061 C 
HETATM    7  C14 UNL     1      25.101   0.978  52.917  1.00  0.00    -0.009 C 
HETATM    8  C15 UNL     1      24.021   1.766  53.056  1.00  0.00    -0.005 C 
HETATM    9  H3  UNL     1      28.122  -0.373  52.159  1.00  0.00     0.160 HD
ENDROOT
BRANCH   8  10
HETATM   10  C16 UNL     1      24.264   3.008  52.281  1.00  0.00     0.114 C 
HETATM   11  C17 UNL     1      23.436   3.735  51.488  1.00  0.00     0.051 C 
HETATM   12  C18 UNL     1      22.096   4.041  50.808  1.00  0.00     0.033 C 
HETATM   13  N2  UNL     1      24.310   4.807  51.034  1.00  0.00    -0.266 N 
HETATM   14  C19 UNL     1      21.639   5.401  51.217  1.00  0.00     0.038 C 
HETATM   15  C20 UNL     1      22.581   6.465  50.762  1.00  0.00    -0.062 C 
HETATM   16  C24 UNL     1      23.884   6.148  50.679  1.00  0.00     0.120 C 
BRANCH  15  17
HETATM   17  C21 UNL     1      21.966   7.759  50.457  1.00  0.00     0.046 C 
BRANCH  17  18
HETATM   18  C22 UNL     1      22.209   8.133  49.010  1.00  0.00     0.114 C 
BRANCH  18  19
HETATM   19  C23 UNL     1      21.416   7.248  48.130  1.00  0.00     0.139 C 
HETATM   20  O2  UNL     1      20.204   7.587  48.198  1.00  0.00    -0.650 OA
BRANCH  19  21
HETATM   21  O3  UNL     1      21.801   6.193  47.315  1.00  0.00    -0.776 OA
HETATM   22  H26 UNL     1      21.059   5.587  46.956  1.00  0.00     0.167 HD
ENDBRANCH  19  21
ENDBRANCH  18  19
ENDBRANCH  17  18
ENDBRANCH  15  17
BRANCH  13  23
HETATM   23  O4  UNL     1      25.668   4.803  50.833  1.00  0.00    -0.288 OA
HETATM   24  H28 UNL     1      26.065   4.735  51.738  1.00  0.00     0.244 HD
ENDBRANCH  13  23
ENDBRANCH   8  10
BRANCH   6  25
HETATM   25  C6  UNL     1      23.334  -1.267  55.307  1.00  0.00     0.004 C 
HETATM   26  C7  UNL     1      22.121  -0.918  54.842  1.00  0.00    -0.018 C 
BRANCH  26  27
HETATM   27  C8  UNL     1      21.477  -0.339  53.638  1.00  0.00    -0.056 A 
HETATM   28  C9  UNL     1      21.293  -0.517  52.321  1.00  0.00     0.009 A 
HETATM   29  C10 UNL     1      20.480   0.580  51.831  1.00  0.00     0.033 A 
HETATM   30  C11 UNL     1      20.181   1.401  52.810  1.00  0.00     0.050 A 
HETATM   31  C13 UNL     1      20.804   0.903  54.073  1.00  0.00     0.102 A 
BRANCH  30  32
HETATM   32  O1  UNL     1      19.415   2.510  52.589  1.00  0.00    -0.360 OA
HETATM   33  C12 UNL     1      18.618   2.659  51.436  1.00  0.00     0.209 C 
ENDBRANCH  30  32
ENDBRANCH  26  27
ENDBRANCH   6  25
TORSDOF 9
ENDMDL
MODEL 9
REMARK VINA RESULT:      -7.5      3.480      6.914
REMARK  9 active torsions:
REMARK  status: ('A' for Active; 'I' for Inactive)
REMARK    1  A    between atoms: C5_6  and  C6_7 
REMARK    2  A    between atoms: C7_8  and  C8_9 
REMARK    3  A    between atoms: C11_12  and  O1_13 
REMARK    4  A    between atoms: C15_17  and  C16_18 
REMARK    5  A    between atoms: C20_22  and  C21_23 
REMARK    6  A    between atoms: C21_23  and  C22_24 
REMARK    7  A    between atoms: C22_24  and  C23_25 
REMARK    8  A    between atoms: C23_25  and  O3_27 
REMARK    9  A    between atoms: N2_29  and  O4_30 
ROOT
HETATM    1  C1  UNL     1      26.741   1.823  51.327  1.00  0.00     0.043 C 
HETATM    2  C2  UNL     1      26.165   0.936  52.040  1.00  0.00     0.029 C 
HETATM    3  N1  UNL     1      26.799  -0.210  52.522  1.00  0.00    -0.386 N 
HETATM    4  C3  UNL     1      25.791  -1.003  53.152  1.00  0.00     0.155 C 
HETATM    5  C4  UNL     1      24.602  -0.134  53.242  1.00  0.00    -0.045 C 
HETATM    6  C5  UNL     1      23.683  -0.636  54.014  1.00  0.00     0.061 C 
HETATM    7  C14 UNL     1      24.781   1.093  52.423  1.00  0.00    -0.009 C 
HETATM    8  C15 UNL     1      23.766   1.952  52.229  1.00  0.00    -0.005 C 
HETATM    9  H3  UNL     1      27.766  -0.524  52.491  1.00  0.00     0.160 HD
ENDROOT
BRANCH   8  10
HETATM   10  C16 UNL     1      24.259   3.046  51.356  1.00  0.00     0.114 C 
HETATM   11  C17 UNL     1      23.993   3.330  50.055  1.00  0.00     0.051 C 
HETATM   12  C18 UNL     1      23.317   3.087  48.701  1.00  0.00     0.033 C 
HETATM   13  N2  UNL     1      24.809   4.514  49.828  1.00  0.00    -0.266 N 
HETATM   14  C19 UNL     1      22.526   4.295  48.324  1.00  0.00     0.038 C 
HETATM   15  C20 UNL     1      23.397   5.493  48.136  1.00  0.00    -0.062 C 
HETATM   16  C24 UNL     1      24.510   5.575  48.884  1.00  0.00     0.120 C 
BRANCH  15  17
HETATM   17  C21 UNL     1      22.925   6.461  47.144  1.00  0.00     0.046 C 
BRANCH  17  18
HETATM   18  C22 UNL     1      22.196   5.753  46.020  1.00  0.00     0.114 C 
BRANCH  18  19
HETATM   19  C23 UNL     1      22.300   6.554  44.782  1.00  0.00     0.139 C 
HETATM   20  O2  UNL     1      23.405   7.160  44.781  1.00  0.00    -0.650 OA
BRANCH  19  21
HETATM   21  O3  UNL     1      21.420   6.707  43.721  1.00  0.00    -0.776 OA
HETATM   22  H26 UNL     1      20.428   6.545  43.911  1.00  0.00     0.167 HD
ENDBRANCH  19  21
ENDBRANCH  18  19
ENDBRANCH  17  18
ENDBRANCH  15  17
BRANCH  13  23
HETATM   23  O4  UNL     1      25.995   4.885  50.411  1.00  0.00    -0.288 OA
HETATM   24  H28 UNL     1      26.286   4.095  50.934  1.00  0.00     0.244 HD
ENDBRANCH  13  23
ENDBRANCH   8  10
BRANCH   6  25
HETATM   25  C6  UNL     1      22.400  -0.660  54.689  1.00  0.00     0.004 C 
HETATM   26  C7  UNL     1      21.344  -0.252  53.963  1.00  0.00    -0.018 C 
BRANCH  26  27
HETATM   27  C8  UNL     1      21.009   0.252  52.609  1.00  0.00    -0.056 A 
HETATM   28  C9  UNL     1      21.115  -0.018  51.300  1.00  0.00     0.009 A 
HETATM   29  C10 UNL     1      20.476   1.059  50.567  1.00  0.00     0.033 A 
HETATM   30  C11 UNL     1      20.001   1.958  51.397  1.00  0.00     0.050 A 
HETATM   31  C13 UNL     1      20.306   1.539  52.798  1.00  0.00     0.102 A 
BRANCH  30  32
HETATM   32  O1  UNL     1      19.348   3.065  50.935  1.00  0.00    -0.360 OA
HETATM   33  C12 UNL     1      18.126   3.503  51.481  1.00  0.00     0.209 C 
ENDBRANCH  30  32
ENDBRANCH  26  27
ENDBRANCH   6  25
TORSDOF 9
ENDMDL
