MODEL 1
REMARK VINA RESULT:      -8.2      0.000      0.000
REMARK  5 active torsions:
REMARK  status: ('A' for Active; 'I' for Inactive)
REMARK    1  A    between atoms: S1_2  and  N1_4 
REMARK    2  A    between atoms: S1_2  and  C9_15 
REMARK    3  A    between atoms: N1_4  and  P1_5 
REMARK    4  A    between atoms: C5_10  and  C6_11 
REMARK    5  A    between atoms: C7_13  and  C8_14 
ROOT
HETATM    1  N1  UNL     1      26.480   2.755  52.826  1.00  0.00    -0.187 NA
HETATM    2  H1  UNL     1      26.776   2.529  51.822  1.00  0.00     0.145 HD
ENDROOT
BRANCH   1   3
HETATM    3  S1  UNL     1      24.760   2.566  52.812  1.00  0.00     0.245 S 
HETATM    4  O1  UNL     1      24.452   1.425  53.658  1.00  0.00    -0.206 OA
HETATM    5  O2  UNL     1      24.179   3.796  53.588  1.00  0.00    -0.206 OA
BRANCH   3   6
HETATM    6  C9  UNL     1      24.013   2.547  51.259  1.00  0.00     0.074 A 
HETATM    7  C10 UNL     1      24.386   3.352  50.205  1.00  0.00     0.026 A 
HETATM    8  C11 UNL     1      23.842   3.403  48.935  1.00  0.00     0.025 A 
HETATM    9  C12 UNL     1      22.792   2.539  48.698  1.00  0.00     0.034 A 
HETATM   10 CL1  UNL     1      22.118   2.631  47.059  1.00  0.00    -0.084 Cl
HETATM   11  C13 UNL     1      22.334   1.676  49.703  1.00  0.00     0.025 A 
HETATM   12  C14 UNL     1      22.962   1.711  50.955  1.00  0.00     0.026 A 
ENDBRANCH   3   6
ENDBRANCH   1   3
BRANCH   1  13
HETATM   13  P1  UNL     1      26.603   0.209  52.534  1.00  0.00    -0.005 P 
HETATM   14  C1  UNL     1      26.651  -1.302  52.340  1.00  0.00    -0.144 A 
HETATM   15  C2  UNL     1      26.724  -2.630  52.182  1.00  0.00     0.092 A 
HETATM   16  C3  UNL     1      28.290  -2.043  52.893  1.00  0.00    -0.025 A 
HETATM   17  C8  UNL     1      26.791  -0.981  52.439  1.00  0.00     0.055 A 
HETATM   18  C4  UNL     1      29.617  -1.586  53.489  1.00  0.00     0.038 A 
HETATM   19  C5  UNL     1      28.988  -0.539  53.389  1.00  0.00     0.023 A 
HETATM   20  C7  UNL     1      26.597   0.656  52.595  1.00  0.00     0.047 A 
HETATM   21  C6  UNL     1      28.208   0.771  53.266  1.00  0.00     0.075 A 
HETATM   22 BR1  UNL     1      28.834   2.472  53.817  1.00  0.00    -0.077 Br
ENDBRANCH   1  13
TORSDOF 5
ENDMDL
MODEL 2
REMARK VINA RESULT:      -8.1      4.190      6.321
REMARK  5 active torsions:
REMARK  status: ('A' for Active; 'I' for Inactive)
REMARK    1  A    between atoms: S1_2  and  N1_4 
REMARK    2  A    between atoms: S1_2  and  C9_15 
REMARK    3  A    between atoms: N1_4  and  P1_5 
REMARK    4  A    between atoms: C5_10  and  C6_11 
REMARK    5  A    between atoms: C7_13  and  C8_14 
ROOT
HETATM    1  N1  UNL     1      23.068   1.895  50.304  1.00  0.00    -0.187 NA
HETATM    2  H1  UNL     1      22.067   2.196  50.539  1.00  0.00     0.145 HD
ENDROOT
BRANCH   1   3
HETATM    3  S1  UNL     1      24.055   2.854  51.352  1.00  0.00     0.245 S 
HETATM    4  O1  UNL     1      24.517   3.992  50.576  1.00  0.00    -0.206 OA
HETATM    5  O2  UNL     1      23.087   3.474  52.417  1.00  0.00    -0.206 OA
BRANCH   3   6
HETATM    6  C9  UNL     1      25.285   2.010  52.216  1.00  0.00     0.074 A 
HETATM    7  C10 UNL     1      26.088   1.032  51.671  1.00  0.00     0.026 A 
HETATM    8  C11 UNL     1      27.091   0.308  52.289  1.00  0.00     0.025 A 
HETATM    9  C12 UNL     1      27.311   0.604  53.619  1.00  0.00     0.034 A 
HETATM   10 CL1  UNL     1      28.603  -0.343  54.380  1.00  0.00    -0.084 Cl
HETATM   11  C13 UNL     1      26.550   1.584  54.269  1.00  0.00     0.025 A 
HETATM   12  C14 UNL     1      25.557   2.256  53.543  1.00  0.00     0.026 A 
ENDBRANCH   3   6
ENDBRANCH   1   3
BRANCH   1  13
HETATM   13  P1  UNL     1      22.290   0.667  52.418  1.00  0.00    -0.005 P 
HETATM   14  C1  UNL     1      21.853  -0.051  53.689  1.00  0.00    -0.144 A 
HETATM   15  C2  UNL     1      21.439  -0.685  54.793  1.00  0.00     0.092 A 
HETATM   16  C3  UNL     1      20.047  -0.574  53.632  1.00  0.00    -0.025 A 
HETATM   17  C8  UNL     1      21.798   0.088  53.357  1.00  0.00     0.055 A 
HETATM   18  C4  UNL     1      18.856  -0.499  52.681  1.00  0.00     0.038 A 
HETATM   19  C5  UNL     1      19.745   0.058  52.048  1.00  0.00     0.023 A 
HETATM   20  C7  UNL     1      22.411   0.878  52.038  1.00  0.00     0.047 A 
HETATM   21  C6  UNL     1      20.852   0.755  51.254  1.00  0.00     0.075 A 
HETATM   22 BR1  UNL     1      20.670   1.444  49.499  1.00  0.00    -0.077 Br
ENDBRANCH   1  13
TORSDOF 5
ENDMDL
MODEL 3
REMARK VINA RESULT:      -8.1      3.745      6.113
REMARK  5 active torsions:
REMARK  status: ('A' for Active; 'I' for Inactive)
REMARK    1  A    between atoms: S1_2  and  N1_4 
REMARK    2  A    between atoms: S1_2  and  C9_15 
REMARK    3  A    between atoms: N1_4  and  P1_5 
REMARK    4  A    between atoms: C5_10  and  C6_11 
REMARK    5  A    between atoms: C7_13  and  C8_14 
ROOT
HETATM    1  N1  UNL     1      24.389   3.726  52.316  1.00  0.00    -0.187 NA
HETATM    2  H1  UNL     1      24.680   3.411  53.298  1.00  0.00     0.145 HD
ENDROOT
BRANCH   1   3
HETATM    3  S1  UNL     1      25.439   2.842  51.262  1.00  0.00     0.245 S 
HETATM    4  O1  UNL     1      24.598   2.202  50.265  1.00  0.00    -0.206 OA
HETATM    5  O2  UNL     1      26.253   3.912  50.458  1.00  0.00    -0.206 OA
BRANCH   3   6
HETATM    6  C9  UNL     1      26.583   1.804  52.027  1.00  0.00     0.074 A 
HETATM    7  C10 UNL     1      26.562   0.429  51.947  1.00  0.00     0.026 A 
HETATM    8  C11 UNL     1      27.434  -0.473  52.528  1.00  0.00     0.025 A 
HETATM    9  C12 UNL     1      28.449   0.076  53.284  1.00  0.00     0.034 A 
HETATM   10 CL1  UNL     1      29.548  -1.109  54.015  1.00  0.00    -0.084 Cl
HETATM   11  C13 UNL     1      28.562   1.466  53.430  1.00  0.00     0.025 A 
HETATM   12  C14 UNL     1      27.619   2.286  52.795  1.00  0.00     0.026 A 
ENDBRANCH   3   6
ENDBRANCH   1   3
BRANCH   1  13
HETATM   13  P1  UNL     1      23.282   1.472  52.844  1.00  0.00    -0.005 P 
HETATM   14  C1  UNL     1      22.651   0.125  53.172  1.00  0.00    -0.144 A 
HETATM   15  C2  UNL     1      22.066  -1.047  53.454  1.00  0.00     0.092 A 
HETATM   16  C3  UNL     1      20.781   0.141  52.966  1.00  0.00    -0.025 A 
HETATM   17  C8  UNL     1      22.640   0.474  53.070  1.00  0.00     0.055 A 
HETATM   18  C4  UNL     1      19.675   1.111  52.562  1.00  0.00     0.038 A 
HETATM   19  C5  UNL     1      20.687   1.795  52.465  1.00  0.00     0.023 A 
HETATM   20  C7  UNL     1      23.461   1.874  52.744  1.00  0.00     0.047 A 
HETATM   21  C6  UNL     1      21.947   2.654  52.343  1.00  0.00     0.075 A 
HETATM   22 BR1  UNL     1      21.990   4.456  51.760  1.00  0.00    -0.077 Br
ENDBRANCH   1  13
TORSDOF 5
ENDMDL
MODEL 4
REMARK VINA RESULT:      -8.1      3.573      6.449
REMARK  5 active torsions:
REMARK  status: ('A' for Active; 'I' for Inactive)
REMARK    1  A    between atoms: S1_2  and  N1_4 
REMARK    2  A    between atoms: S1_2  and  C9_15 
REMARK    3  A    between atoms: N1_4  and  P1_5 
REMARK    4  A    between atoms: C5_10  and  C6_11 
REMARK    5  A    between atoms: C7_13  and  C8_14 
ROOT
HETATM    1  N1  UNL     1      23.516   1.966  50.824  1.00  0.00    -0.187 NA
HETATM    2  H1  UNL     1      24.217   1.343  50.306  1.00  0.00     0.145 HD
ENDROOT
BRANCH   1   3
HETATM    3  S1  UNL     1      24.211   2.168  52.395  1.00  0.00     0.245 S 
HETATM    4  O1  UNL     1      24.194   3.592  52.687  1.00  0.00    -0.206 OA
HETATM    5  O2  UNL     1      23.190   1.550  53.408  1.00  0.00    -0.206 OA
BRANCH   3   6
HETATM    6  C9  UNL     1      25.725   1.386  52.660  1.00  0.00     0.074 A 
HETATM    7  C10 UNL     1      26.829   1.995  53.215  1.00  0.00     0.026 A 
HETATM    8  C11 UNL     1      28.074   1.446  53.458  1.00  0.00     0.025 A 
HETATM    9  C12 UNL     1      28.227   0.122  53.098  1.00  0.00     0.034 A 
HETATM   10 CL1  UNL     1      29.836  -0.550  53.424  1.00  0.00    -0.084 Cl
HETATM   11  C13 UNL     1      27.164  -0.590  52.526  1.00  0.00     0.025 A 
HETATM   12  C14 UNL     1      25.944   0.070  52.324  1.00  0.00     0.026 A 
ENDBRANCH   3   6
ENDBRANCH   1   3
BRANCH   1  13
HETATM   13  P1  UNL     1      25.451   3.411  49.956  1.00  0.00    -0.005 P 
HETATM   14  C1  UNL     1      26.619   4.244  49.444  1.00  0.00    -0.144 A 
HETATM   15  C2  UNL     1      27.625   4.998  48.981  1.00  0.00     0.092 A 
HETATM   16  C3  UNL     1      26.053   5.801  48.553  1.00  0.00    -0.025 A 
HETATM   17  C8  UNL     1      26.266   4.172  49.492  1.00  0.00     0.055 A 
HETATM   18  C4  UNL     1      24.753   6.504  48.177  1.00  0.00     0.038 A 
HETATM   19  C5  UNL     1      24.361   5.506  48.771  1.00  0.00     0.023 A 
HETATM   20  C7  UNL     1      25.099   3.171  50.105  1.00  0.00     0.047 A 
HETATM   21  C6  UNL     1      23.867   4.262  49.511  1.00  0.00     0.075 A 
HETATM   22 BR1  UNL     1      22.053   3.846  49.861  1.00  0.00    -0.077 Br
ENDBRANCH   1  13
TORSDOF 5
ENDMDL
MODEL 5
REMARK VINA RESULT:      -8.0      3.837      4.883
REMARK  5 active torsions:
REMARK  status: ('A' for Active; 'I' for Inactive)
REMARK    1  A    between atoms: S1_2  and  N1_4 
REMARK    2  A    between atoms: S1_2  and  C9_15 
REMARK    3  A    between atoms: N1_4  and  P1_5 
REMARK    4  A    between atoms: C5_10  and  C6_11 
REMARK    5  A    between atoms: C7_13  and  C8_14 
ROOT
HETATM    1  N1  UNL     1      22.138   3.531  51.532  1.00  0.00    -0.187 NA
HETATM    2  H1  UNL     1      22.967   3.978  52.044  1.00  0.00     0.145 HD
ENDROOT
BRANCH   1   3
HETATM    3  S1  UNL     1      22.763   3.156  49.963  1.00  0.00     0.245 S 
HETATM    4  O1  UNL     1      22.668   1.715  49.803  1.00  0.00    -0.206 OA
HETATM    5  O2  UNL     1      21.734   3.732  48.933  1.00  0.00    -0.206 OA
BRANCH   3   6
HETATM    6  C9  UNL     1      24.301   3.834  49.578  1.00  0.00     0.074 A 
HETATM    7  C10 UNL     1      25.490   3.139  49.616  1.00  0.00     0.026 A 
HETATM    8  C11 UNL     1      26.759   3.604  49.328  1.00  0.00     0.025 A 
HETATM    9  C12 UNL     1      26.843   4.930  48.957  1.00  0.00     0.034 A 
HETATM   10 CL1  UNL     1      28.485   5.493  48.594  1.00  0.00    -0.084 Cl
HETATM   11  C13 UNL     1      25.691   5.726  48.885  1.00  0.00     0.025 A 
HETATM   12  C14 UNL     1      24.454   5.149  49.201  1.00  0.00     0.026 A 
ENDBRANCH   3   6
ENDBRANCH   1   3
BRANCH   1  13
HETATM   13  P1  UNL     1      23.680   1.682  52.416  1.00  0.00    -0.005 P 
HETATM   14  C1  UNL     1      24.622   0.601  52.935  1.00  0.00    -0.144 A 
HETATM   15  C2  UNL     1      25.423  -0.363  53.406  1.00  0.00     0.092 A 
HETATM   16  C3  UNL     1      23.728  -0.691  53.970  1.00  0.00    -0.025 A 
HETATM   17  C8  UNL     1      24.297   0.761  52.899  1.00  0.00     0.055 A 
HETATM   18  C4  UNL     1      22.317  -0.997  54.463  1.00  0.00     0.038 A 
HETATM   19  C5  UNL     1      22.162   0.031  53.812  1.00  0.00     0.023 A 
HETATM   20  C7  UNL     1      23.395   1.997  52.266  1.00  0.00     0.047 A 
HETATM   21  C6  UNL     1      21.963   1.312  53.002  1.00  0.00     0.075 A 
HETATM   22 BR1  UNL     1      20.301   2.173  52.709  1.00  0.00    -0.077 Br
ENDBRANCH   1  13
TORSDOF 5
ENDMDL
MODEL 6
REMARK VINA RESULT:      -7.9      3.538      4.782
REMARK  5 active torsions:
REMARK  status: ('A' for Active; 'I' for Inactive)
REMARK    1  A    between atoms: S1_2  and  N1_4 
REMARK    2  A    between atoms: S1_2  and  C9_15 
REMARK    3  A    between atoms: N1_4  and  P1_5 
REMARK    4  A    between atoms: C5_10  and  C6_11 
REMARK    5  A    between atoms: C7_13  and  C8_14 
ROOT
HETATM    1  N1  UNL     1      25.256   1.599  51.567  1.00  0.00    -0.187 NA
HETATM    2  H1  UNL     1      24.790   0.775  51.065  1.00  0.00     0.145 HD
ENDROOT
BRANCH   1   3
HETATM    3  S1  UNL     1      24.461   2.992  50.917  1.00  0.00     0.245 S 
HETATM    4  O1  UNL     1      23.288   2.516  50.204  1.00  0.00    -0.206 OA
HETATM    5  O2  UNL     1      23.883   3.776  52.142  1.00  0.00    -0.206 OA
BRANCH   3   6
HETATM    6  C9  UNL     1      25.456   4.089  50.035  1.00  0.00     0.074 A 
HETATM    7  C10 UNL     1      26.673   3.763  49.479  1.00  0.00     0.026 A 
HETATM    8  C11 UNL     1      27.531   4.577  48.763  1.00  0.00     0.025 A 
HETATM    9  C12 UNL     1      27.114   5.881  48.588  1.00  0.00     0.034 A 
HETATM   10 CL1  UNL     1      28.238   6.897  47.667  1.00  0.00    -0.084 Cl
HETATM   11  C13 UNL     1      25.890   6.317  49.114  1.00  0.00     0.025 A 
HETATM   12  C14 UNL     1      25.100   5.402  49.824  1.00  0.00     0.026 A 
ENDBRANCH   3   6
ENDBRANCH   1   3
BRANCH   1  13
HETATM   13  P1  UNL     1      23.027   1.060  52.718  1.00  0.00    -0.005 P 
HETATM   14  C1  UNL     1      21.688   0.755  53.378  1.00  0.00    -0.144 A 
HETATM   15  C2  UNL     1      20.526   0.464  53.977  1.00  0.00     0.092 A 
HETATM   16  C3  UNL     1      21.816  -0.621  54.655  1.00  0.00    -0.025 A 
HETATM   17  C8  UNL     1      22.045   0.706  53.324  1.00  0.00     0.055 A 
HETATM   18  C4  UNL     1      22.873  -1.548  55.246  1.00  0.00     0.038 A 
HETATM   19  C5  UNL     1      23.514  -0.883  54.441  1.00  0.00     0.023 A 
HETATM   20  C7  UNL     1      23.428   1.145  52.528  1.00  0.00     0.047 A 
HETATM   21  C6  UNL     1      24.319  -0.055  53.437  1.00  0.00     0.075 A 
HETATM   22 BR1  UNL     1      26.184  -0.205  53.143  1.00  0.00    -0.077 Br
ENDBRANCH   1  13
TORSDOF 5
ENDMDL
MODEL 7
REMARK VINA RESULT:      -7.9      3.120      3.840
REMARK  5 active torsions:
REMARK  status: ('A' for Active; 'I' for Inactive)
REMARK    1  A    between atoms: S1_2  and  N1_4 
REMARK    2  A    between atoms: S1_2  and  C9_15 
REMARK    3  A    between atoms: N1_4  and  P1_5 
REMARK    4  A    between atoms: C5_10  and  C6_11 
REMARK    5  A    between atoms: C7_13  and  C8_14 
ROOT
HETATM    1  N1  UNL     1      23.859   2.639  50.430  1.00  0.00    -0.187 NA
HETATM    2  H1  UNL     1      23.607   1.631  50.170  1.00  0.00     0.145 HD
ENDROOT
BRANCH   1   3
HETATM    3  S1  UNL     1      22.564   3.147  51.459  1.00  0.00     0.245 S 
HETATM    4  O1  UNL     1      23.168   3.779  52.620  1.00  0.00    -0.206 OA
HETATM    5  O2  UNL     1      21.842   4.316  50.709  1.00  0.00    -0.206 OA
BRANCH   3   6
HETATM    6  C9  UNL     1      21.369   1.957  51.816  1.00  0.00     0.074 A 
HETATM    7  C10 UNL     1      21.044   1.535  53.086  1.00  0.00     0.026 A 
HETATM    8  C11 UNL     1      20.106   0.590  53.458  1.00  0.00     0.025 A 
HETATM    9  C12 UNL     1      19.411  -0.004  52.425  1.00  0.00     0.034 A 
HETATM   10 CL1  UNL     1      18.217  -1.212  52.937  1.00  0.00    -0.084 Cl
HETATM   11  C13 UNL     1      19.665   0.353  51.093  1.00  0.00     0.025 A 
HETATM   12  C14 UNL     1      20.641   1.325  50.833  1.00  0.00     0.026 A 
ENDBRANCH   3   6
ENDBRANCH   1   3
BRANCH   1  13
HETATM   13  P1  UNL     1      24.554   1.075  52.341  1.00  0.00    -0.005 P 
HETATM   14  C1  UNL     1      24.939   0.132  53.475  1.00  0.00    -0.144 A 
HETATM   15  C2  UNL     1      25.308  -0.690  54.466  1.00  0.00     0.092 A 
HETATM   16  C3  UNL     1      26.799   0.054  53.743  1.00  0.00    -0.025 A 
HETATM   17  C8  UNL     1      25.011   0.366  53.206  1.00  0.00     0.055 A 
HETATM   18  C4  UNL     1      28.072   0.659  53.160  1.00  0.00     0.038 A 
HETATM   19  C5  UNL     1      27.191   1.174  52.482  1.00  0.00     0.023 A 
HETATM   20  C7  UNL     1      24.449   1.356  52.005  1.00  0.00     0.047 A 
HETATM   21  C6  UNL     1      26.095   1.821  51.634  1.00  0.00     0.075 A 
HETATM   22 BR1  UNL     1      26.382   3.095  50.263  1.00  0.00    -0.077 Br
ENDBRANCH   1  13
TORSDOF 5
ENDMDL
MODEL 8
REMARK VINA RESULT:      -7.8      2.981      3.765
REMARK  5 active torsions:
REMARK  status: ('A' for Active; 'I' for Inactive)
REMARK    1  A    between atoms: S1_2  and  N1_4 
REMARK    2  A    between atoms: S1_2  and  C9_15 
REMARK    3  A    between atoms: N1_4  and  P1_5 
REMARK    4  A    between atoms: C5_10  and  C6_11 
REMARK    5  A    between atoms: C7_13  and  C8_14 
ROOT
HETATM    1  N1  UNL     1      23.950   3.805  50.596  1.00  0.00    -0.187 NA
HETATM    2  H1  UNL     1      23.769   2.917  50.024  1.00  0.00     0.145 HD
ENDROOT
BRANCH   1   3
HETATM    3  S1  UNL     1      22.419   4.158  51.321  1.00  0.00     0.245 S 
HETATM    4  O1  UNL     1      22.678   4.508  52.707  1.00  0.00    -0.206 OA
HETATM    5  O2  UNL     1      21.923   5.492  50.667  1.00  0.00    -0.206 OA
BRANCH   3   6
HETATM    6  C9  UNL     1      21.179   2.984  51.083  1.00  0.00     0.074 A 
HETATM    7  C10 UNL     1      20.307   2.564  52.062  1.00  0.00     0.026 A 
HETATM    8  C11 UNL     1      19.292   1.631  51.958  1.00  0.00     0.025 A 
HETATM    9  C12 UNL     1      19.137   1.049  50.716  1.00  0.00     0.034 A 
HETATM   10 CL1  UNL     1      17.827  -0.142  50.618  1.00  0.00    -0.084 Cl
HETATM   11  C13 UNL     1      19.973   1.407  49.650  1.00  0.00     0.025 A 
HETATM   12  C14 UNL     1      20.971   2.366  49.871  1.00  0.00     0.026 A 
ENDBRANCH   3   6
ENDBRANCH   1   3
BRANCH   1  13
HETATM   13  P1  UNL     1      24.038   1.766  52.150  1.00  0.00    -0.005 P 
HETATM   14  C1  UNL     1      24.058   0.554  53.074  1.00  0.00    -0.144 A 
HETATM   15  C2  UNL     1      24.107  -0.517  53.877  1.00  0.00     0.092 A 
HETATM   16  C3  UNL     1      25.728  -0.313  53.081  1.00  0.00    -0.025 A 
HETATM   17  C8  UNL     1      24.206   0.785  52.835  1.00  0.00     0.055 A 
HETATM   18  C4  UNL     1      27.100  -0.173  52.432  1.00  0.00     0.038 A 
HETATM   19  C5  UNL     1      26.477   0.770  51.958  1.00  0.00     0.023 A 
HETATM   20  C7  UNL     1      24.040   2.123  51.875  1.00  0.00     0.047 A 
HETATM   21  C6  UNL     1      25.704   1.948  51.363  1.00  0.00     0.075 A 
HETATM   22 BR1  UNL     1      26.417   3.232  50.167  1.00  0.00    -0.077 Br
ENDBRANCH   1  13
TORSDOF 5
ENDMDL
MODEL 9
REMARK VINA RESULT:      -7.7      4.120      5.175
REMARK  5 active torsions:
REMARK  status: ('A' for Active; 'I' for Inactive)
REMARK    1  A    between atoms: S1_2  and  N1_4 
REMARK    2  A    between atoms: S1_2  and  C9_15 
REMARK    3  A    between atoms: N1_4  and  P1_5 
REMARK    4  A    between atoms: C5_10  and  C6_11 
REMARK    5  A    between atoms: C7_13  and  C8_14 
ROOT
HETATM    1  N1  UNL     1      24.018   4.860  51.042  1.00  0.00    -0.187 NA
HETATM    2  H1  UNL     1      24.944   5.090  51.528  1.00  0.00     0.145 HD
ENDROOT
BRANCH   1   3
HETATM    3  S1  UNL     1      24.456   4.635  49.384  1.00  0.00     0.245 S 
HETATM    4  O1  UNL     1      24.273   3.225  49.084  1.00  0.00    -0.206 OA
HETATM    5  O2  UNL     1      23.354   5.360  48.539  1.00  0.00    -0.206 OA
BRANCH   3   6
HETATM    6  C9  UNL     1      25.976   5.293  48.906  1.00  0.00     0.074 A 
HETATM    7  C10 UNL     1      27.154   4.581  48.865  1.00  0.00     0.026 A 
HETATM    8  C11 UNL     1      28.410   5.029  48.498  1.00  0.00     0.025 A 
HETATM    9  C12 UNL     1      28.489   6.356  48.130  1.00  0.00     0.034 A 
HETATM   10 CL1  UNL     1      30.114   6.897  47.667  1.00  0.00    -0.084 Cl
HETATM   11  C13 UNL     1      27.348   7.170  48.136  1.00  0.00     0.025 A 
HETATM   12  C14 UNL     1      26.125   6.608  48.527  1.00  0.00     0.026 A 
ENDBRANCH   3   6
ENDBRANCH   1   3
BRANCH   1  13
HETATM   13  P1  UNL     1      25.292   2.682  51.509  1.00  0.00    -0.005 P 
HETATM   14  C1  UNL     1      26.075   1.403  51.778  1.00  0.00    -0.144 A 
HETATM   15  C2  UNL     1      26.738   0.267  52.031  1.00  0.00     0.092 A 
HETATM   16  C3  UNL     1      25.093   0.161  52.793  1.00  0.00    -0.025 A 
HETATM   17  C8  UNL     1      25.783   1.619  51.804  1.00  0.00     0.055 A 
HETATM   18  C4  UNL     1      23.720   0.037  53.446  1.00  0.00     0.038 A 
HETATM   19  C5  UNL     1      23.677   1.149  52.931  1.00  0.00     0.023 A 
HETATM   20  C7  UNL     1      25.052   3.057  51.433  1.00  0.00     0.047 A 
HETATM   21  C6  UNL     1      23.619   2.536  52.290  1.00  0.00     0.075 A 
HETATM   22 BR1  UNL     1      22.120   3.693  52.323  1.00  0.00    -0.077 Br
ENDBRANCH   1  13
TORSDOF 5
ENDMDL
