MODEL 1
REMARK VINA RESULT:      -8.2      0.000      0.000
REMARK  8 active torsions:
REMARK  status: ('A' for Active; 'I' for Inactive)
REMARK    1  A    between atoms: C2_2  and  N1_10 
REMARK    2  A    between atoms: C3_3  and  C4_4 
REMARK    3  A    between atoms: C5_5  and  C6_6 
REMARK    4  A    between atoms: N1_10  and  C7_11 
REMARK    5  A    between atoms: C7_11  and  C8_12 
REMARK    6  A    between atoms: C9_14  and  C10_15 
REMARK    7  A    between atoms: C10_15  and  O1_16 
REMARK    8  A    between atoms: O1_16  and  C11_17 
ROOT
HETATM    1  C8  UNL     1      26.621   4.760  49.151  1.00  0.00     0.190 A 
HETATM    2  N2  UNL     1      27.934   4.594  48.823  1.00  0.00    -0.205 NA
HETATM    3  C9  UNL     1      28.373   5.739  48.236  1.00  0.00     0.180 A 
HETATM    4  N3  UNL     1      27.318   6.561  48.227  1.00  0.00    -0.109 NA
HETATM    5  O2  UNL     1      26.302   5.955  48.773  1.00  0.00    -0.194 OA
ENDROOT
BRANCH   1   6
HETATM    6  C7  UNL     1      25.804   3.692  49.822  1.00  0.00     0.208 C 
BRANCH   6   7
HETATM    7  N1  UNL     1      26.354   3.454  51.126  1.00  0.00    -0.386 N 
HETATM    8  H7  UNL     1      26.904   4.179  51.622  1.00  0.00     0.159 HD
BRANCH   7   9
HETATM    9  C2  UNL     1      26.182   2.239  51.800  1.00  0.00     0.001 C 
HETATM   10  C1  UNL     1      25.132   2.166  52.855  1.00  0.00     0.068 C 
HETATM   11  C3  UNL     1      26.864   1.125  51.600  1.00  0.00     0.024 C 
BRANCH  11  12
HETATM   12  C4  UNL     1      26.582  -0.069  52.372  1.00  0.00     0.007 C 
HETATM   13  C5  UNL     1      27.420  -0.648  53.201  1.00  0.00     0.088 C 
BRANCH  13  14
HETATM   14  C6  UNL     1      28.809  -0.337  53.612  1.00  0.00     0.408 C 
HETATM   15  F1  UNL     1      29.636  -1.360  53.142  1.00  0.00    -0.167 F 
HETATM   16  F2  UNL     1      29.263   0.879  53.166  1.00  0.00    -0.167 F 
HETATM   17  F3  UNL     1      28.873  -0.368  54.992  1.00  0.00    -0.167 F 
ENDBRANCH  13  14
ENDBRANCH  11  12
ENDBRANCH   7   9
ENDBRANCH   6   7
ENDBRANCH   1   6
BRANCH   3  18
HETATM   18  C10 UNL     1      29.763   6.000  47.715  1.00  0.00     0.258 C 
BRANCH  18  19
HETATM   19  O1  UNL     1      30.631   5.032  48.203  1.00  0.00    -0.340 OA
BRANCH  19  20
HETATM   20  C11 UNL     1      31.996   5.026  48.190  1.00  0.00     0.112 A 
HETATM   21  C12 UNL     1      32.636   4.054  47.450  1.00  0.00     0.069 A 
HETATM   22 CL1  UNL     1      31.712   2.865  46.554  1.00  0.00    -0.081 Cl
HETATM   23  C13 UNL     1      34.019   3.981  47.386  1.00  0.00     0.027 A 
HETATM   24  C14 UNL     1      34.800   4.905  48.082  1.00  0.00     0.003 A 
HETATM   25  C15 UNL     1      34.171   5.889  48.831  1.00  0.00     0.027 A 
HETATM   26  C16 UNL     1      32.791   5.930  48.871  1.00  0.00     0.069 A 
HETATM   27 CL2  UNL     1      32.031   7.174  49.818  1.00  0.00    -0.081 Cl
ENDBRANCH  19  20
ENDBRANCH  18  19
ENDBRANCH   3  18
TORSDOF 8
ENDMDL
MODEL 2
REMARK VINA RESULT:      -8.2      0.193      1.778
REMARK  8 active torsions:
REMARK  status: ('A' for Active; 'I' for Inactive)
REMARK    1  A    between atoms: C2_2  and  N1_10 
REMARK    2  A    between atoms: C3_3  and  C4_4 
REMARK    3  A    between atoms: C5_5  and  C6_6 
REMARK    4  A    between atoms: N1_10  and  C7_11 
REMARK    5  A    between atoms: C7_11  and  C8_12 
REMARK    6  A    between atoms: C9_14  and  C10_15 
REMARK    7  A    between atoms: C10_15  and  O1_16 
REMARK    8  A    between atoms: O1_16  and  C11_17 
ROOT
HETATM    1  C8  UNL     1      26.613   4.658  49.177  1.00  0.00     0.190 A 
HETATM    2  N2  UNL     1      27.924   4.536  48.820  1.00  0.00    -0.205 NA
HETATM    3  C9  UNL     1      28.327   5.713  48.273  1.00  0.00     0.180 A 
HETATM    4  N3  UNL     1      27.253   6.510  48.314  1.00  0.00    -0.109 NA
HETATM    5  O2  UNL     1      26.261   5.859  48.852  1.00  0.00    -0.194 OA
ENDROOT
BRANCH   1   6
HETATM    6  C7  UNL     1      25.832   3.546  49.817  1.00  0.00     0.208 C 
BRANCH   6   7
HETATM    7  N1  UNL     1      26.237   3.441  51.191  1.00  0.00    -0.386 N 
HETATM    8  H7  UNL     1      26.626   4.253  51.704  1.00  0.00     0.159 HD
BRANCH   7   9
HETATM    9  C2  UNL     1      26.133   2.246  51.913  1.00  0.00     0.001 C 
HETATM   10  C1  UNL     1      25.278   2.238  53.133  1.00  0.00     0.068 C 
HETATM   11  C3  UNL     1      26.722   1.099  51.624  1.00  0.00     0.024 C 
BRANCH  11  12
HETATM   12  C4  UNL     1      26.527  -0.069  52.461  1.00  0.00     0.007 C 
HETATM   13  C5  UNL     1      27.433  -0.585  53.261  1.00  0.00     0.088 C 
BRANCH  13  14
HETATM   14  C6  UNL     1      28.832  -0.213  53.572  1.00  0.00     0.408 C 
HETATM   15  F1  UNL     1      29.671  -1.142  52.953  1.00  0.00    -0.167 F 
HETATM   16  F2  UNL     1      29.170   1.059  53.186  1.00  0.00    -0.167 F 
HETATM   17  F3  UNL     1      29.025  -0.341  54.934  1.00  0.00    -0.167 F 
ENDBRANCH  13  14
ENDBRANCH  11  12
ENDBRANCH   7   9
ENDBRANCH   6   7
ENDBRANCH   1   6
BRANCH   3  18
HETATM   18  C10 UNL     1      29.700   6.027  47.740  1.00  0.00     0.258 C 
BRANCH  18  19
HETATM   19  O1  UNL     1      30.633   5.189  48.337  1.00  0.00    -0.340 OA
BRANCH  19  20
HETATM   20  C11 UNL     1      31.989   5.168  48.177  1.00  0.00     0.112 A 
HETATM   21  C12 UNL     1      32.733   6.143  48.807  1.00  0.00     0.069 A 
HETATM   22 CL1  UNL     1      31.951   7.370  49.782  1.00  0.00    -0.081 Cl
HETATM   23  C13 UNL     1      34.114   6.189  48.694  1.00  0.00     0.027 A 
HETATM   24  C14 UNL     1      34.785   5.234  47.928  1.00  0.00     0.003 A 
HETATM   25  C15 UNL     1      34.050   4.247  47.288  1.00  0.00     0.027 A 
HETATM   26  C16 UNL     1      32.675   4.233  47.424  1.00  0.00     0.069 A 
HETATM   27 CL2  UNL     1      31.780   2.984  46.611  1.00  0.00    -0.081 Cl
ENDBRANCH  19  20
ENDBRANCH  18  19
ENDBRANCH   3  18
TORSDOF 8
ENDMDL
MODEL 3
REMARK VINA RESULT:      -8.0      5.048      6.559
REMARK  8 active torsions:
REMARK  status: ('A' for Active; 'I' for Inactive)
REMARK    1  A    between atoms: C2_2  and  N1_10 
REMARK    2  A    between atoms: C3_3  and  C4_4 
REMARK    3  A    between atoms: C5_5  and  C6_6 
REMARK    4  A    between atoms: N1_10  and  C7_11 
REMARK    5  A    between atoms: C7_11  and  C8_12 
REMARK    6  A    between atoms: C9_14  and  C10_15 
REMARK    7  A    between atoms: C10_15  and  O1_16 
REMARK    8  A    between atoms: O1_16  and  C11_17 
ROOT
HETATM    1  C8  UNL     1      20.595   1.753  52.462  1.00  0.00     0.190 A 
HETATM    2  N2  UNL     1      21.425   2.135  51.449  1.00  0.00    -0.205 NA
HETATM    3  C9  UNL     1      21.367   3.488  51.340  1.00  0.00     0.180 A 
HETATM    4  N3  UNL     1      20.507   3.885  52.285  1.00  0.00    -0.109 NA
HETATM    5  O2  UNL     1      20.070   2.839  52.928  1.00  0.00    -0.194 OA
ENDROOT
BRANCH   1   6
HETATM    6  C7  UNL     1      20.406   0.319  52.869  1.00  0.00     0.208 C 
BRANCH   6   7
HETATM    7  N1  UNL     1      21.597  -0.408  52.532  1.00  0.00    -0.386 N 
HETATM    8  H7  UNL     1      21.711  -0.859  51.606  1.00  0.00     0.159 HD
BRANCH   7   9
HETATM    9  C2  UNL     1      22.666  -0.549  53.425  1.00  0.00     0.001 C 
HETATM   10  C1  UNL     1      22.352  -0.872  54.845  1.00  0.00     0.068 C 
HETATM   11  C3  UNL     1      23.951  -0.423  53.140  1.00  0.00     0.024 C 
BRANCH  11  12
HETATM   12  C4  UNL     1      24.960  -0.596  54.167  1.00  0.00     0.007 C 
HETATM   13  C5  UNL     1      26.223  -0.879  53.943  1.00  0.00     0.088 C 
BRANCH  13  14
HETATM   14  C6  UNL     1      27.003  -1.103  52.704  1.00  0.00     0.408 C 
HETATM   15  F1  UNL     1      26.494  -2.243  52.077  1.00  0.00    -0.167 F 
HETATM   16  F2  UNL     1      26.988  -0.040  51.836  1.00  0.00    -0.167 F 
HETATM   17  F3  UNL     1      28.309  -1.385  53.055  1.00  0.00    -0.167 F 
ENDBRANCH  13  14
ENDBRANCH  11  12
ENDBRANCH   7   9
ENDBRANCH   6   7
ENDBRANCH   1   6
BRANCH   3  18
HETATM   18  C10 UNL     1      22.123   4.338  50.352  1.00  0.00     0.258 C 
BRANCH  18  19
HETATM   19  O1  UNL     1      23.373   4.651  50.869  1.00  0.00    -0.340 OA
BRANCH  19  20
HETATM   20  C11 UNL     1      24.580   4.675  50.231  1.00  0.00     0.112 A 
HETATM   21  C12 UNL     1      25.373   3.550  50.296  1.00  0.00     0.069 A 
HETATM   22 CL1  UNL     1      24.838   2.132  51.176  1.00  0.00    -0.081 Cl
HETATM   23  C13 UNL     1      26.611   3.497  49.674  1.00  0.00     0.027 A 
HETATM   24  C14 UNL     1      27.082   4.600  48.961  1.00  0.00     0.003 A 
HETATM   25  C15 UNL     1      26.296   5.740  48.886  1.00  0.00     0.027 A 
HETATM   26  C16 UNL     1      25.068   5.756  49.519  1.00  0.00     0.069 A 
HETATM   27 CL2  UNL     1      24.103   7.198  49.409  1.00  0.00    -0.081 Cl
ENDBRANCH  19  20
ENDBRANCH  18  19
ENDBRANCH   3  18
TORSDOF 8
ENDMDL
MODEL 4
REMARK VINA RESULT:      -7.9      5.991      7.346
REMARK  8 active torsions:
REMARK  status: ('A' for Active; 'I' for Inactive)
REMARK    1  A    between atoms: C2_2  and  N1_10 
REMARK    2  A    between atoms: C3_3  and  C4_4 
REMARK    3  A    between atoms: C5_5  and  C6_6 
REMARK    4  A    between atoms: N1_10  and  C7_11 
REMARK    5  A    between atoms: C7_11  and  C8_12 
REMARK    6  A    between atoms: C9_14  and  C10_15 
REMARK    7  A    between atoms: C10_15  and  O1_16 
REMARK    8  A    between atoms: O1_16  and  C11_17 
ROOT
HETATM    1  C8  UNL     1      22.922   3.254  52.143  1.00  0.00     0.190 A 
HETATM    2  N2  UNL     1      23.368   2.350  53.062  1.00  0.00    -0.205 NA
HETATM    3  C9  UNL     1      24.678   2.095  52.806  1.00  0.00     0.180 A 
HETATM    4  N3  UNL     1      24.986   2.849  51.744  1.00  0.00    -0.109 NA
HETATM    5  O2  UNL     1      23.930   3.519  51.378  1.00  0.00    -0.194 OA
ENDROOT
BRANCH   1   6
HETATM    6  C7  UNL     1      21.512   3.771  52.121  1.00  0.00     0.208 C 
BRANCH   6   7
HETATM    7  N1  UNL     1      20.751   2.972  51.201  1.00  0.00    -0.386 N 
HETATM    8  H7  UNL     1      20.512   3.318  50.254  1.00  0.00     0.159 HD
BRANCH   7   9
HETATM    9  C2  UNL     1      20.291   1.691  51.527  1.00  0.00     0.001 C 
HETATM   10  C1  UNL     1      20.001   0.748  50.410  1.00  0.00     0.068 C 
HETATM   11  C3  UNL     1      20.081   1.216  52.742  1.00  0.00     0.024 C 
BRANCH  11  12
HETATM   12  C4  UNL     1      19.601  -0.138  52.938  1.00  0.00     0.007 C 
HETATM   13  C5  UNL     1      20.242  -1.080  53.592  1.00  0.00     0.088 C 
BRANCH  13  14
HETATM   14  C6  UNL     1      21.546  -1.111  54.294  1.00  0.00     0.408 C 
HETATM   15  F1  UNL     1      21.530  -0.117  55.276  1.00  0.00    -0.167 F 
HETATM   16  F2  UNL     1      21.847  -2.326  54.857  1.00  0.00    -0.167 F 
HETATM   17  F3  UNL     1      22.535  -0.770  53.392  1.00  0.00    -0.167 F 
ENDBRANCH  13  14
ENDBRANCH  11  12
ENDBRANCH   7   9
ENDBRANCH   6   7
ENDBRANCH   1   6
BRANCH   3  18
HETATM   18  C10 UNL     1      25.572   1.156  53.573  1.00  0.00     0.258 C 
BRANCH  18  19
HETATM   19  O1  UNL     1      26.558   0.661  52.730  1.00  0.00    -0.340 OA
BRANCH  19  20
HETATM   20  C11 UNL     1      27.771   0.126  53.056  1.00  0.00     0.112 A 
HETATM   21  C12 UNL     1      27.932  -1.238  52.943  1.00  0.00     0.069 A 
HETATM   22 CL1  UNL     1      26.609  -2.249  52.395  1.00  0.00    -0.081 Cl
HETATM   23  C13 UNL     1      29.133  -1.857  53.253  1.00  0.00     0.027 A 
HETATM   24  C14 UNL     1      30.217  -1.096  53.694  1.00  0.00     0.003 A 
HETATM   25  C15 UNL     1      30.071   0.278  53.813  1.00  0.00     0.027 A 
HETATM   26  C16 UNL     1      28.859   0.859  53.494  1.00  0.00     0.069 A 
HETATM   27 CL2  UNL     1      28.704   2.583  53.653  1.00  0.00    -0.081 Cl
ENDBRANCH  19  20
ENDBRANCH  18  19
ENDBRANCH   3  18
TORSDOF 8
ENDMDL
MODEL 5
REMARK VINA RESULT:      -7.7      3.239      4.202
REMARK  8 active torsions:
REMARK  status: ('A' for Active; 'I' for Inactive)
REMARK    1  A    between atoms: C2_2  and  N1_10 
REMARK    2  A    between atoms: C3_3  and  C4_4 
REMARK    3  A    between atoms: C5_5  and  C6_6 
REMARK    4  A    between atoms: N1_10  and  C7_11 
REMARK    5  A    between atoms: C7_11  and  C8_12 
REMARK    6  A    between atoms: C9_14  and  C10_15 
REMARK    7  A    between atoms: C10_15  and  O1_16 
REMARK    8  A    between atoms: O1_16  and  C11_17 
ROOT
HETATM    1  C8  UNL     1      26.334   4.315  49.514  1.00  0.00     0.190 A 
HETATM    2  N2  UNL     1      26.206   5.628  49.168  1.00  0.00    -0.205 NA
HETATM    3  C9  UNL     1      27.360   6.024  48.569  1.00  0.00     0.180 A 
HETATM    4  N3  UNL     1      28.150   4.944  48.570  1.00  0.00    -0.109 NA
HETATM    5  O2  UNL     1      27.516   3.955  49.133  1.00  0.00    -0.194 OA
ENDROOT
BRANCH   1   6
HETATM    6  C7  UNL     1      25.246   3.539  50.200  1.00  0.00     0.208 C 
BRANCH   6   7
HETATM    7  N1  UNL     1      25.695   3.201  51.521  1.00  0.00    -0.386 N 
HETATM    8  H7  UNL     1      25.960   3.932  52.205  1.00  0.00     0.159 HD
BRANCH   7   9
HETATM    9  C2  UNL     1      25.801   1.875  51.958  1.00  0.00     0.001 C 
HETATM   10  C1  UNL     1      24.658   1.296  52.718  1.00  0.00     0.068 C 
HETATM   11  C3  UNL     1      26.827   1.064  51.768  1.00  0.00     0.024 C 
BRANCH  11  12
HETATM   12  C4  UNL     1      26.806  -0.293  52.277  1.00  0.00     0.007 C 
HETATM   13  C5  UNL     1      27.652  -0.784  53.155  1.00  0.00     0.088 C 
BRANCH  13  14
HETATM   14  C6  UNL     1      28.812  -0.204  53.870  1.00  0.00     0.408 C 
HETATM   15  F1  UNL     1      28.346   0.357  55.062  1.00  0.00    -0.167 F 
HETATM   16  F2  UNL     1      29.813  -1.105  54.132  1.00  0.00    -0.167 F 
HETATM   17  F3  UNL     1      29.321   0.832  53.110  1.00  0.00    -0.167 F 
ENDBRANCH  13  14
ENDBRANCH  11  12
ENDBRANCH   7   9
ENDBRANCH   6   7
ENDBRANCH   1   6
BRANCH   3  18
HETATM   18  C10 UNL     1      27.660   7.398  48.028  1.00  0.00     0.258 C 
BRANCH  18  19
HETATM   19  O1  UNL     1      28.018   8.241  49.072  1.00  0.00    -0.340 OA
BRANCH  19  20
HETATM   20  C11 UNL     1      28.622   9.463  49.015  1.00  0.00     0.112 A 
HETATM   21  C12 UNL     1      29.996   9.516  49.116  1.00  0.00     0.069 A 
HETATM   22 CL1  UNL     1      30.931   8.047  49.313  1.00  0.00    -0.081 Cl
HETATM   23  C13 UNL     1      30.683  10.719  49.065  1.00  0.00     0.027 A 
HETATM   24  C14 UNL     1      29.984  11.916  48.910  1.00  0.00     0.003 A 
HETATM   25  C15 UNL     1      28.601  11.880  48.807  1.00  0.00     0.027 A 
HETATM   26  C16 UNL     1      27.951  10.663  48.861  1.00  0.00     0.069 A 
HETATM   27 CL2  UNL     1      26.217  10.648  48.730  1.00  0.00    -0.081 Cl
ENDBRANCH  19  20
ENDBRANCH  18  19
ENDBRANCH   3  18
TORSDOF 8
ENDMDL
MODEL 6
REMARK VINA RESULT:      -7.6      5.795      7.808
REMARK  8 active torsions:
REMARK  status: ('A' for Active; 'I' for Inactive)
REMARK    1  A    between atoms: C2_2  and  N1_10 
REMARK    2  A    between atoms: C3_3  and  C4_4 
REMARK    3  A    between atoms: C5_5  and  C6_6 
REMARK    4  A    between atoms: N1_10  and  C7_11 
REMARK    5  A    between atoms: C7_11  and  C8_12 
REMARK    6  A    between atoms: C9_14  and  C10_15 
REMARK    7  A    between atoms: C10_15  and  O1_16 
REMARK    8  A    between atoms: O1_16  and  C11_17 
ROOT
HETATM    1  C8  UNL     1      21.482   1.352  53.024  1.00  0.00     0.190 A 
HETATM    2  N2  UNL     1      22.770   0.945  52.835  1.00  0.00    -0.205 NA
HETATM    3  C9  UNL     1      23.020  -0.083  53.688  1.00  0.00     0.180 A 
HETATM    4  N3  UNL     1      21.880  -0.269  54.365  1.00  0.00    -0.109 NA
HETATM    5  O2  UNL     1      20.995   0.592  53.950  1.00  0.00    -0.194 OA
ENDROOT
BRANCH   1   6
HETATM    6  C7  UNL     1      20.856   2.475  52.247  1.00  0.00     0.208 C 
BRANCH   6   7
HETATM    7  N1  UNL     1      21.634   2.694  51.060  1.00  0.00    -0.386 N 
HETATM    8  H7  UNL     1      21.536   2.082  50.229  1.00  0.00     0.159 HD
BRANCH   7   9
HETATM    9  C2  UNL     1      22.563   3.735  50.956  1.00  0.00     0.001 C 
HETATM   10  C1  UNL     1      22.689   4.678  52.102  1.00  0.00     0.068 C 
HETATM   11  C3  UNL     1      23.359   3.980  49.929  1.00  0.00     0.024 C 
BRANCH  11  12
HETATM   12  C4  UNL     1      24.280   5.099  49.952  1.00  0.00     0.007 C 
HETATM   13  C5  UNL     1      25.586   5.004  49.846  1.00  0.00     0.088 C 
BRANCH  13  14
HETATM   14  C6  UNL     1      26.504   3.853  49.683  1.00  0.00     0.408 C 
HETATM   15  F1  UNL     1      27.527   4.239  48.814  1.00  0.00    -0.167 F 
HETATM   16  F2  UNL     1      27.034   3.392  50.862  1.00  0.00    -0.167 F 
HETATM   17  F3  UNL     1      25.814   2.829  49.063  1.00  0.00    -0.167 F 
ENDBRANCH  13  14
ENDBRANCH  11  12
ENDBRANCH   7   9
ENDBRANCH   6   7
ENDBRANCH   1   6
BRANCH   3  18
HETATM   18  C10 UNL     1      24.317  -0.837  53.822  1.00  0.00     0.258 C 
BRANCH  18  19
HETATM   19  O1  UNL     1      25.247  -0.324  52.928  1.00  0.00    -0.340 OA
BRANCH  19  20
HETATM   20  C11 UNL     1      26.518   0.112  53.173  1.00  0.00     0.112 A 
HETATM   21  C12 UNL     1      27.550  -0.794  53.056  1.00  0.00     0.069 A 
HETATM   22 CL1  UNL     1      27.231  -2.456  52.605  1.00  0.00    -0.081 Cl
HETATM   23  C13 UNL     1      28.867  -0.429  53.288  1.00  0.00     0.027 A 
HETATM   24  C14 UNL     1      29.175   0.884  53.650  1.00  0.00     0.003 A 
HETATM   25  C15 UNL     1      28.147   1.807  53.772  1.00  0.00     0.027 A 
HETATM   26  C16 UNL     1      26.847   1.406  53.533  1.00  0.00     0.069 A 
HETATM   27 CL2  UNL     1      25.578   2.584  53.694  1.00  0.00    -0.081 Cl
ENDBRANCH  19  20
ENDBRANCH  18  19
ENDBRANCH   3  18
TORSDOF 8
ENDMDL
MODEL 7
REMARK VINA RESULT:      -7.6      3.950      5.135
REMARK  8 active torsions:
REMARK  status: ('A' for Active; 'I' for Inactive)
REMARK    1  A    between atoms: C2_2  and  N1_10 
REMARK    2  A    between atoms: C3_3  and  C4_4 
REMARK    3  A    between atoms: C5_5  and  C6_6 
REMARK    4  A    between atoms: N1_10  and  C7_11 
REMARK    5  A    between atoms: C7_11  and  C8_12 
REMARK    6  A    between atoms: C9_14  and  C10_15 
REMARK    7  A    between atoms: C10_15  and  O1_16 
REMARK    8  A    between atoms: O1_16  and  C11_17 
ROOT
HETATM    1  C8  UNL     1      23.027   1.736  51.538  1.00  0.00     0.190 A 
HETATM    2  N2  UNL     1      23.789   2.794  51.139  1.00  0.00    -0.205 NA
HETATM    3  C9  UNL     1      23.098   3.484  50.194  1.00  0.00     0.180 A 
HETATM    4  N3  UNL     1      21.942   2.826  50.048  1.00  0.00    -0.109 NA
HETATM    5  O2  UNL     1      21.931   1.802  50.854  1.00  0.00    -0.194 OA
ENDROOT
BRANCH   1   6
HETATM    6  C7  UNL     1      23.475   0.750  52.579  1.00  0.00     0.208 C 
BRANCH   6   7
HETATM    7  N1  UNL     1      24.874   0.489  52.382  1.00  0.00    -0.386 N 
HETATM    8  H7  UNL     1      25.288   0.452  51.433  1.00  0.00     0.159 HD
BRANCH   7   9
HETATM    9  C2  UNL     1      25.752   0.271  53.451  1.00  0.00     0.001 C 
HETATM   10  C1  UNL     1      25.326  -0.669  54.525  1.00  0.00     0.068 C 
HETATM   11  C3  UNL     1      26.942   0.821  53.615  1.00  0.00     0.024 C 
BRANCH  11  12
HETATM   12  C4  UNL     1      27.753   0.505  54.774  1.00  0.00     0.007 C 
HETATM   13  C5  UNL     1      28.869  -0.188  54.750  1.00  0.00     0.088 C 
BRANCH  13  14
HETATM   14  C6  UNL     1      29.631  -0.834  53.656  1.00  0.00     0.408 C 
HETATM   15  F1  UNL     1      30.696  -1.533  54.229  1.00  0.00    -0.167 F 
HETATM   16  F2  UNL     1      28.879  -1.676  52.875  1.00  0.00    -0.167 F 
HETATM   17  F3  UNL     1      30.178   0.155  52.862  1.00  0.00    -0.167 F 
ENDBRANCH  13  14
ENDBRANCH  11  12
ENDBRANCH   7   9
ENDBRANCH   6   7
ENDBRANCH   1   6
BRANCH   3  18
HETATM   18  C10 UNL     1      23.560   4.725  49.477  1.00  0.00     0.258 C 
BRANCH  18  19
HETATM   19  O1  UNL     1      24.740   5.181  50.050  1.00  0.00    -0.340 OA
BRANCH  19  20
HETATM   20  C11 UNL     1      25.868   5.640  49.434  1.00  0.00     0.112 A 
HETATM   21  C12 UNL     1      26.845   4.727  49.101  1.00  0.00     0.069 A 
HETATM   22 CL1  UNL     1      26.635   3.025  49.464  1.00  0.00    -0.081 Cl
HETATM   23  C13 UNL     1      28.019   5.114  48.472  1.00  0.00     0.027 A 
HETATM   24  C14 UNL     1      28.234   6.457  48.161  1.00  0.00     0.003 A 
HETATM   25  C15 UNL     1      27.260   7.389  48.490  1.00  0.00     0.027 A 
HETATM   26  C16 UNL     1      26.104   6.965  49.116  1.00  0.00     0.069 A 
HETATM   27 CL2  UNL     1      24.901   8.155  49.516  1.00  0.00    -0.081 Cl
ENDBRANCH  19  20
ENDBRANCH  18  19
ENDBRANCH   3  18
TORSDOF 8
ENDMDL
MODEL 8
REMARK VINA RESULT:      -7.6      3.330      4.448
REMARK  8 active torsions:
REMARK  status: ('A' for Active; 'I' for Inactive)
REMARK    1  A    between atoms: C2_2  and  N1_10 
REMARK    2  A    between atoms: C3_3  and  C4_4 
REMARK    3  A    between atoms: C5_5  and  C6_6 
REMARK    4  A    between atoms: N1_10  and  C7_11 
REMARK    5  A    between atoms: C7_11  and  C8_12 
REMARK    6  A    between atoms: C9_14  and  C10_15 
REMARK    7  A    between atoms: C10_15  and  O1_16 
REMARK    8  A    between atoms: O1_16  and  C11_17 
ROOT
HETATM    1  C8  UNL     1      26.212   4.695  49.498  1.00  0.00     0.190 A 
HETATM    2  N2  UNL     1      26.451   6.000  49.182  1.00  0.00    -0.205 NA
HETATM    3  C9  UNL     1      27.675   6.077  48.596  1.00  0.00     0.180 A 
HETATM    4  N3  UNL     1      28.140   4.823  48.575  1.00  0.00    -0.109 NA
HETATM    5  O2  UNL     1      27.254   4.033  49.113  1.00  0.00    -0.194 OA
ENDROOT
BRANCH   1   6
HETATM    6  C7  UNL     1      24.947   4.232  50.163  1.00  0.00     0.208 C 
BRANCH   6   7
HETATM    7  N1  UNL     1      25.272   3.768  51.482  1.00  0.00    -0.386 N 
HETATM    8  H7  UNL     1      25.833   4.345  52.135  1.00  0.00     0.159 HD
BRANCH   7   9
HETATM    9  C2  UNL     1      24.856   2.520  51.960  1.00  0.00     0.001 C 
HETATM   10  C1  UNL     1      23.726   1.845  51.262  1.00  0.00     0.068 C 
HETATM   11  C3  UNL     1      25.366   1.860  52.986  1.00  0.00     0.024 C 
BRANCH  11  12
HETATM   12  C4  UNL     1      24.836   0.568  53.376  1.00  0.00     0.007 C 
HETATM   13  C5  UNL     1      25.446  -0.582  53.201  1.00  0.00     0.088 C 
BRANCH  13  14
HETATM   14  C6  UNL     1      26.752  -0.950  52.607  1.00  0.00     0.408 C 
HETATM   15  F1  UNL     1      26.812  -0.399  51.325  1.00  0.00    -0.167 F 
HETATM   16  F2  UNL     1      27.835  -0.546  53.346  1.00  0.00    -0.167 F 
HETATM   17  F3  UNL     1      26.791  -2.323  52.458  1.00  0.00    -0.167 F 
ENDBRANCH  13  14
ENDBRANCH  11  12
ENDBRANCH   7   9
ENDBRANCH   6   7
ENDBRANCH   1   6
BRANCH   3  18
HETATM   18  C10 UNL     1      28.345   7.327  48.087  1.00  0.00     0.258 C 
BRANCH  18  19
HETATM   19  O1  UNL     1      28.430   8.259  49.113  1.00  0.00    -0.340 OA
BRANCH  19  20
HETATM   20  C11 UNL     1      28.930   9.529  49.074  1.00  0.00     0.112 A 
HETATM   21  C12 UNL     1      28.047  10.571  48.884  1.00  0.00     0.069 A 
HETATM   22 CL1  UNL     1      26.333  10.262  48.697  1.00  0.00    -0.081 Cl
HETATM   23  C13 UNL     1      28.477  11.888  48.834  1.00  0.00     0.027 A 
HETATM   24  C14 UNL     1      29.833  12.186  48.977  1.00  0.00     0.003 A 
HETATM   25  C15 UNL     1      30.734  11.149  49.169  1.00  0.00     0.027 A 
HETATM   26  C16 UNL     1      30.268   9.849  49.213  1.00  0.00     0.069 A 
HETATM   27 CL2  UNL     1      31.420   8.569  49.455  1.00  0.00    -0.081 Cl
ENDBRANCH  19  20
ENDBRANCH  18  19
ENDBRANCH   3  18
TORSDOF 8
ENDMDL
MODEL 9
REMARK VINA RESULT:      -7.5      4.024      8.249
REMARK  8 active torsions:
REMARK  status: ('A' for Active; 'I' for Inactive)
REMARK    1  A    between atoms: C2_2  and  N1_10 
REMARK    2  A    between atoms: C3_3  and  C4_4 
REMARK    3  A    between atoms: C5_5  and  C6_6 
REMARK    4  A    between atoms: N1_10  and  C7_11 
REMARK    5  A    between atoms: C7_11  and  C8_12 
REMARK    6  A    between atoms: C9_14  and  C10_15 
REMARK    7  A    between atoms: C10_15  and  O1_16 
REMARK    8  A    between atoms: O1_16  and  C11_17 
ROOT
HETATM    1  C8  UNL     1      27.372   5.763  48.620  1.00  0.00     0.190 A 
HETATM    2  N2  UNL     1      27.630   4.471  48.973  1.00  0.00    -0.205 NA
HETATM    3  C9  UNL     1      26.550   3.990  49.644  1.00  0.00     0.180 A 
HETATM    4  N3  UNL     1      25.674   5.001  49.678  1.00  0.00    -0.109 NA
HETATM    5  O2  UNL     1      26.188   6.030  49.066  1.00  0.00    -0.194 OA
ENDROOT
BRANCH   1   6
HETATM    6  C7  UNL     1      28.350   6.615  47.861  1.00  0.00     0.208 C 
BRANCH   6   7
HETATM    7  N1  UNL     1      29.350   7.083  48.778  1.00  0.00    -0.386 N 
HETATM    8  H7  UNL     1      29.136   7.806  49.488  1.00  0.00     0.159 HD
BRANCH   7   9
HETATM    9  C2  UNL     1      30.662   6.595  48.767  1.00  0.00     0.001 C 
HETATM   10  C1  UNL     1      31.679   7.305  49.592  1.00  0.00     0.068 C 
HETATM   11  C3  UNL     1      31.107   5.551  48.090  1.00  0.00     0.024 C 
BRANCH  11  12
HETATM   12  C4  UNL     1      32.499   5.151  48.170  1.00  0.00     0.007 C 
HETATM   13  C5  UNL     1      33.050   4.191  47.464  1.00  0.00     0.088 C 
BRANCH  13  14
HETATM   14  C6  UNL     1      32.521   3.261  46.439  1.00  0.00     0.408 C 
HETATM   15  F1  UNL     1      33.343   2.132  46.418  1.00  0.00    -0.167 F 
HETATM   16  F2  UNL     1      31.216   2.890  46.644  1.00  0.00    -0.167 F 
HETATM   17  F3  UNL     1      32.633   3.865  45.202  1.00  0.00    -0.167 F 
ENDBRANCH  13  14
ENDBRANCH  11  12
ENDBRANCH   7   9
ENDBRANCH   6   7
ENDBRANCH   1   6
BRANCH   3  18
HETATM   18  C10 UNL     1      26.399   2.606  50.218  1.00  0.00     0.258 C 
BRANCH  18  19
HETATM   19  O1  UNL     1      25.846   2.688  51.489  1.00  0.00    -0.340 OA
BRANCH  19  20
HETATM   20  C11 UNL     1      25.021   1.803  52.121  1.00  0.00     0.112 A 
HETATM   21  C12 UNL     1      23.717   2.183  52.356  1.00  0.00     0.069 A 
HETATM   22 CL1  UNL     1      23.144   3.761  51.854  1.00  0.00    -0.081 Cl
HETATM   23  C13 UNL     1      22.817   1.341  52.991  1.00  0.00     0.027 A 
HETATM   24  C14 UNL     1      23.224   0.073  53.411  1.00  0.00     0.003 A 
HETATM   25  C15 UNL     1      24.533  -0.324  53.182  1.00  0.00     0.027 A 
HETATM   26  C16 UNL     1      25.401   0.543  52.546  1.00  0.00     0.069 A 
HETATM   27 CL2  UNL     1      27.036   0.019  52.272  1.00  0.00    -0.081 Cl
ENDBRANCH  19  20
ENDBRANCH  18  19
ENDBRANCH   3  18
TORSDOF 8
ENDMDL
