MODEL 1
REMARK VINA RESULT:      -9.2      0.000      0.000
REMARK  5 active torsions:
REMARK  status: ('A' for Active; 'I' for Inactive)
REMARK    1  A    between atoms: O1_2  and  C2_3 
REMARK    2  A    between atoms: C7_9  and  N1_10 
REMARK    3  A    between atoms: N1_10  and  C8_11 
REMARK    4  A    between atoms: C12_15  and  C13_16 
REMARK    5  A    between atoms: C16_20  and  C17_21 
ROOT
HETATM    1  C8  UNL     1      19.585  -0.982  53.454  1.00  0.00     0.033 C 
HETATM    2  C9  UNL     1      20.546  -1.500  54.199  1.00  0.00     0.027 C 
HETATM    3  C10 UNL     1      21.992  -1.386  54.103  1.00  0.00     0.001 C 
HETATM    4  C11 UNL     1      22.587  -0.519  53.312  1.00  0.00     0.013 C 
HETATM    5  C12 UNL     1      22.031   0.497  52.382  1.00  0.00     0.216 C 
HETATM    6  O2  UNL     1      20.731   0.847  52.590  1.00  0.00    -0.368 OA
HETATM    7  C22 UNL     1      19.779  -0.094  52.255  1.00  0.00     0.226 C 
ENDROOT
BRANCH   5   8
HETATM    8  C13 UNL     1      22.884   1.706  52.557  1.00  0.00     0.159 A 
HETATM    9  N2  UNL     1      22.656   3.022  52.433  1.00  0.00    -0.243 NA
HETATM   10  C14 UNL     1      23.596   3.956  52.672  1.00  0.00     0.121 A 
HETATM   11  C15 UNL     1      24.833   3.480  53.063  1.00  0.00     0.052 A 
HETATM   12  C16 UNL     1      25.143   2.151  53.216  1.00  0.00     0.072 A 
HETATM   13  N4  UNL     1      24.103   1.359  52.938  1.00  0.00    -0.230 NA
BRANCH  12  14
HETATM   14  C17 UNL     1      26.417   1.620  53.665  1.00  0.00     0.010 A 
HETATM   15  C18 UNL     1      27.675   2.086  53.525  1.00  0.00     0.017 A 
HETATM   16  C19 UNL     1      28.815   1.499  54.020  1.00  0.00     0.020 A 
HETATM   17  C20 UNL     1      28.617   0.310  54.728  1.00  0.00     0.116 A 
HETATM   18  N3  UNL     1      27.409  -0.212  54.908  1.00  0.00    -0.272 NA
HETATM   19  C21 UNL     1      26.344   0.423  54.392  1.00  0.00     0.130 A 
ENDBRANCH  12  14
ENDBRANCH   5   8
BRANCH   1  20
HETATM   20  N1  UNL     1      18.266  -1.304  53.837  1.00  0.00    -0.356 N 
HETATM   21  H7  UNL     1      17.935  -0.747  54.688  1.00  0.00     0.166 HD
BRANCH  20  22
HETATM   22  C7  UNL     1      17.278  -2.198  53.340  1.00  0.00     0.066 A 
HETATM   23  C2  UNL     1      16.192  -1.877  52.526  1.00  0.00     0.096 A 
HETATM   24  C3  UNL     1      15.359  -2.900  52.141  1.00  0.00     0.062 A 
HETATM   25  C4  UNL     1      15.573  -4.201  52.535  1.00  0.00     0.036 A 
HETATM   26 CL1  UNL     1      14.514  -5.519  52.071  1.00  0.00    -0.084 Cl
HETATM   27  C5  UNL     1      16.627  -4.562  53.335  1.00  0.00     0.026 A 
HETATM   28  C6  UNL     1      17.480  -3.526  53.731  1.00  0.00     0.034 A 
BRANCH  23  29
HETATM   29  O1  UNL     1      16.079  -0.553  52.194  1.00  0.00    -0.354 OA
HETATM   30  C1  UNL     1      15.147   0.300  52.801  1.00  0.00     0.210 C 
ENDBRANCH  23  29
ENDBRANCH  20  22
ENDBRANCH   1  20
TORSDOF 5
ENDMDL
MODEL 2
REMARK VINA RESULT:      -9.0      5.323      9.146
REMARK  5 active torsions:
REMARK  status: ('A' for Active; 'I' for Inactive)
REMARK    1  A    between atoms: O1_2  and  C2_3 
REMARK    2  A    between atoms: C7_9  and  N1_10 
REMARK    3  A    between atoms: N1_10  and  C8_11 
REMARK    4  A    between atoms: C12_15  and  C13_16 
REMARK    5  A    between atoms: C16_20  and  C17_21 
ROOT
HETATM    1  C8  UNL     1      23.674   4.716  50.120  1.00  0.00     0.033 C 
HETATM    2  C9  UNL     1      23.793   5.197  51.346  1.00  0.00     0.027 C 
HETATM    3  C10 UNL     1      23.181   4.780  52.597  1.00  0.00     0.001 C 
HETATM    4  C11 UNL     1      22.523   3.647  52.725  1.00  0.00     0.013 C 
HETATM    5  C12 UNL     1      22.236   2.568  51.745  1.00  0.00     0.216 C 
HETATM    6  O2  UNL     1      23.028   2.543  50.637  1.00  0.00    -0.368 OA
HETATM    7  C22 UNL     1      22.823   3.545  49.710  1.00  0.00     0.226 C 
ENDROOT
BRANCH   5   8
HETATM    8  C13 UNL     1      22.422   1.293  52.493  1.00  0.00     0.159 A 
HETATM    9  N2  UNL     1      21.576   0.346  52.925  1.00  0.00    -0.243 NA
HETATM   10  C14 UNL     1      21.984  -0.762  53.575  1.00  0.00     0.121 A 
HETATM   11  C15 UNL     1      23.347  -0.877  53.774  1.00  0.00     0.052 A 
HETATM   12  C16 UNL     1      24.274   0.047  53.359  1.00  0.00     0.072 A 
HETATM   13  N4  UNL     1      23.706   1.083  52.736  1.00  0.00    -0.230 NA
BRANCH  12  14
HETATM   14  C17 UNL     1      25.714  -0.063  53.515  1.00  0.00     0.010 A 
HETATM   15  C18 UNL     1      26.639  -0.722  52.788  1.00  0.00     0.017 A 
HETATM   16  C19 UNL     1      27.994  -0.734  53.024  1.00  0.00     0.020 A 
HETATM   17  C20 UNL     1      28.416   0.014  54.127  1.00  0.00     0.116 A 
HETATM   18  N3  UNL     1      27.565   0.690  54.891  1.00  0.00    -0.272 NA
HETATM   19  C21 UNL     1      26.256   0.651  54.593  1.00  0.00     0.130 A 
ENDBRANCH  12  14
ENDBRANCH   5   8
BRANCH   1  20
HETATM   20  N1  UNL     1      24.423   5.375  49.123  1.00  0.00    -0.356 N 
HETATM   21  H7  UNL     1      23.808   5.899  48.422  1.00  0.00     0.166 HD
BRANCH  20  22
HETATM   22  C7  UNL     1      25.813   5.502  48.847  1.00  0.00     0.066 A 
HETATM   23  C2  UNL     1      26.785   4.511  48.973  1.00  0.00     0.096 A 
HETATM   24  C3  UNL     1      28.077   4.837  48.637  1.00  0.00     0.062 A 
HETATM   25  C4  UNL     1      28.418   6.093  48.189  1.00  0.00     0.036 A 
HETATM   26 CL1  UNL     1      30.061   6.537  47.770  1.00  0.00    -0.084 Cl
HETATM   27  C5  UNL     1      27.495   7.098  48.049  1.00  0.00     0.026 A 
HETATM   28  C6  UNL     1      26.176   6.773  48.389  1.00  0.00     0.034 A 
BRANCH  23  29
HETATM   29  O1  UNL     1      26.333   3.300  49.426  1.00  0.00    -0.354 OA
HETATM   30  C1  UNL     1      26.615   2.822  50.714  1.00  0.00     0.210 C 
ENDBRANCH  23  29
ENDBRANCH  20  22
ENDBRANCH   1  20
TORSDOF 5
ENDMDL
MODEL 3
REMARK VINA RESULT:      -8.9      5.722      9.482
REMARK  5 active torsions:
REMARK  status: ('A' for Active; 'I' for Inactive)
REMARK    1  A    between atoms: O1_2  and  C2_3 
REMARK    2  A    between atoms: C7_9  and  N1_10 
REMARK    3  A    between atoms: N1_10  and  C8_11 
REMARK    4  A    between atoms: C12_15  and  C13_16 
REMARK    5  A    between atoms: C16_20  and  C17_21 
ROOT
HETATM    1  C8  UNL     1      23.826   5.171  49.934  1.00  0.00     0.033 C 
HETATM    2  C9  UNL     1      23.732   5.653  51.161  1.00  0.00     0.027 C 
HETATM    3  C10 UNL     1      23.118   5.102  52.358  1.00  0.00     0.001 C 
HETATM    4  C11 UNL     1      22.708   3.853  52.437  1.00  0.00     0.013 C 
HETATM    5  C12 UNL     1      22.744   2.748  51.446  1.00  0.00     0.216 C 
HETATM    6  O2  UNL     1      23.617   2.904  50.411  1.00  0.00    -0.368 OA
HETATM    7  C22 UNL     1      23.283   3.849  49.462  1.00  0.00     0.226 C 
ENDROOT
BRANCH   5   8
HETATM    8  C13 UNL     1      23.132   1.534  52.217  1.00  0.00     0.159 A 
HETATM    9  N2  UNL     1      22.486   0.407  52.550  1.00  0.00    -0.243 NA
HETATM   10  C14 UNL     1      23.060  -0.590  53.250  1.00  0.00     0.121 A 
HETATM   11  C15 UNL     1      24.379  -0.390  53.612  1.00  0.00     0.052 A 
HETATM   12  C16 UNL     1      25.108   0.733  53.307  1.00  0.00     0.072 A 
HETATM   13  N4  UNL     1      24.392   1.622  52.614  1.00  0.00    -0.230 NA
BRANCH  12  14
HETATM   14  C17 UNL     1      26.505   0.956  53.635  1.00  0.00     0.010 A 
HETATM   15  C18 UNL     1      27.341   1.968  53.326  1.00  0.00     0.017 A 
HETATM   16  C19 UNL     1      28.654   2.080  53.718  1.00  0.00     0.020 A 
HETATM   17  C20 UNL     1      29.135   1.031  54.506  1.00  0.00     0.116 A 
HETATM   18  N3  UNL     1      28.373  -0.001  54.852  1.00  0.00    -0.272 NA
HETATM   19  C21 UNL     1      27.099  -0.036  54.429  1.00  0.00     0.130 A 
ENDBRANCH  12  14
ENDBRANCH   5   8
BRANCH   1  20
HETATM   20  N1  UNL     1      24.501   5.985  49.001  1.00  0.00    -0.356 N 
HETATM   21  H7  UNL     1      23.839   6.616  48.448  1.00  0.00     0.166 HD
BRANCH  20  22
HETATM   22  C7  UNL     1      25.865   6.156  48.637  1.00  0.00     0.066 A 
HETATM   23  C2  UNL     1      26.450   7.303  48.100  1.00  0.00     0.096 A 
HETATM   24  C3  UNL     1      27.798   7.266  47.833  1.00  0.00     0.062 A 
HETATM   25  C4  UNL     1      28.559   6.147  48.079  1.00  0.00     0.036 A 
HETATM   26 CL1  UNL     1      30.275   6.070  47.730  1.00  0.00    -0.084 Cl
HETATM   27  C5  UNL     1      28.026   4.998  48.606  1.00  0.00     0.026 A 
HETATM   28  C6  UNL     1      26.654   5.027  48.882  1.00  0.00     0.034 A 
BRANCH  23  29
HETATM   29  O1  UNL     1      25.599   8.357  47.899  1.00  0.00    -0.354 OA
HETATM   30  C1  UNL     1      25.740   9.580  48.570  1.00  0.00     0.210 C 
ENDBRANCH  23  29
ENDBRANCH  20  22
ENDBRANCH   1  20
TORSDOF 5
ENDMDL
MODEL 4
REMARK VINA RESULT:      -8.8      6.979     11.493
REMARK  5 active torsions:
REMARK  status: ('A' for Active; 'I' for Inactive)
REMARK    1  A    between atoms: O1_2  and  C2_3 
REMARK    2  A    between atoms: C7_9  and  N1_10 
REMARK    3  A    between atoms: N1_10  and  C8_11 
REMARK    4  A    between atoms: C12_15  and  C13_16 
REMARK    5  A    between atoms: C16_20  and  C17_21 
ROOT
HETATM    1  C8  UNL     1      26.834   5.820  49.096  1.00  0.00     0.033 C 
HETATM    2  C9  UNL     1      25.629   6.300  49.349  1.00  0.00     0.027 C 
HETATM    3  C10 UNL     1      24.360   5.625  49.565  1.00  0.00     0.001 C 
HETATM    4  C11 UNL     1      24.268   4.324  49.749  1.00  0.00     0.013 C 
HETATM    5  C12 UNL     1      25.310   3.267  49.792  1.00  0.00     0.216 C 
HETATM    6  O2  UNL     1      26.585   3.696  50.009  1.00  0.00    -0.368 OA
HETATM    7  C22 UNL     1      27.196   4.365  48.967  1.00  0.00     0.226 C 
ENDROOT
BRANCH   5   8
HETATM    8  C13 UNL     1      24.915   2.363  50.908  1.00  0.00     0.159 A 
HETATM    9  N2  UNL     1      23.734   2.023  51.445  1.00  0.00    -0.243 NA
HETATM   10  C14 UNL     1      23.614   1.144  52.458  1.00  0.00     0.121 A 
HETATM   11  C15 UNL     1      24.794   0.596  52.925  1.00  0.00     0.052 A 
HETATM   12  C16 UNL     1      26.039   0.892  52.426  1.00  0.00     0.072 A 
HETATM   13  N4  UNL     1      25.982   1.779  51.429  1.00  0.00    -0.230 NA
BRANCH  12  14
HETATM   14  C17 UNL     1      27.293   0.304  52.864  1.00  0.00     0.010 A 
HETATM   15  C18 UNL     1      28.450   0.870  53.262  1.00  0.00     0.017 A 
HETATM   16  C19 UNL     1      29.576   0.200  53.680  1.00  0.00     0.020 A 
HETATM   17  C20 UNL     1      29.478  -1.194  53.678  1.00  0.00     0.116 A 
HETATM   18  N3  UNL     1      28.372  -1.825  53.299  1.00  0.00    -0.272 NA
HETATM   19  C21 UNL     1      27.314  -1.098  52.904  1.00  0.00     0.130 A 
ENDBRANCH  12  14
ENDBRANCH   5   8
BRANCH   1  20
HETATM   20  N1  UNL     1      27.859   6.776  48.938  1.00  0.00    -0.356 N 
HETATM   21  H7  UNL     1      27.926   7.451  49.765  1.00  0.00     0.166 HD
BRANCH  20  22
HETATM   22  C7  UNL     1      28.825   7.039  47.927  1.00  0.00     0.066 A 
HETATM   23  C2  UNL     1      30.133   6.559  47.875  1.00  0.00     0.096 A 
HETATM   24  C3  UNL     1      30.903   6.920  46.795  1.00  0.00     0.062 A 
HETATM   25  C4  UNL     1      30.417   7.725  45.791  1.00  0.00     0.036 A 
HETATM   26 CL1  UNL     1      31.385   8.213  44.413  1.00  0.00    -0.084 Cl
HETATM   27  C5  UNL     1      29.137   8.219  45.800  1.00  0.00     0.026 A 
HETATM   28  C6  UNL     1      28.346   7.855  46.897  1.00  0.00     0.034 A 
BRANCH  23  29
HETATM   29  O1  UNL     1      30.510   5.766  48.926  1.00  0.00    -0.354 OA
HETATM   30  C1  UNL     1      31.716   5.950  49.618  1.00  0.00     0.210 C 
ENDBRANCH  23  29
ENDBRANCH  20  22
ENDBRANCH   1  20
TORSDOF 5
ENDMDL
MODEL 5
REMARK VINA RESULT:      -8.8      5.177      8.373
REMARK  5 active torsions:
REMARK  status: ('A' for Active; 'I' for Inactive)
REMARK    1  A    between atoms: O1_2  and  C2_3 
REMARK    2  A    between atoms: C7_9  and  N1_10 
REMARK    3  A    between atoms: N1_10  and  C8_11 
REMARK    4  A    between atoms: C12_15  and  C13_16 
REMARK    5  A    between atoms: C16_20  and  C17_21 
ROOT
HETATM    1  C8  UNL     1      22.491   3.693  50.238  1.00  0.00     0.033 C 
HETATM    2  C9  UNL     1      21.762   4.214  51.210  1.00  0.00     0.027 C 
HETATM    3  C10 UNL     1      20.959   3.581  52.243  1.00  0.00     0.001 C 
HETATM    4  C11 UNL     1      21.010   2.289  52.494  1.00  0.00     0.013 C 
HETATM    5  C12 UNL     1      21.812   1.205  51.873  1.00  0.00     0.216 C 
HETATM    6  O2  UNL     1      22.908   1.603  51.169  1.00  0.00    -0.368 OA
HETATM    7  C22 UNL     1      22.671   2.225  49.960  1.00  0.00     0.226 C 
ENDROOT
BRANCH   5   8
HETATM    8  C13 UNL     1      22.259   0.344  53.004  1.00  0.00     0.159 A 
HETATM    9  N2  UNL     1      21.607  -0.389  53.919  1.00  0.00    -0.243 NA
HETATM   10  C14 UNL     1      22.236  -1.125  54.854  1.00  0.00     0.121 A 
HETATM   11  C15 UNL     1      23.618  -1.091  54.820  1.00  0.00     0.052 A 
HETATM   12  C16 UNL     1      24.356  -0.370  53.913  1.00  0.00     0.072 A 
HETATM   13  N4  UNL     1      23.581   0.305  53.060  1.00  0.00    -0.230 NA
BRANCH  12  14
HETATM   14  C17 UNL     1      25.805  -0.345  53.823  1.00  0.00     0.010 A 
HETATM   15  C18 UNL     1      26.659  -1.032  53.038  1.00  0.00     0.017 A 
HETATM   16  C19 UNL     1      28.028  -0.905  53.028  1.00  0.00     0.020 A 
HETATM   17  C20 UNL     1      28.549   0.029  53.927  1.00  0.00     0.116 A 
HETATM   18  N3  UNL     1      27.772   0.743  54.734  1.00  0.00    -0.272 NA
HETATM   19  C21 UNL     1      26.443   0.561  54.683  1.00  0.00     0.130 A 
ENDBRANCH  12  14
ENDBRANCH   5   8
BRANCH   1  20
HETATM   20  N1  UNL     1      23.152   4.615  49.400  1.00  0.00    -0.356 N 
HETATM   21  H7  UNL     1      22.474   5.230  48.847  1.00  0.00     0.166 HD
BRANCH  20  22
HETATM   22  C7  UNL     1      24.517   4.912  49.132  1.00  0.00     0.066 A 
HETATM   23  C2  UNL     1      25.028   6.101  48.614  1.00  0.00     0.096 A 
HETATM   24  C3  UNL     1      26.390   6.190  48.445  1.00  0.00     0.062 A 
HETATM   25  C4  UNL     1      27.233   5.153  48.771  1.00  0.00     0.036 A 
HETATM   26 CL1  UNL     1      28.970   5.237  48.549  1.00  0.00    -0.084 Cl
HETATM   27  C5  UNL     1      26.774   3.966  49.284  1.00  0.00     0.026 A 
HETATM   28  C6  UNL     1      25.388   3.868  49.459  1.00  0.00     0.034 A 
BRANCH  23  29
HETATM   29  O1  UNL     1      24.098   7.064  48.328  1.00  0.00    -0.354 OA
HETATM   30  C1  UNL     1      23.791   7.451  47.015  1.00  0.00     0.210 C 
ENDBRANCH  23  29
ENDBRANCH  20  22
ENDBRANCH   1  20
TORSDOF 5
ENDMDL
MODEL 6
REMARK VINA RESULT:      -8.7      7.606     11.916
REMARK  5 active torsions:
REMARK  status: ('A' for Active; 'I' for Inactive)
REMARK    1  A    between atoms: O1_2  and  C2_3 
REMARK    2  A    between atoms: C7_9  and  N1_10 
REMARK    3  A    between atoms: N1_10  and  C8_11 
REMARK    4  A    between atoms: C12_15  and  C13_16 
REMARK    5  A    between atoms: C16_20  and  C17_21 
ROOT
HETATM    1  C8  UNL     1      27.622   5.959  48.384  1.00  0.00     0.033 C 
HETATM    2  C9  UNL     1      26.490   6.616  48.571  1.00  0.00     0.027 C 
HETATM    3  C10 UNL     1      25.180   6.155  48.999  1.00  0.00     0.001 C 
HETATM    4  C11 UNL     1      24.974   4.952  49.492  1.00  0.00     0.013 C 
HETATM    5  C12 UNL     1      25.909   3.824  49.737  1.00  0.00     0.216 C 
HETATM    6  O2  UNL     1      27.231   4.146  49.786  1.00  0.00    -0.368 OA
HETATM    7  C22 UNL     1      27.829   4.483  48.589  1.00  0.00     0.226 C 
ENDROOT
BRANCH   5   8
HETATM    8  C13 UNL     1      25.507   3.253  51.053  1.00  0.00     0.159 A 
HETATM    9  N2  UNL     1      24.416   3.384  51.821  1.00  0.00    -0.243 NA
HETATM   10  C14 UNL     1      24.258   2.735  52.990  1.00  0.00     0.121 A 
HETATM   11  C15 UNL     1      25.298   1.905  53.364  1.00  0.00     0.052 A 
HETATM   12  C16 UNL     1      26.444   1.715  52.632  1.00  0.00     0.072 A 
HETATM   13  N4  UNL     1      26.443   2.432  51.505  1.00  0.00    -0.230 NA
BRANCH  12  14
HETATM   14  C17 UNL     1      27.535   0.821  52.974  1.00  0.00     0.010 A 
HETATM   15  C18 UNL     1      28.801   1.070  53.363  1.00  0.00     0.017 A 
HETATM   16  C19 UNL     1      29.749   0.127  53.686  1.00  0.00     0.020 A 
HETATM   17  C20 UNL     1      29.327  -1.202  53.590  1.00  0.00     0.116 A 
HETATM   18  N3  UNL     1      28.095  -1.528  53.214  1.00  0.00    -0.272 NA
HETATM   19  C21 UNL     1      27.228  -0.547  52.915  1.00  0.00     0.130 A 
ENDBRANCH  12  14
ENDBRANCH   5   8
BRANCH   1  20
HETATM   20  N1  UNL     1      28.721   6.732  47.956  1.00  0.00    -0.356 N 
HETATM   21  H7  UNL     1      28.442   7.501  47.267  1.00  0.00     0.166 HD
BRANCH  20  22
HETATM   22  C7  UNL     1      30.115   6.720  48.241  1.00  0.00     0.066 A 
HETATM   23  C2  UNL     1      30.831   7.680  48.955  1.00  0.00     0.096 A 
HETATM   24  C3  UNL     1      32.178   7.469  49.134  1.00  0.00     0.062 A 
HETATM   25  C4  UNL     1      32.813   6.356  48.634  1.00  0.00     0.036 A 
HETATM   26 CL1  UNL     1      34.531   6.074  48.835  1.00  0.00    -0.084 Cl
HETATM   27  C5  UNL     1      32.148   5.386  47.926  1.00  0.00     0.026 A 
HETATM   28  C6  UNL     1      30.776   5.594  47.740  1.00  0.00     0.034 A 
BRANCH  23  29
HETATM   29  O1  UNL     1      30.097   8.744  49.408  1.00  0.00    -0.354 OA
HETATM   30  C1  UNL     1      30.193  10.023  48.842  1.00  0.00     0.210 C 
ENDBRANCH  23  29
ENDBRANCH  20  22
ENDBRANCH   1  20
TORSDOF 5
ENDMDL
MODEL 7
REMARK VINA RESULT:      -8.6      5.193      8.323
REMARK  5 active torsions:
REMARK  status: ('A' for Active; 'I' for Inactive)
REMARK    1  A    between atoms: O1_2  and  C2_3 
REMARK    2  A    between atoms: C7_9  and  N1_10 
REMARK    3  A    between atoms: N1_10  and  C8_11 
REMARK    4  A    between atoms: C12_15  and  C13_16 
REMARK    5  A    between atoms: C16_20  and  C17_21 
ROOT
HETATM    1  C8  UNL     1      22.129   3.525  50.370  1.00  0.00     0.033 C 
HETATM    2  C9  UNL     1      21.283   3.950  51.293  1.00  0.00     0.027 C 
HETATM    3  C10 UNL     1      20.510   3.221  52.285  1.00  0.00     0.001 C 
HETATM    4  C11 UNL     1      20.713   1.948  52.551  1.00  0.00     0.013 C 
HETATM    5  C12 UNL     1      21.685   0.975  51.989  1.00  0.00     0.216 C 
HETATM    6  O2  UNL     1      22.759   1.510  51.345  1.00  0.00    -0.368 OA
HETATM    7  C22 UNL     1      22.514   2.093  50.118  1.00  0.00     0.226 C 
ENDROOT
BRANCH   5   8
HETATM    8  C13 UNL     1      22.172   0.183  53.153  1.00  0.00     0.159 A 
HETATM    9  N2  UNL     1      21.555  -0.503  54.126  1.00  0.00    -0.243 NA
HETATM   10  C14 UNL     1      22.218  -1.181  55.082  1.00  0.00     0.121 A 
HETATM   11  C15 UNL     1      23.598  -1.135  55.006  1.00  0.00     0.052 A 
HETATM   12  C16 UNL     1      24.302  -0.459  54.040  1.00  0.00     0.072 A 
HETATM   13  N4  UNL     1      23.496   0.159  53.173  1.00  0.00    -0.230 NA
BRANCH  12  14
HETATM   14  C17 UNL     1      25.747  -0.426  53.907  1.00  0.00     0.010 A 
HETATM   15  C18 UNL     1      26.567  -0.949  52.972  1.00  0.00     0.017 A 
HETATM   16  C19 UNL     1      27.937  -0.831  52.940  1.00  0.00     0.020 A 
HETATM   17  C20 UNL     1      28.499  -0.098  53.989  1.00  0.00     0.116 A 
HETATM   18  N3  UNL     1      27.757   0.447  54.948  1.00  0.00    -0.272 NA
HETATM   19  C21 UNL     1      26.425   0.287  54.907  1.00  0.00     0.130 A 
ENDBRANCH  12  14
ENDBRANCH   5   8
BRANCH   1  20
HETATM   20  N1  UNL     1      22.712   4.523  49.562  1.00  0.00    -0.356 N 
HETATM   21  H7  UNL     1      22.229   4.621  48.613  1.00  0.00     0.166 HD
BRANCH  20  22
HETATM   22  C7  UNL     1      23.795   5.431  49.731  1.00  0.00     0.066 A 
HETATM   23  C2  UNL     1      25.152   5.153  49.570  1.00  0.00     0.096 A 
HETATM   24  C3  UNL     1      26.042   6.183  49.766  1.00  0.00     0.062 A 
HETATM   25  C4  UNL     1      25.625   7.449  50.109  1.00  0.00     0.036 A 
HETATM   26 CL1  UNL     1      26.741   8.773  50.380  1.00  0.00    -0.084 Cl
HETATM   27  C5  UNL     1      24.301   7.767  50.277  1.00  0.00     0.026 A 
HETATM   28  C6  UNL     1      23.389   6.723  50.079  1.00  0.00     0.034 A 
BRANCH  23  29
HETATM   29  O1  UNL     1      25.450   3.862  49.227  1.00  0.00    -0.354 OA
HETATM   30  C1  UNL     1      26.421   3.106  49.900  1.00  0.00     0.210 C 
ENDBRANCH  23  29
ENDBRANCH  20  22
ENDBRANCH   1  20
TORSDOF 5
ENDMDL
MODEL 8
REMARK VINA RESULT:      -8.6      5.606      8.513
REMARK  5 active torsions:
REMARK  status: ('A' for Active; 'I' for Inactive)
REMARK    1  A    between atoms: O1_2  and  C2_3 
REMARK    2  A    between atoms: C7_9  and  N1_10 
REMARK    3  A    between atoms: N1_10  and  C8_11 
REMARK    4  A    between atoms: C12_15  and  C13_16 
REMARK    5  A    between atoms: C16_20  and  C17_21 
ROOT
HETATM    1  C8  UNL     1      24.063   3.042  52.087  1.00  0.00     0.033 C 
HETATM    2  C9  UNL     1      23.983   2.403  50.932  1.00  0.00     0.027 C 
HETATM    3  C10 UNL     1      23.438   2.818  49.650  1.00  0.00     0.001 C 
HETATM    4  C11 UNL     1      23.099   4.063  49.389  1.00  0.00     0.013 C 
HETATM    5  C12 UNL     1      23.164   5.288  50.225  1.00  0.00     0.216 C 
HETATM    6  O2  UNL     1      23.993   5.231  51.305  1.00  0.00    -0.368 OA
HETATM    7  C22 UNL     1      23.578   4.440  52.358  1.00  0.00     0.226 C 
ENDROOT
BRANCH   5   8
HETATM    8  C13 UNL     1      23.641   6.366  49.315  1.00  0.00     0.159 A 
HETATM    9  N2  UNL     1      23.052   7.439  48.765  1.00  0.00    -0.243 NA
HETATM   10  C14 UNL     1      23.704   8.311  47.973  1.00  0.00     0.121 A 
HETATM   11  C15 UNL     1      25.042   8.041  47.753  1.00  0.00     0.052 A 
HETATM   12  C16 UNL     1      25.716   6.968  48.282  1.00  0.00     0.072 A 
HETATM   13  N4  UNL     1      24.926   6.203  49.039  1.00  0.00    -0.230 NA
BRANCH  12  14
HETATM   14  C17 UNL     1      27.128   6.679  48.105  1.00  0.00     0.010 A 
HETATM   15  C18 UNL     1      28.134   7.427  47.609  1.00  0.00     0.017 A 
HETATM   16  C19 UNL     1      29.453   7.048  47.512  1.00  0.00     0.020 A 
HETATM   17  C20 UNL     1      29.741   5.762  47.977  1.00  0.00     0.116 A 
HETATM   18  N3  UNL     1      28.804   4.965  48.479  1.00  0.00    -0.272 NA
HETATM   19  C21 UNL     1      27.539   5.410  48.540  1.00  0.00     0.130 A 
ENDBRANCH  12  14
ENDBRANCH   5   8
BRANCH   1  20
HETATM   20  N1  UNL     1      24.663   2.329  53.146  1.00  0.00    -0.356 N 
HETATM   21  H7  UNL     1      24.228   2.556  54.096  1.00  0.00     0.166 HD
BRANCH  20  22
HETATM   22  C7  UNL     1      25.712   1.371  53.230  1.00  0.00     0.066 A 
HETATM   23  C2  UNL     1      25.579  -0.017  53.229  1.00  0.00     0.096 A 
HETATM   24  C3  UNL     1      26.729  -0.768  53.302  1.00  0.00     0.062 A 
HETATM   25  C4  UNL     1      27.974  -0.187  53.374  1.00  0.00     0.036 A 
HETATM   26 CL1  UNL     1      29.452  -1.123  53.485  1.00  0.00    -0.084 Cl
HETATM   27  C5  UNL     1      28.151   1.174  53.378  1.00  0.00     0.026 A 
HETATM   28  C6  UNL     1      26.985   1.945  53.303  1.00  0.00     0.034 A 
BRANCH  23  29
HETATM   29  O1  UNL     1      24.294  -0.484  53.152  1.00  0.00    -0.354 OA
HETATM   30  C1  UNL     1      23.544  -0.823  54.287  1.00  0.00     0.210 C 
ENDBRANCH  23  29
ENDBRANCH  20  22
ENDBRANCH   1  20
TORSDOF 5
ENDMDL
MODEL 9
REMARK VINA RESULT:      -8.5      5.160     10.158
REMARK  5 active torsions:
REMARK  status: ('A' for Active; 'I' for Inactive)
REMARK    1  A    between atoms: O1_2  and  C2_3 
REMARK    2  A    between atoms: C7_9  and  N1_10 
REMARK    3  A    between atoms: N1_10  and  C8_11 
REMARK    4  A    between atoms: C12_15  and  C13_16 
REMARK    5  A    between atoms: C16_20  and  C17_21 
ROOT
HETATM    1  C8  UNL     1      25.501   3.047  50.667  1.00  0.00     0.033 C 
HETATM    2  C9  UNL     1      26.384   2.081  50.849  1.00  0.00     0.027 C 
HETATM    3  C10 UNL     1      26.540   1.124  51.931  1.00  0.00     0.001 C 
HETATM    4  C11 UNL     1      25.626   0.945  52.861  1.00  0.00     0.013 C 
HETATM    5  C12 UNL     1      24.304   1.590  53.068  1.00  0.00     0.216 C 
HETATM    6  O2  UNL     1      23.772   2.220  51.984  1.00  0.00    -0.368 OA
HETATM    7  C22 UNL     1      24.375   3.401  51.600  1.00  0.00     0.226 C 
ENDROOT
BRANCH   5   8
HETATM    8  C13 UNL     1      23.386   0.491  53.480  1.00  0.00     0.159 A 
HETATM    9  N2  UNL     1      23.480  -0.504  54.374  1.00  0.00    -0.243 NA
HETATM   10  C14 UNL     1      22.488  -1.387  54.599  1.00  0.00     0.121 A 
HETATM   11  C15 UNL     1      21.341  -1.208  53.847  1.00  0.00     0.052 A 
HETATM   12  C16 UNL     1      21.168  -0.214  52.917  1.00  0.00     0.072 A 
HETATM   13  N4  UNL     1      22.244   0.571  52.815  1.00  0.00    -0.230 NA
BRANCH  12  14
HETATM   14  C17 UNL     1      19.963   0.027  52.143  1.00  0.00     0.010 A 
HETATM   15  C18 UNL     1      19.767   0.686  50.984  1.00  0.00     0.017 A 
HETATM   16  C19 UNL     1      18.567   0.830  50.328  1.00  0.00     0.020 A 
HETATM   17  C20 UNL     1      17.470   0.226  50.948  1.00  0.00     0.116 A 
HETATM   18  N3  UNL     1      17.583  -0.441  52.092  1.00  0.00    -0.272 NA
HETATM   19  C21 UNL     1      18.791  -0.536  52.670  1.00  0.00     0.130 A 
ENDBRANCH  12  14
ENDBRANCH   5   8
BRANCH   1  20
HETATM   20  N1  UNL     1      25.645   3.800  49.483  1.00  0.00    -0.356 N 
HETATM   21  H7  UNL     1      25.077   3.403  48.669  1.00  0.00     0.166 HD
BRANCH  20  22
HETATM   22  C7  UNL     1      26.372   4.972  49.134  1.00  0.00     0.066 A 
HETATM   23  C2  UNL     1      25.930   6.291  49.231  1.00  0.00     0.096 A 
HETATM   24  C3  UNL     1      26.801   7.285  48.855  1.00  0.00     0.062 A 
HETATM   25  C4  UNL     1      28.068   7.008  48.396  1.00  0.00     0.036 A 
HETATM   26 CL1  UNL     1      29.190   8.257  47.895  1.00  0.00    -0.084 Cl
HETATM   27  C5  UNL     1      28.545   5.726  48.284  1.00  0.00     0.026 A 
HETATM   28  C6  UNL     1      27.663   4.708  48.666  1.00  0.00     0.034 A 
BRANCH  23  29
HETATM   29  O1  UNL     1      24.654   6.449  49.702  1.00  0.00    -0.354 OA
HETATM   30  C1  UNL     1      24.363   7.170  50.869  1.00  0.00     0.210 C 
ENDBRANCH  23  29
ENDBRANCH  20  22
ENDBRANCH   1  20
TORSDOF 5
ENDMDL
