MODEL 1
REMARK VINA RESULT:      -8.6      0.000      0.000
REMARK  7 active torsions:
REMARK  status: ('A' for Active; 'I' for Inactive)
REMARK    1  A    between atoms: C7_7  and  N1_8 
REMARK    2  A    between atoms: N1_8  and  C8_9 
REMARK    3  A    between atoms: C12_15  and  N3_16 
REMARK       I    between atoms: N3_16  and  C14_18 
REMARK    4  A    between atoms: C14_18  and  C15_20 
REMARK    5  A    between atoms: C15_20  and  C16_21 
REMARK    6  A    between atoms: C16_21  and  C17_22 
REMARK    7  A    between atoms: C17_22  and  N4_23 
ROOT
HETATM    1  C8  UNL     1      25.454   0.596  53.504  1.00  0.00     0.157 A 
HETATM    2  N2  UNL     1      24.328  -0.039  53.868  1.00  0.00    -0.227 NA
HETATM    3  C9  UNL     1      23.153   0.168  53.249  1.00  0.00     0.089 A 
HETATM    4  C10 UNL     1      22.069  -0.569  53.744  1.00  0.00     0.078 A 
HETATM    5  C11 UNL     1      20.872  -0.356  53.111  1.00  0.00     0.145 A 
HETATM    6  F1  UNL     1      19.728  -0.988  53.464  1.00  0.00    -0.204 F 
HETATM    7  C12 UNL     1      20.759   0.528  52.059  1.00  0.00     0.078 A 
HETATM    8  C20 UNL     1      21.852   1.237  51.601  1.00  0.00     0.065 A 
HETATM    9  C21 UNL     1      23.084   1.064  52.199  1.00  0.00     0.072 A 
HETATM   10  N5  UNL     1      24.217   1.699  51.838  1.00  0.00    -0.299 N 
HETATM   11  C22 UNL     1      24.383   2.604  50.856  1.00  0.00     0.215 A 
HETATM   12  N6  UNL     1      25.680   2.959  50.870  1.00  0.00    -0.253 NA
HETATM   13  C23 UNL     1      26.338   2.284  51.855  1.00  0.00     0.151 A 
HETATM   14  C24 UNL     1      25.391   1.490  52.458  1.00  0.00     0.104 A 
ENDROOT
BRANCH   7  15
HETATM   15  N3  UNL     1      19.570   0.815  51.344  1.00  0.00    -0.316 N 
HETATM   16  C13 UNL     1      18.653   0.328  50.332  1.00  0.00     0.159 C 
HETATM   17  C14 UNL     1      19.154   2.068  51.839  1.00  0.00     0.247 C 
HETATM   18  O1  UNL     1      19.344   3.035  52.611  1.00  0.00    -0.268 OA
BRANCH  17  19
HETATM   19  C15 UNL     1      18.032   2.898  51.522  1.00  0.00     0.072 C 
BRANCH  19  20
HETATM   20  C16 UNL     1      16.973   3.612  51.254  1.00  0.00     0.008 C 
BRANCH  20  21
HETATM   21  C17 UNL     1      15.645   4.196  51.587  1.00  0.00     0.299 C 
BRANCH  21  22
HETATM   22  N4  UNL     1      15.161   3.541  52.777  1.00  0.00     0.083 N 
HETATM   23  C18 UNL     1      14.164   4.382  53.399  1.00  0.00     0.309 C 
HETATM   24  C19 UNL     1      14.558   2.287  52.412  1.00  0.00     0.309 C 
ENDBRANCH  21  22
ENDBRANCH  20  21
ENDBRANCH  19  20
ENDBRANCH  17  19
ENDBRANCH   7  15
BRANCH   1  25
HETATM   25  N1  UNL     1      26.648   0.315  54.212  1.00  0.00    -0.338 N 
HETATM   26  H8  UNL     1      26.723   0.480  55.237  1.00  0.00     0.167 HD
BRANCH  25  27
HETATM   27  C7  UNL     1      27.901  -0.193  53.817  1.00  0.00     0.049 A 
HETATM   28  C2  UNL     1      29.210   0.443  54.046  1.00  0.00    -0.018 A 
HETATM   29  C1  UNL     1      29.378   1.615  54.676  1.00  0.00     0.026 C 
HETATM   30  C3  UNL     1      30.259  -0.421  53.472  1.00  0.00     0.013 A 
HETATM   31  C4  UNL     1      29.621  -1.461  52.959  1.00  0.00     0.010 A 
HETATM   32  C5  UNL     1      28.182  -1.317  53.172  1.00  0.00    -0.034 A 
HETATM   33  C6  UNL     1      27.178  -2.335  52.704  1.00  0.00     0.050 C 
ENDBRANCH  25  27
ENDBRANCH   1  25
TORSDOF 7
ENDMDL
MODEL 2
REMARK VINA RESULT:      -8.5      1.462      2.579
REMARK  7 active torsions:
REMARK  status: ('A' for Active; 'I' for Inactive)
REMARK    1  A    between atoms: C7_7  and  N1_8 
REMARK    2  A    between atoms: N1_8  and  C8_9 
REMARK    3  A    between atoms: C12_15  and  N3_16 
REMARK       I    between atoms: N3_16  and  C14_18 
REMARK    4  A    between atoms: C14_18  and  C15_20 
REMARK    5  A    between atoms: C15_20  and  C16_21 
REMARK    6  A    between atoms: C16_21  and  C17_22 
REMARK    7  A    between atoms: C17_22  and  N4_23 
ROOT
HETATM    1  C8  UNL     1      25.229   0.385  53.898  1.00  0.00     0.157 A 
HETATM    2  N2  UNL     1      24.960   1.177  52.849  1.00  0.00    -0.227 NA
HETATM    3  C9  UNL     1      23.731   1.272  52.315  1.00  0.00     0.089 A 
HETATM    4  C10 UNL     1      23.609   2.141  51.223  1.00  0.00     0.078 A 
HETATM    5  C11 UNL     1      22.352   2.235  50.681  1.00  0.00     0.145 A 
HETATM    6  F1  UNL     1      22.063   3.030  49.624  1.00  0.00    -0.204 F 
HETATM    7  C12 UNL     1      21.291   1.517  51.190  1.00  0.00     0.078 A 
HETATM    8  C20 UNL     1      21.453   0.670  52.268  1.00  0.00     0.065 A 
HETATM    9  C21 UNL     1      22.695   0.533  52.855  1.00  0.00     0.072 A 
HETATM   10  N5  UNL     1      22.970  -0.261  53.909  1.00  0.00    -0.299 N 
HETATM   11  C22 UNL     1      22.127  -1.061  54.587  1.00  0.00     0.215 A 
HETATM   12  N6  UNL     1      22.849  -1.657  55.552  1.00  0.00    -0.253 NA
HETATM   13  C23 UNL     1      24.145  -1.240  55.491  1.00  0.00     0.151 A 
HETATM   14  C24 UNL     1      24.201  -0.354  54.440  1.00  0.00     0.104 A 
ENDROOT
BRANCH   7  15
HETATM   15  N3  UNL     1      19.962   1.548  50.700  1.00  0.00    -0.316 N 
HETATM   16  C13 UNL     1      19.045   0.977  49.733  1.00  0.00     0.159 C 
HETATM   17  C14 UNL     1      19.319   2.526  51.486  1.00  0.00     0.247 C 
HETATM   18  O1  UNL     1      19.375   3.371  52.408  1.00  0.00    -0.268 OA
BRANCH  17  19
HETATM   19  C15 UNL     1      17.978   3.025  51.485  1.00  0.00     0.072 C 
BRANCH  19  20
HETATM   20  C16 UNL     1      16.735   3.424  51.479  1.00  0.00     0.008 C 
BRANCH  20  21
HETATM   21  C17 UNL     1      15.607   4.263  51.967  1.00  0.00     0.299 C 
BRANCH  21  22
HETATM   22  N4  UNL     1      15.031   3.604  53.113  1.00  0.00     0.083 N 
HETATM   23  C18 UNL     1      13.882   4.360  53.558  1.00  0.00     0.309 C 
HETATM   24  C19 UNL     1      14.605   2.284  52.732  1.00  0.00     0.309 C 
ENDBRANCH  21  22
ENDBRANCH  20  21
ENDBRANCH  19  20
ENDBRANCH  17  19
ENDBRANCH   7  15
BRANCH   1  25
HETATM   25  N1  UNL     1      26.555   0.348  54.396  1.00  0.00    -0.338 N 
HETATM   26  H8  UNL     1      26.806   0.787  55.307  1.00  0.00     0.167 HD
BRANCH  25  27
HETATM   27  C7  UNL     1      27.753  -0.203  53.899  1.00  0.00     0.049 A 
HETATM   28  C2  UNL     1      29.106   0.350  54.078  1.00  0.00    -0.018 A 
HETATM   29  C1  UNL     1      29.376   1.475  54.756  1.00  0.00     0.026 C 
HETATM   30  C3  UNL     1      30.069  -0.536  53.397  1.00  0.00     0.013 A 
HETATM   31  C4  UNL     1      29.345  -1.512  52.871  1.00  0.00     0.010 A 
HETATM   32  C5  UNL     1      27.931  -1.303  53.181  1.00  0.00    -0.034 A 
HETATM   33  C6  UNL     1      26.845  -2.239  52.724  1.00  0.00     0.050 C 
ENDBRANCH  25  27
ENDBRANCH   1  25
TORSDOF 7
ENDMDL
MODEL 3
REMARK VINA RESULT:      -8.3      4.085      5.176
REMARK  7 active torsions:
REMARK  status: ('A' for Active; 'I' for Inactive)
REMARK    1  A    between atoms: C7_7  and  N1_8 
REMARK    2  A    between atoms: N1_8  and  C8_9 
REMARK    3  A    between atoms: C12_15  and  N3_16 
REMARK       I    between atoms: N3_16  and  C14_18 
REMARK    4  A    between atoms: C14_18  and  C15_20 
REMARK    5  A    between atoms: C15_20  and  C16_21 
REMARK    6  A    between atoms: C16_21  and  C17_22 
REMARK    7  A    between atoms: C17_22  and  N4_23 
ROOT
HETATM    1  C8  UNL     1      25.599   1.198  52.754  1.00  0.00     0.157 A 
HETATM    2  N2  UNL     1      26.058   2.187  51.971  1.00  0.00    -0.227 NA
HETATM    3  C9  UNL     1      25.282   2.806  51.065  1.00  0.00     0.089 A 
HETATM    4  C10 UNL     1      25.906   3.818  50.324  1.00  0.00     0.078 A 
HETATM    5  C11 UNL     1      25.111   4.449  49.401  1.00  0.00     0.145 A 
HETATM    6  F1  UNL     1      25.557   5.449  48.604  1.00  0.00    -0.204 F 
HETATM    7  C12 UNL     1      23.789   4.098  49.227  1.00  0.00     0.078 A 
HETATM    8  C20 UNL     1      23.211   3.093  49.978  1.00  0.00     0.065 A 
HETATM    9  C21 UNL     1      23.962   2.423  50.923  1.00  0.00     0.072 A 
HETATM   10  N5  UNL     1      23.506   1.429  51.711  1.00  0.00    -0.299 N 
HETATM   11  C22 UNL     1      22.271   0.897  51.744  1.00  0.00     0.215 A 
HETATM   12  N6  UNL     1      22.287  -0.064  52.685  1.00  0.00    -0.253 NA
HETATM   13  C23 UNL     1      23.524  -0.145  53.248  1.00  0.00     0.151 A 
HETATM   14  C24 UNL     1      24.285   0.811  52.616  1.00  0.00     0.104 A 
ENDROOT
BRANCH   7  15
HETATM   15  N3  UNL     1      22.892   4.688  48.303  1.00  0.00    -0.316 N 
HETATM   16  C13 UNL     1      22.325   4.581  46.973  1.00  0.00     0.159 C 
HETATM   17  C14 UNL     1      22.374   5.810  48.982  1.00  0.00     0.247 C 
HETATM   18  O1  UNL     1      22.338   6.520  50.012  1.00  0.00    -0.268 OA
BRANCH  17  19
HETATM   19  C15 UNL     1      21.430   6.813  48.593  1.00  0.00     0.072 C 
BRANCH  19  20
HETATM   20  C16 UNL     1      20.611   7.768  48.248  1.00  0.00     0.008 C 
BRANCH  20  21
HETATM   21  C17 UNL     1      20.238   9.198  48.066  1.00  0.00     0.299 C 
BRANCH  21  22
HETATM   22  N4  UNL     1      20.368   9.854  49.344  1.00  0.00     0.083 N 
HETATM   23  C18 UNL     1      20.444  11.281  49.130  1.00  0.00     0.309 C 
HETATM   24  C19 UNL     1      19.211   9.558  50.145  1.00  0.00     0.309 C 
ENDBRANCH  21  22
ENDBRANCH  20  21
ENDBRANCH  19  20
ENDBRANCH  17  19
ENDBRANCH   7  15
BRANCH   1  25
HETATM   25  N1  UNL     1      26.488   0.602  53.682  1.00  0.00    -0.338 N 
HETATM   26  H8  UNL     1      26.303   0.630  54.707  1.00  0.00     0.167 HD
BRANCH  25  27
HETATM   27  C7  UNL     1      27.700  -0.102  53.536  1.00  0.00     0.049 A 
HETATM   28  C2  UNL     1      29.039   0.381  53.917  1.00  0.00    -0.018 A 
HETATM   29  C1  UNL     1      29.278   1.579  54.469  1.00  0.00     0.026 C 
HETATM   30  C3  UNL     1      30.025  -0.667  53.591  1.00  0.00     0.013 A 
HETATM   31  C4  UNL     1      29.327  -1.663  53.069  1.00  0.00     0.010 A 
HETATM   32  C5  UNL     1      27.908  -1.312  53.037  1.00  0.00    -0.034 A 
HETATM   33  C6  UNL     1      26.848  -2.235  52.499  1.00  0.00     0.050 C 
ENDBRANCH  25  27
ENDBRANCH   1  25
TORSDOF 7
ENDMDL
MODEL 4
REMARK VINA RESULT:      -8.2      6.007      8.624
REMARK  7 active torsions:
REMARK  status: ('A' for Active; 'I' for Inactive)
REMARK    1  A    between atoms: C7_7  and  N1_8 
REMARK    2  A    between atoms: N1_8  and  C8_9 
REMARK    3  A    between atoms: C12_15  and  N3_16 
REMARK       I    between atoms: N3_16  and  C14_18 
REMARK    4  A    between atoms: C14_18  and  C15_20 
REMARK    5  A    between atoms: C15_20  and  C16_21 
REMARK    6  A    between atoms: C16_21  and  C17_22 
REMARK    7  A    between atoms: C17_22  and  N4_23 
ROOT
HETATM    1  C8  UNL     1      25.807   2.189  51.522  1.00  0.00     0.157 A 
HETATM    2  N2  UNL     1      26.697   2.674  50.642  1.00  0.00    -0.227 NA
HETATM    3  C9  UNL     1      26.519   3.847  50.012  1.00  0.00     0.089 A 
HETATM    4  C10 UNL     1      27.537   4.217  49.122  1.00  0.00     0.078 A 
HETATM    5  C11 UNL     1      27.352   5.415  48.481  1.00  0.00     0.145 A 
HETATM    6  F1  UNL     1      28.240   5.920  47.591  1.00  0.00    -0.204 F 
HETATM    7  C12 UNL     1      26.236   6.191  48.708  1.00  0.00     0.078 A 
HETATM    8  C20 UNL     1      25.254   5.790  49.593  1.00  0.00     0.065 A 
HETATM    9  C21 UNL     1      25.385   4.593  50.268  1.00  0.00     0.072 A 
HETATM   10  N5  UNL     1      24.494   4.102  51.152  1.00  0.00    -0.299 N 
HETATM   11  C22 UNL     1      23.332   4.651  51.550  1.00  0.00     0.215 A 
HETATM   12  N6  UNL     1      22.786   3.802  52.439  1.00  0.00    -0.253 NA
HETATM   13  C23 UNL     1      23.594   2.719  52.608  1.00  0.00     0.151 A 
HETATM   14  C24 UNL     1      24.674   2.928  51.781  1.00  0.00     0.104 A 
ENDROOT
BRANCH   7  15
HETATM   15  N3  UNL     1      25.957   7.439  48.096  1.00  0.00    -0.316 N 
HETATM   16  C13 UNL     1      25.229   8.095  47.028  1.00  0.00     0.159 C 
HETATM   17  C14 UNL     1      26.696   8.374  48.849  1.00  0.00     0.247 C 
HETATM   18  O1  UNL     1      27.476   8.613  49.798  1.00  0.00    -0.268 OA
BRANCH  17  19
HETATM   19  C15 UNL     1      26.841   9.793  48.737  1.00  0.00     0.072 C 
BRANCH  19  20
HETATM   20  C16 UNL     1      27.028  11.082  48.654  1.00  0.00     0.008 C 
BRANCH  20  21
HETATM   21  C17 UNL     1      27.877  12.293  48.481  1.00  0.00     0.299 C 
BRANCH  21  22
HETATM   22  N4  UNL     1      27.255  13.128  47.484  1.00  0.00     0.083 N 
HETATM   23  C18 UNL     1      25.884  13.374  47.868  1.00  0.00     0.309 C 
HETATM   24  C19 UNL     1      27.957  14.382  47.416  1.00  0.00     0.309 C 
ENDBRANCH  21  22
ENDBRANCH  20  21
ENDBRANCH  19  20
ENDBRANCH  17  19
ENDBRANCH   7  15
BRANCH   1  25
HETATM   25  N1  UNL     1      26.077   0.943  52.141  1.00  0.00    -0.338 N 
HETATM   26  H8  UNL     1      25.339   0.215  52.239  1.00  0.00     0.167 HD
BRANCH  25  27
HETATM   27  C7  UNL     1      27.235   0.389  52.719  1.00  0.00     0.049 A 
HETATM   28  C2  UNL     1      28.317   1.134  53.387  1.00  0.00    -0.018 A 
HETATM   29  C1  UNL     1      28.334   2.467  53.534  1.00  0.00     0.026 C 
HETATM   30  C3  UNL     1      29.336   0.171  53.846  1.00  0.00     0.013 A 
HETATM   31  C4  UNL     1      28.890  -1.020  53.480  1.00  0.00     0.010 A 
HETATM   32  C5  UNL     1      27.607  -0.881  52.792  1.00  0.00    -0.034 A 
HETATM   33  C6  UNL     1      26.837  -2.055  52.250  1.00  0.00     0.050 C 
ENDBRANCH  25  27
ENDBRANCH   1  25
TORSDOF 7
ENDMDL
MODEL 5
REMARK VINA RESULT:      -7.9      6.497      9.589
REMARK  7 active torsions:
REMARK  status: ('A' for Active; 'I' for Inactive)
REMARK    1  A    between atoms: C7_7  and  N1_8 
REMARK    2  A    between atoms: N1_8  and  C8_9 
REMARK    3  A    between atoms: C12_15  and  N3_16 
REMARK       I    between atoms: N3_16  and  C14_18 
REMARK    4  A    between atoms: C14_18  and  C15_20 
REMARK    5  A    between atoms: C15_20  and  C16_21 
REMARK    6  A    between atoms: C16_21  and  C17_22 
REMARK    7  A    between atoms: C17_22  and  N4_23 
ROOT
HETATM    1  C8  UNL     1      25.413   2.852  51.059  1.00  0.00     0.157 A 
HETATM    2  N2  UNL     1      26.378   3.228  50.206  1.00  0.00    -0.227 NA
HETATM    3  C9  UNL     1      26.429   4.462  49.676  1.00  0.00     0.089 A 
HETATM    4  C10 UNL     1      27.498   4.702  48.802  1.00  0.00     0.078 A 
HETATM    5  C11 UNL     1      27.548   5.962  48.263  1.00  0.00     0.145 A 
HETATM    6  F1  UNL     1      28.515   6.359  47.402  1.00  0.00    -0.204 F 
HETATM    7  C12 UNL     1      26.602   6.917  48.571  1.00  0.00     0.078 A 
HETATM    8  C20 UNL     1      25.562   6.640  49.437  1.00  0.00     0.065 A 
HETATM    9  C21 UNL     1      25.461   5.388  50.011  1.00  0.00     0.072 A 
HETATM   10  N5  UNL     1      24.493   5.006  50.867  1.00  0.00    -0.299 N 
HETATM   11  C22 UNL     1      23.458   5.733  51.328  1.00  0.00     0.215 A 
HETATM   12  N6  UNL     1      22.760   4.933  52.154  1.00  0.00    -0.253 NA
HETATM   13  C23 UNL     1      23.345   3.705  52.221  1.00  0.00     0.151 A 
HETATM   14  C24 UNL     1      24.444   3.771  51.396  1.00  0.00     0.104 A 
ENDROOT
BRANCH   7  15
HETATM   15  N3  UNL     1      26.568   8.241  48.067  1.00  0.00    -0.316 N 
HETATM   16  C13 UNL     1      25.920   9.130  47.123  1.00  0.00     0.159 C 
HETATM   17  C14 UNL     1      27.569   8.920  48.792  1.00  0.00     0.247 C 
HETATM   18  O1  UNL     1      28.463   8.898  49.667  1.00  0.00    -0.268 OA
BRANCH  17  19
HETATM   19  C15 UNL     1      28.029  10.274  48.750  1.00  0.00     0.072 C 
BRANCH  19  20
HETATM   20  C16 UNL     1      28.490  11.495  48.753  1.00  0.00     0.008 C 
BRANCH  20  21
HETATM   21  C17 UNL     1      28.389  12.953  49.037  1.00  0.00     0.299 C 
BRANCH  21  22
HETATM   22  N4  UNL     1      29.086  13.656  47.990  1.00  0.00     0.083 N 
HETATM   23  C18 UNL     1      29.836  12.701  47.206  1.00  0.00     0.309 C 
HETATM   24  C19 UNL     1      28.126  14.310  47.142  1.00  0.00     0.309 C 
ENDBRANCH  21  22
ENDBRANCH  20  21
ENDBRANCH  19  20
ENDBRANCH  17  19
ENDBRANCH   7  15
BRANCH   1  25
HETATM   25  N1  UNL     1      25.438   1.531  51.570  1.00  0.00    -0.338 N 
HETATM   26  H8  UNL     1      25.158   0.717  50.984  1.00  0.00     0.167 HD
BRANCH  25  27
HETATM   27  C7  UNL     1      25.792   0.992  52.822  1.00  0.00     0.049 A 
HETATM   28  C2  UNL     1      24.986   0.058  53.627  1.00  0.00    -0.018 A 
HETATM   29  C1  UNL     1      23.785  -0.411  53.259  1.00  0.00     0.026 C 
HETATM   30  C3  UNL     1      25.725  -0.252  54.866  1.00  0.00     0.013 A 
HETATM   31  C4  UNL     1      26.852   0.437  54.789  1.00  0.00     0.010 A 
HETATM   32  C5  UNL     1      26.888   1.195  53.539  1.00  0.00    -0.034 A 
HETATM   33  C6  UNL     1      28.040   2.082  53.151  1.00  0.00     0.050 C 
ENDBRANCH  25  27
ENDBRANCH   1  25
TORSDOF 7
ENDMDL
MODEL 6
REMARK VINA RESULT:      -7.8      2.162      3.350
REMARK  7 active torsions:
REMARK  status: ('A' for Active; 'I' for Inactive)
REMARK    1  A    between atoms: C7_7  and  N1_8 
REMARK    2  A    between atoms: N1_8  and  C8_9 
REMARK    3  A    between atoms: C12_15  and  N3_16 
REMARK       I    between atoms: N3_16  and  C14_18 
REMARK    4  A    between atoms: C14_18  and  C15_20 
REMARK    5  A    between atoms: C15_20  and  C16_21 
REMARK    6  A    between atoms: C16_21  and  C17_22 
REMARK    7  A    between atoms: C17_22  and  N4_23 
ROOT
HETATM    1  C8  UNL     1      23.002   2.263  52.581  1.00  0.00     0.157 A 
HETATM    2  N2  UNL     1      22.082   1.296  52.433  1.00  0.00    -0.227 NA
HETATM    3  C9  UNL     1      20.877   1.527  51.886  1.00  0.00     0.089 A 
HETATM    4  C10 UNL     1      20.027   0.416  51.800  1.00  0.00     0.078 A 
HETATM    5  C11 UNL     1      18.798   0.655  51.241  1.00  0.00     0.145 A 
HETATM    6  F1  UNL     1      17.860  -0.308  51.083  1.00  0.00    -0.204 F 
HETATM    7  C12 UNL     1      18.439   1.909  50.796  1.00  0.00     0.078 A 
HETATM    8  C20 UNL     1      19.306   2.979  50.898  1.00  0.00     0.065 A 
HETATM    9  C21 UNL     1      20.557   2.800  51.453  1.00  0.00     0.072 A 
HETATM   10  N5  UNL     1      21.484   3.767  51.604  1.00  0.00    -0.299 N 
HETATM   11  C22 UNL     1      21.391   5.065  51.260  1.00  0.00     0.215 A 
HETATM   12  N6  UNL     1      22.557   5.642  51.602  1.00  0.00    -0.253 NA
HETATM   13  C23 UNL     1      23.389   4.718  52.160  1.00  0.00     0.151 A 
HETATM   14  C24 UNL     1      22.688   3.534  52.152  1.00  0.00     0.104 A 
ENDROOT
BRANCH   7  15
HETATM   15  N3  UNL     1      17.198   2.253  50.206  1.00  0.00    -0.316 N 
HETATM   16  C13 UNL     1      16.396   2.161  49.002  1.00  0.00     0.159 C 
HETATM   17  C14 UNL     1      16.510   2.957  51.216  1.00  0.00     0.247 C 
HETATM   18  O1  UNL     1      16.485   3.413  52.381  1.00  0.00    -0.268 OA
BRANCH  17  19
HETATM   19  C15 UNL     1      15.216   3.566  51.246  1.00  0.00     0.072 C 
BRANCH  19  20
HETATM   20  C16 UNL     1      14.021   4.086  51.319  1.00  0.00     0.008 C 
BRANCH  20  21
HETATM   21  C17 UNL     1      12.700   4.295  51.973  1.00  0.00     0.299 C 
BRANCH  21  22
HETATM   22  N4  UNL     1      12.658   3.471  53.155  1.00  0.00     0.083 N 
HETATM   23  C18 UNL     1      12.205   4.273  54.269  1.00  0.00     0.309 C 
HETATM   24  C19 UNL     1      11.730   2.392  52.944  1.00  0.00     0.309 C 
ENDBRANCH  21  22
ENDBRANCH  20  21
ENDBRANCH  19  20
ENDBRANCH  17  19
ENDBRANCH   7  15
BRANCH   1  25
HETATM   25  N1  UNL     1      24.247   1.929  53.168  1.00  0.00    -0.338 N 
HETATM   26  H8  UNL     1      24.634   2.475  53.966  1.00  0.00     0.167 HD
BRANCH  25  27
HETATM   27  C7  UNL     1      25.194   0.920  52.904  1.00  0.00     0.049 A 
HETATM   28  C2  UNL     1      25.257  -0.405  53.544  1.00  0.00    -0.018 A 
HETATM   29  C1  UNL     1      24.397  -0.830  54.481  1.00  0.00     0.026 C 
HETATM   30  C3  UNL     1      26.400  -1.146  52.978  1.00  0.00     0.013 A 
HETATM   31  C4  UNL     1      26.950  -0.329  52.093  1.00  0.00     0.010 A 
HETATM   32  C5  UNL     1      26.210   0.931  52.052  1.00  0.00    -0.034 A 
HETATM   33  C6  UNL     1      26.584   2.072  51.146  1.00  0.00     0.050 C 
ENDBRANCH  25  27
ENDBRANCH   1  25
TORSDOF 7
ENDMDL
MODEL 7
REMARK VINA RESULT:      -7.7      2.625      4.615
REMARK  7 active torsions:
REMARK  status: ('A' for Active; 'I' for Inactive)
REMARK    1  A    between atoms: C7_7  and  N1_8 
REMARK    2  A    between atoms: N1_8  and  C8_9 
REMARK    3  A    between atoms: C12_15  and  N3_16 
REMARK       I    between atoms: N3_16  and  C14_18 
REMARK    4  A    between atoms: C14_18  and  C15_20 
REMARK    5  A    between atoms: C15_20  and  C16_21 
REMARK    6  A    between atoms: C16_21  and  C17_22 
REMARK    7  A    between atoms: C17_22  and  N4_23 
ROOT
HETATM    1  C8  UNL     1      22.289   0.465  51.990  1.00  0.00     0.157 A 
HETATM    2  N2  UNL     1      21.286   0.752  51.146  1.00  0.00    -0.227 NA
HETATM    3  C9  UNL     1      20.025   0.342  51.361  1.00  0.00     0.089 A 
HETATM    4  C10 UNL     1      19.089   0.722  50.389  1.00  0.00     0.078 A 
HETATM    5  C11 UNL     1      17.803   0.302  50.612  1.00  0.00     0.145 A 
HETATM    6  F1  UNL     1      16.779   0.584  49.773  1.00  0.00    -0.204 F 
HETATM    7  C12 UNL     1      17.469  -0.442  51.724  1.00  0.00     0.078 A 
HETATM    8  C20 UNL     1      18.421  -0.797  52.659  1.00  0.00     0.065 A 
HETATM    9  C21 UNL     1      19.733  -0.403  52.488  1.00  0.00     0.072 A 
HETATM   10  N5  UNL     1      20.744  -0.689  53.333  1.00  0.00    -0.299 N 
HETATM   11  C22 UNL     1      20.693  -1.394  54.478  1.00  0.00     0.215 A 
HETATM   12  N6  UNL     1      21.943  -1.418  54.975  1.00  0.00    -0.253 NA
HETATM   13  C23 UNL     1      22.785  -0.733  54.152  1.00  0.00     0.151 A 
HETATM   14  C24 UNL     1      22.005  -0.278  53.114  1.00  0.00     0.104 A 
ENDROOT
BRANCH   7  15
HETATM   15  N3  UNL     1      16.173  -0.920  52.040  1.00  0.00    -0.316 N 
HETATM   16  C13 UNL     1      15.294  -2.071  51.991  1.00  0.00     0.159 C 
HETATM   17  C14 UNL     1      15.523   0.185  52.625  1.00  0.00     0.247 C 
HETATM   18  O1  UNL     1      15.557   1.381  52.994  1.00  0.00    -0.268 OA
BRANCH  17  19
HETATM   19  C15 UNL     1      14.202   0.351  53.151  1.00  0.00     0.072 C 
BRANCH  19  20
HETATM   20  C16 UNL     1      13.022   0.526  53.680  1.00  0.00     0.008 C 
BRANCH  20  21
HETATM   21  C17 UNL     1      12.092   1.085  54.699  1.00  0.00     0.299 C 
BRANCH  21  22
HETATM   22  N4  UNL     1      11.252   2.057  54.044  1.00  0.00     0.083 N 
HETATM   23  C18 UNL     1      12.040   3.232  53.750  1.00  0.00     0.309 C 
HETATM   24  C19 UNL     1      10.760   1.501  52.812  1.00  0.00     0.309 C 
ENDBRANCH  21  22
ENDBRANCH  20  21
ENDBRANCH  19  20
ENDBRANCH  17  19
ENDBRANCH   7  15
BRANCH   1  25
HETATM   25  N1  UNL     1      23.589   0.939  51.684  1.00  0.00    -0.338 N 
HETATM   26  H8  UNL     1      23.912   1.039  50.699  1.00  0.00     0.167 HD
BRANCH  25  27
HETATM   27  C7  UNL     1      24.672   1.356  52.482  1.00  0.00     0.049 A 
HETATM   28  C2  UNL     1      25.867   0.560  52.813  1.00  0.00    -0.018 A 
HETATM   29  C1  UNL     1      26.081  -0.691  52.382  1.00  0.00     0.026 C 
HETATM   30  C3  UNL     1      26.749   1.373  53.672  1.00  0.00     0.013 A 
HETATM   31  C4  UNL     1      26.125   2.530  53.828  1.00  0.00     0.010 A 
HETATM   32  C5  UNL     1      24.857   2.514  53.099  1.00  0.00    -0.034 A 
HETATM   33  C6  UNL     1      23.911   3.683  53.076  1.00  0.00     0.050 C 
ENDBRANCH  25  27
ENDBRANCH   1  25
TORSDOF 7
ENDMDL
MODEL 8
REMARK VINA RESULT:      -7.7      4.349      9.555
REMARK  7 active torsions:
REMARK  status: ('A' for Active; 'I' for Inactive)
REMARK    1  A    between atoms: C7_7  and  N1_8 
REMARK    2  A    between atoms: N1_8  and  C8_9 
REMARK    3  A    between atoms: C12_15  and  N3_16 
REMARK       I    between atoms: N3_16  and  C14_18 
REMARK    4  A    between atoms: C14_18  and  C15_20 
REMARK    5  A    between atoms: C15_20  and  C16_21 
REMARK    6  A    between atoms: C16_21  and  C17_22 
REMARK    7  A    between atoms: C17_22  and  N4_23 
ROOT
HETATM    1  C8  UNL     1      22.583   1.023  51.197  1.00  0.00     0.157 A 
HETATM    2  N2  UNL     1      22.416   1.907  50.200  1.00  0.00    -0.227 NA
HETATM    3  C9  UNL     1      23.250   2.942  50.009  1.00  0.00     0.089 A 
HETATM    4  C10 UNL     1      22.943   3.777  48.926  1.00  0.00     0.078 A 
HETATM    5  C11 UNL     1      23.797   4.833  48.734  1.00  0.00     0.145 A 
HETATM    6  F1  UNL     1      23.644   5.732  47.733  1.00  0.00    -0.204 F 
HETATM    7  C12 UNL     1      24.880   5.044  49.559  1.00  0.00     0.078 A 
HETATM    8  C20 UNL     1      25.149   4.199  50.617  1.00  0.00     0.065 A 
HETATM    9  C21 UNL     1      24.324   3.119  50.860  1.00  0.00     0.072 A 
HETATM   10  N5  UNL     1      24.488   2.229  51.860  1.00  0.00    -0.299 N 
HETATM   11  C22 UNL     1      25.451   2.205  52.799  1.00  0.00     0.215 A 
HETATM   12  N6  UNL     1      25.206   1.138  53.580  1.00  0.00    -0.253 NA
HETATM   13  C23 UNL     1      24.093   0.485  53.142  1.00  0.00     0.151 A 
HETATM   14  C24 UNL     1      23.651   1.194  52.049  1.00  0.00     0.104 A 
ENDROOT
BRANCH   7  15
HETATM   15  N3  UNL     1      25.815   6.103  49.441  1.00  0.00    -0.316 N 
HETATM   16  C13 UNL     1      26.036   7.516  49.675  1.00  0.00     0.159 C 
HETATM   17  C14 UNL     1      26.956   5.503  48.870  1.00  0.00     0.247 C 
HETATM   18  O1  UNL     1      27.523   4.480  48.424  1.00  0.00    -0.268 OA
BRANCH  17  19
HETATM   19  C15 UNL     1      28.232   6.034  48.500  1.00  0.00     0.072 C 
BRANCH  19  20
HETATM   20  C16 UNL     1      29.376   6.524  48.106  1.00  0.00     0.008 C 
BRANCH  20  21
HETATM   21  C17 UNL     1      30.438   7.567  48.082  1.00  0.00     0.299 C 
BRANCH  21  22
HETATM   22  N4  UNL     1      31.714   6.898  48.122  1.00  0.00     0.083 N 
HETATM   23  C18 UNL     1      31.959   6.437  49.469  1.00  0.00     0.309 C 
HETATM   24  C19 UNL     1      31.680   5.765  47.236  1.00  0.00     0.309 C 
ENDBRANCH  21  22
ENDBRANCH  20  21
ENDBRANCH  19  20
ENDBRANCH  17  19
ENDBRANCH   7  15
BRANCH   1  25
HETATM   25  N1  UNL     1      21.655  -0.039  51.323  1.00  0.00    -0.338 N 
HETATM   26  H8  UNL     1      21.871  -0.994  50.967  1.00  0.00     0.167 HD
BRANCH  25  27
HETATM   27  C7  UNL     1      20.362  -0.124  51.877  1.00  0.00     0.049 A 
HETATM   28  C2  UNL     1      19.115   0.351  51.254  1.00  0.00    -0.018 A 
HETATM   29  C1  UNL     1      19.050   0.938  50.050  1.00  0.00     0.026 C 
HETATM   30  C3  UNL     1      17.995   0.068  52.172  1.00  0.00     0.013 A 
HETATM   31  C4  UNL     1      18.539  -0.516  53.228  1.00  0.00     0.010 A 
HETATM   32  C5  UNL     1      19.985  -0.631  53.042  1.00  0.00    -0.034 A 
HETATM   33  C6  UNL     1      20.896  -1.250  54.067  1.00  0.00     0.050 C 
ENDBRANCH  25  27
ENDBRANCH   1  25
TORSDOF 7
ENDMDL
MODEL 9
REMARK VINA RESULT:      -7.6      2.255      3.514
REMARK  7 active torsions:
REMARK  status: ('A' for Active; 'I' for Inactive)
REMARK    1  A    between atoms: C7_7  and  N1_8 
REMARK    2  A    between atoms: N1_8  and  C8_9 
REMARK    3  A    between atoms: C12_15  and  N3_16 
REMARK       I    between atoms: N3_16  and  C14_18 
REMARK    4  A    between atoms: C14_18  and  C15_20 
REMARK    5  A    between atoms: C15_20  and  C16_21 
REMARK    6  A    between atoms: C16_21  and  C17_22 
REMARK    7  A    between atoms: C17_22  and  N4_23 
ROOT
HETATM    1  C8  UNL     1      22.395   1.391  52.559  1.00  0.00     0.157 A 
HETATM    2  N2  UNL     1      21.566   0.511  53.142  1.00  0.00    -0.227 NA
HETATM    3  C9  UNL     1      20.308   0.315  52.715  1.00  0.00     0.089 A 
HETATM    4  C10 UNL     1      19.566  -0.637  53.427  1.00  0.00     0.078 A 
HETATM    5  C11 UNL     1      18.282  -0.834  52.987  1.00  0.00     0.145 A 
HETATM    6  F1  UNL     1      17.433  -1.718  53.563  1.00  0.00    -0.204 F 
HETATM    7  C12 UNL     1      17.771  -0.135  51.915  1.00  0.00     0.078 A 
HETATM    8  C20 UNL     1      18.534   0.797  51.239  1.00  0.00     0.065 A 
HETATM    9  C21 UNL     1      19.834   1.038  51.636  1.00  0.00     0.072 A 
HETATM   10  N5  UNL     1      20.670   1.921  51.054  1.00  0.00    -0.299 N 
HETATM   11  C22 UNL     1      20.426   2.725  50.003  1.00  0.00     0.215 A 
HETATM   12  N6  UNL     1      21.552   3.427  49.781  1.00  0.00    -0.253 NA
HETATM   13  C23 UNL     1      22.508   3.072  50.684  1.00  0.00     0.151 A 
HETATM   14  C24 UNL     1      21.928   2.115  51.484  1.00  0.00     0.104 A 
ENDROOT
BRANCH   7  15
HETATM   15  N3  UNL     1      16.461  -0.268  51.389  1.00  0.00    -0.316 N 
HETATM   16  C13 UNL     1      15.627  -1.020  50.473  1.00  0.00     0.159 C 
HETATM   17  C14 UNL     1      15.717   0.740  52.035  1.00  0.00     0.247 C 
HETATM   18  O1  UNL     1      15.675   1.689  52.850  1.00  0.00    -0.268 OA
BRANCH  17  19
HETATM   19  C15 UNL     1      14.343   1.126  51.938  1.00  0.00     0.072 C 
BRANCH  19  20
HETATM   20  C16 UNL     1      13.096   1.511  51.899  1.00  0.00     0.008 C 
BRANCH  20  21
HETATM   21  C17 UNL     1      11.956   2.368  52.325  1.00  0.00     0.299 C 
BRANCH  21  22
HETATM   22  N4  UNL     1      12.330   3.020  53.555  1.00  0.00     0.083 N 
HETATM   23  C18 UNL     1      12.344   4.449  53.341  1.00  0.00     0.309 C 
HETATM   24  C19 UNL     1      11.358   2.706  54.568  1.00  0.00     0.309 C 
ENDBRANCH  21  22
ENDBRANCH  20  21
ENDBRANCH  19  20
ENDBRANCH  17  19
ENDBRANCH   7  15
BRANCH   1  25
HETATM   25  N1  UNL     1      23.707   1.531  53.076  1.00  0.00    -0.338 N 
HETATM   26  H8  UNL     1      23.973   2.347  53.666  1.00  0.00     0.167 HD
BRANCH  25  27
HETATM   27  C7  UNL     1      24.869   0.742  52.973  1.00  0.00     0.049 A 
HETATM   28  C2  UNL     1      25.995   0.966  52.050  1.00  0.00    -0.018 A 
HETATM   29  C1  UNL     1      26.058   1.976  51.171  1.00  0.00     0.026 C 
HETATM   30  C3  UNL     1      27.000  -0.091  52.271  1.00  0.00     0.013 A 
HETATM   31  C4  UNL     1      26.506  -0.858  53.230  1.00  0.00     0.010 A 
HETATM   32  C5  UNL     1      25.204  -0.344  53.655  1.00  0.00    -0.034 A 
HETATM   33  C6  UNL     1      24.379  -0.994  54.733  1.00  0.00     0.050 C 
ENDBRANCH  25  27
ENDBRANCH   1  25
TORSDOF 7
ENDMDL
