MODEL 1
REMARK VINA RESULT:      -8.9      0.000      0.000
REMARK  4 active torsions:
REMARK  status: ('A' for Active; 'I' for Inactive)
REMARK    1  A    between atoms: C3_3  and  C4_4 
REMARK    2  A    between atoms: N1_7  and  C7_8 
REMARK    3  A    between atoms: C7_8  and  C8_9 
REMARK    4  A    between atoms: C13_14  and  O1_15 
ROOT
HETATM    1  C4  UNL     1      23.972   4.197  50.364  1.00  0.00     0.034 C 
HETATM    2  C5  UNL     1      24.892   3.579  51.276  1.00  0.00     0.022 C 
HETATM    3  C6  UNL     1      24.520   2.893  52.607  1.00  0.00     0.152 C 
HETATM    4  N1  UNL     1      24.543   1.478  52.711  1.00  0.00    -0.378 N 
HETATM    5  C14 UNL     1      23.286   0.629  52.975  1.00  0.00     0.041 C 
HETATM    6  C15 UNL     1      21.884   0.699  52.853  1.00  0.00     0.084 C 
HETATM    7  C16 UNL     1      20.993  -0.419  53.239  1.00  0.00     0.094 C 
HETATM    8  C17 UNL     1      21.252  -0.800  54.676  1.00  0.00    -0.024 C 
HETATM    9  C18 UNL     1      22.595  -0.937  54.686  1.00  0.00    -0.024 C 
HETATM   10  C19 UNL     1      23.472  -0.740  53.503  1.00  0.00     0.086 C 
HETATM   11  O2  UNL     1      21.970   1.840  52.402  1.00  0.00    -0.263 OA
HETATM   12  C20 UNL     1      21.893   3.059  52.034  1.00  0.00     0.370 C 
HETATM   13  O3  UNL     1      21.068   3.825  52.329  1.00  0.00    -0.238 OA
HETATM   14  N2  UNL     1      22.943   3.633  51.191  1.00  0.00    -0.303 N 
HETATM   15  H24 UNL     1      23.286   2.875  50.569  1.00  0.00     0.171 HD
ENDROOT
BRANCH   4  16
HETATM   16  C7  UNL     1      25.698   0.654  52.636  1.00  0.00     0.134 C 
BRANCH  16  17
HETATM   17  C8  UNL     1      26.708   0.476  53.696  1.00  0.00     0.063 A 
HETATM   18  C9  UNL     1      27.232  -0.964  53.470  1.00  0.00     0.040 A 
HETATM   19  C10 UNL     1      28.659  -1.065  53.279  1.00  0.00    -0.026 A 
HETATM   20  C11 UNL     1      29.633  -0.176  53.350  1.00  0.00    -0.002 A 
HETATM   21  C12 UNL     1      29.149   1.195  53.680  1.00  0.00     0.032 A 
HETATM   22  C13 UNL     1      27.821   1.419  53.835  1.00  0.00     0.049 A 
BRANCH  22  23
HETATM   23  O1  UNL     1      27.874   2.791  54.175  1.00  0.00    -0.365 OA
HETATM   24  H17 UNL     1      27.528   3.097  55.104  1.00  0.00     0.217 HD
ENDBRANCH  22  23
ENDBRANCH  16  17
ENDBRANCH   4  16
BRANCH   1  25
HETATM   25  C3  UNL     1      23.752   4.892  49.170  1.00  0.00     0.025 C 
HETATM   26  C2  UNL     1      22.590   5.116  48.584  1.00  0.00    -0.029 C 
HETATM   27  C1  UNL     1      22.948   5.885  47.378  1.00  0.00     0.036 C 
ENDBRANCH   1  25
TORSDOF 4
ENDMDL
MODEL 2
REMARK VINA RESULT:      -8.5      1.940      7.276
REMARK  4 active torsions:
REMARK  status: ('A' for Active; 'I' for Inactive)
REMARK    1  A    between atoms: C3_3  and  C4_4 
REMARK    2  A    between atoms: N1_7  and  C7_8 
REMARK    3  A    between atoms: C7_8  and  C8_9 
REMARK    4  A    between atoms: C13_14  and  O1_15 
ROOT
HETATM    1  C4  UNL     1      26.505  -0.373  52.810  1.00  0.00     0.034 C 
HETATM    2  C5  UNL     1      25.185   0.188  52.743  1.00  0.00     0.022 C 
HETATM    3  C6  UNL     1      24.848   1.678  52.527  1.00  0.00     0.152 C 
HETATM    4  N1  UNL     1      24.350   2.123  51.275  1.00  0.00    -0.378 N 
HETATM    5  C14 UNL     1      25.109   3.104  50.363  1.00  0.00     0.041 C 
HETATM    6  C15 UNL     1      26.417   3.574  50.126  1.00  0.00     0.084 C 
HETATM    7  C16 UNL     1      26.726   4.575  49.079  1.00  0.00     0.094 C 
HETATM    8  C17 UNL     1      25.887   5.811  49.297  1.00  0.00    -0.024 C 
HETATM    9  C18 UNL     1      24.651   5.285  49.421  1.00  0.00    -0.024 C 
HETATM   10  C19 UNL     1      24.337   3.835  49.336  1.00  0.00     0.086 C 
HETATM   11  O2  UNL     1      26.850   2.852  51.022  1.00  0.00    -0.263 OA
HETATM   12  C20 UNL     1      27.424   2.252  51.990  1.00  0.00     0.370 C 
HETATM   13  O3  UNL     1      28.295   2.660  52.645  1.00  0.00    -0.238 OA
HETATM   14  N2  UNL     1      26.960   0.927  52.404  1.00  0.00    -0.303 N 
HETATM   15  H24 UNL     1      26.630   0.436  51.549  1.00  0.00     0.171 HD
ENDROOT
BRANCH   4  16
HETATM   16  C7  UNL     1      23.094   1.779  50.707  1.00  0.00     0.134 C 
BRANCH  16  17
HETATM   17  C8  UNL     1      21.772   2.001  51.324  1.00  0.00     0.063 A 
HETATM   18  C9  UNL     1      20.813   2.113  50.113  1.00  0.00     0.040 A 
HETATM   19  C10 UNL     1      19.711   1.180  50.126  1.00  0.00    -0.026 A 
HETATM   20  C11 UNL     1      19.299   0.299  51.020  1.00  0.00    -0.002 A 
HETATM   21  C12 UNL     1      20.154   0.264  52.241  1.00  0.00     0.032 A 
HETATM   22  C13 UNL     1      21.246   1.065  52.320  1.00  0.00     0.049 A 
BRANCH  22  23
HETATM   23  O1  UNL     1      21.669   0.720  53.626  1.00  0.00    -0.365 OA
HETATM   24  H17 UNL     1      22.683   0.659  53.830  1.00  0.00     0.217 HD
ENDBRANCH  22  23
ENDBRANCH  16  17
ENDBRANCH   4  16
BRANCH   1  25
HETATM   25  C3  UNL     1      27.323  -1.495  52.975  1.00  0.00     0.025 C 
HETATM   26  C2  UNL     1      28.628  -1.504  53.178  1.00  0.00    -0.029 C 
HETATM   27  C1  UNL     1      28.958  -2.937  53.278  1.00  0.00     0.036 C 
ENDBRANCH   1  25
TORSDOF 4
ENDMDL
MODEL 3
REMARK VINA RESULT:      -8.4      1.849      5.417
REMARK  4 active torsions:
REMARK  status: ('A' for Active; 'I' for Inactive)
REMARK    1  A    between atoms: C3_3  and  C4_4 
REMARK    2  A    between atoms: N1_7  and  C7_8 
REMARK    3  A    between atoms: C7_8  and  C8_9 
REMARK    4  A    between atoms: C13_14  and  O1_15 
ROOT
HETATM    1  C4  UNL     1      23.869   4.551  50.666  1.00  0.00     0.034 C 
HETATM    2  C5  UNL     1      23.274   3.257  50.843  1.00  0.00     0.022 C 
HETATM    3  C6  UNL     1      24.026   1.909  50.836  1.00  0.00     0.152 C 
HETATM    4  N1  UNL     1      24.246   1.209  52.050  1.00  0.00    -0.378 N 
HETATM    5  C14 UNL     1      25.646   0.946  52.633  1.00  0.00     0.041 C 
HETATM    6  C15 UNL     1      26.961   1.449  52.567  1.00  0.00     0.084 C 
HETATM    7  C16 UNL     1      28.076   0.870  53.350  1.00  0.00     0.094 C 
HETATM    8  C17 UNL     1      28.194  -0.604  53.050  1.00  0.00    -0.024 C 
HETATM    9  C18 UNL     1      26.923  -1.022  53.225  1.00  0.00    -0.024 C 
HETATM   10  C19 UNL     1      25.792  -0.144  53.621  1.00  0.00     0.086 C 
HETATM   11  O2  UNL     1      26.603   2.305  51.759  1.00  0.00    -0.263 OA
HETATM   12  C20 UNL     1      26.409   3.163  50.836  1.00  0.00     0.370 C 
HETATM   13  O3  UNL     1      27.149   3.452  49.986  1.00  0.00    -0.238 OA
HETATM   14  N2  UNL     1      25.127   3.864  50.750  1.00  0.00    -0.303 N 
HETATM   15  H24 UNL     1      24.779   3.989  51.722  1.00  0.00     0.171 HD
ENDROOT
BRANCH   4  16
HETATM   16  C7  UNL     1      23.243   0.620  52.866  1.00  0.00     0.134 C 
BRANCH  16  17
HETATM   17  C8  UNL     1      22.211  -0.336  52.420  1.00  0.00     0.063 A 
HETATM   18  C9  UNL     1      21.972  -1.230  53.663  1.00  0.00     0.040 A 
HETATM   19  C10 UNL     1      20.604  -1.279  54.119  1.00  0.00    -0.026 A 
HETATM   20  C11 UNL     1      19.482  -0.781  53.629  1.00  0.00    -0.002 A 
HETATM   21  C12 UNL     1      19.687  -0.012  52.368  1.00  0.00     0.032 A 
HETATM   22  C13 UNL     1      20.939   0.141  51.871  1.00  0.00     0.049 A 
BRANCH  22  23
HETATM   23  O1  UNL     1      20.615   0.861  50.696  1.00  0.00    -0.365 OA
HETATM   24  H17 UNL     1      20.798   1.881  50.661  1.00  0.00     0.217 HD
ENDBRANCH  22  23
ENDBRANCH  16  17
ENDBRANCH   4  16
BRANCH   1  25
HETATM   25  C3  UNL     1      23.717   5.939  50.578  1.00  0.00     0.025 C 
HETATM   26  C2  UNL     1      24.541   6.860  51.044  1.00  0.00    -0.029 C 
HETATM   27  C1  UNL     1      23.892   8.130  50.674  1.00  0.00     0.036 C 
ENDBRANCH   1  25
TORSDOF 4
ENDMDL
MODEL 4
REMARK VINA RESULT:      -8.4      2.054      7.048
REMARK  4 active torsions:
REMARK  status: ('A' for Active; 'I' for Inactive)
REMARK    1  A    between atoms: C3_3  and  C4_4 
REMARK    2  A    between atoms: N1_7  and  C7_8 
REMARK    3  A    between atoms: C7_8  and  C8_9 
REMARK    4  A    between atoms: C13_14  and  O1_15 
ROOT
HETATM    1  C4  UNL     1      25.833  -0.575  53.039  1.00  0.00     0.034 C 
HETATM    2  C5  UNL     1      24.443  -0.395  53.350  1.00  0.00     0.022 C 
HETATM    3  C6  UNL     1      23.618   0.883  53.090  1.00  0.00     0.152 C 
HETATM    4  N1  UNL     1      22.674   0.920  52.030  1.00  0.00    -0.378 N 
HETATM    5  C14 UNL     1      22.805   1.854  50.814  1.00  0.00     0.041 C 
HETATM    6  C15 UNL     1      23.781   2.584  50.106  1.00  0.00     0.084 C 
HETATM    7  C16 UNL     1      23.458   3.394  48.909  1.00  0.00     0.094 C 
HETATM    8  C17 UNL     1      22.379   4.392  49.250  1.00  0.00    -0.024 C 
HETATM    9  C18 UNL     1      21.452   3.606  49.835  1.00  0.00    -0.024 C 
HETATM   10  C19 UNL     1      21.587   2.138  50.024  1.00  0.00     0.086 C 
HETATM   11  O2  UNL     1      24.651   2.195  50.884  1.00  0.00    -0.263 OA
HETATM   12  C20 UNL     1      25.631   1.972  51.669  1.00  0.00     0.370 C 
HETATM   13  O3  UNL     1      26.482   2.714  51.948  1.00  0.00    -0.238 OA
HETATM   14  N2  UNL     1      25.733   0.686  52.361  1.00  0.00    -0.303 N 
HETATM   15  H24 UNL     1      25.341  -0.037  51.725  1.00  0.00     0.171 HD
ENDROOT
BRANCH   4  16
HETATM   16  C7  UNL     1      21.478   0.159  51.953  1.00  0.00     0.134 C 
BRANCH  16  17
HETATM   17  C8  UNL     1      20.378   0.168  52.937  1.00  0.00     0.063 A 
HETATM   18  C9  UNL     1      19.124   0.497  52.088  1.00  0.00     0.040 A 
HETATM   19  C10 UNL     1      18.058  -0.472  52.182  1.00  0.00    -0.026 A 
HETATM   20  C11 UNL     1      17.898  -1.551  52.928  1.00  0.00    -0.002 A 
HETATM   21  C12 UNL     1      19.054  -1.813  53.833  1.00  0.00     0.032 A 
HETATM   22  C13 UNL     1      20.134  -0.994  53.796  1.00  0.00     0.049 A 
BRANCH  22  23
HETATM   23  O1  UNL     1      20.895  -1.598  54.825  1.00  0.00    -0.365 OA
HETATM   24  H17 UNL     1      20.458  -2.332  55.413  1.00  0.00     0.217 HD
ENDBRANCH  22  23
ENDBRANCH  16  17
ENDBRANCH   4  16
BRANCH   1  25
HETATM   25  C3  UNL     1      26.968  -1.393  53.050  1.00  0.00     0.025 C 
HETATM   26  C2  UNL     1      28.226  -1.006  53.160  1.00  0.00    -0.029 C 
HETATM   27  C1  UNL     1      28.986  -2.268  53.115  1.00  0.00     0.036 C 
ENDBRANCH   1  25
TORSDOF 4
ENDMDL
MODEL 5
REMARK VINA RESULT:      -8.3      1.927      5.773
REMARK  4 active torsions:
REMARK  status: ('A' for Active; 'I' for Inactive)
REMARK    1  A    between atoms: C3_3  and  C4_4 
REMARK    2  A    between atoms: N1_7  and  C7_8 
REMARK    3  A    between atoms: C7_8  and  C8_9 
REMARK    4  A    between atoms: C13_14  and  O1_15 
ROOT
HETATM    1  C4  UNL     1      20.851   0.717  52.557  1.00  0.00     0.034 C 
HETATM    2  C5  UNL     1      21.737   1.820  52.311  1.00  0.00     0.022 C 
HETATM    3  C6  UNL     1      23.150   1.993  52.906  1.00  0.00     0.152 C 
HETATM    4  N1  UNL     1      24.296   1.790  52.094  1.00  0.00    -0.378 N 
HETATM    5  C14 UNL     1      25.321   0.669  52.343  1.00  0.00     0.041 C 
HETATM    6  C15 UNL     1      25.426  -0.584  52.981  1.00  0.00     0.084 C 
HETATM    7  C16 UNL     1      26.671  -1.384  52.965  1.00  0.00     0.094 C 
HETATM    8  C17 UNL     1      27.810  -0.558  53.512  1.00  0.00    -0.024 C 
HETATM    9  C18 UNL     1      27.697   0.577  52.790  1.00  0.00    -0.024 C 
HETATM   10  C19 UNL     1      26.666   0.815  51.747  1.00  0.00     0.086 C 
HETATM   11  O2  UNL     1      24.256  -0.503  53.354  1.00  0.00    -0.263 OA
HETATM   12  C20 UNL     1      23.107  -0.508  53.906  1.00  0.00     0.370 C 
HETATM   13  O3  UNL     1      22.839  -0.934  54.955  1.00  0.00    -0.238 OA
HETATM   14  N2  UNL     1      21.968   0.110  53.224  1.00  0.00    -0.303 N 
HETATM   15  H24 UNL     1      22.107  -0.031  52.204  1.00  0.00     0.171 HD
ENDROOT
BRANCH   4  16
HETATM   16  C7  UNL     1      24.687   2.592  50.989  1.00  0.00     0.134 C 
BRANCH  16  17
HETATM   17  C8  UNL     1      25.156   3.990  51.054  1.00  0.00     0.063 A 
HETATM   18  C9  UNL     1      26.161   4.098  49.880  1.00  0.00     0.040 A 
HETATM   19  C10 UNL     1      25.867   5.141  48.926  1.00  0.00    -0.026 A 
HETATM   20  C11 UNL     1      24.951   6.093  48.900  1.00  0.00    -0.002 A 
HETATM   21  C12 UNL     1      24.048   6.067  50.086  1.00  0.00     0.032 A 
HETATM   22  C13 UNL     1      24.201   5.101  51.025  1.00  0.00     0.049 A 
BRANCH  22  23
HETATM   23  O1  UNL     1      23.194   5.519  51.927  1.00  0.00    -0.365 OA
HETATM   24  H17 UNL     1      22.689   4.808  52.487  1.00  0.00     0.217 HD
ENDBRANCH  22  23
ENDBRANCH  16  17
ENDBRANCH   4  16
BRANCH   1  25
HETATM   25  C3  UNL     1      19.616   0.099  52.336  1.00  0.00     0.025 C 
HETATM   26  C2  UNL     1      18.968  -0.701  53.164  1.00  0.00    -0.029 C 
HETATM   27  C1  UNL     1      17.741  -1.050  52.427  1.00  0.00     0.036 C 
ENDBRANCH   1  25
TORSDOF 4
ENDMDL
MODEL 6
REMARK VINA RESULT:      -8.2      1.989      5.962
REMARK  4 active torsions:
REMARK  status: ('A' for Active; 'I' for Inactive)
REMARK    1  A    between atoms: C3_3  and  C4_4 
REMARK    2  A    between atoms: N1_7  and  C7_8 
REMARK    3  A    between atoms: C7_8  and  C8_9 
REMARK    4  A    between atoms: C13_14  and  O1_15 
ROOT
HETATM    1  C4  UNL     1      26.993   1.855  52.909  1.00  0.00     0.034 C 
HETATM    2  C5  UNL     1      25.873   2.186  52.075  1.00  0.00     0.022 C 
HETATM    3  C6  UNL     1      24.670   1.268  51.773  1.00  0.00     0.152 C 
HETATM    4  N1  UNL     1      23.411   1.521  52.376  1.00  0.00    -0.378 N 
HETATM    5  C14 UNL     1      22.737   0.551  53.364  1.00  0.00     0.041 C 
HETATM    6  C15 UNL     1      23.061  -0.503  54.242  1.00  0.00     0.084 C 
HETATM    7  C16 UNL     1      22.044  -1.197  55.064  1.00  0.00     0.094 C 
HETATM    8  C17 UNL     1      20.956  -1.740  54.170  1.00  0.00    -0.024 C 
HETATM    9  C18 UNL     1      20.640  -0.655  53.432  1.00  0.00    -0.024 C 
HETATM   10  C19 UNL     1      21.279   0.678  53.575  1.00  0.00     0.086 C 
HETATM   11  O2  UNL     1      24.248  -0.412  53.929  1.00  0.00    -0.263 OA
HETATM   12  C20 UNL     1      25.481  -0.514  53.622  1.00  0.00     0.370 C 
HETATM   13  O3  UNL     1      26.103  -1.495  53.553  1.00  0.00    -0.238 OA
HETATM   14  N2  UNL     1      26.244   0.682  53.263  1.00  0.00    -0.303 N 
HETATM   15  H24 UNL     1      25.865   1.469  53.825  1.00  0.00     0.171 HD
ENDROOT
BRANCH   4  16
HETATM   16  C7  UNL     1      22.582   2.649  52.136  1.00  0.00     0.134 C 
BRANCH  16  17
HETATM   17  C8  UNL     1      21.856   2.942  50.885  1.00  0.00     0.063 A 
HETATM   18  C9  UNL     1      22.840   3.834  50.087  1.00  0.00     0.040 A 
HETATM   19  C10 UNL     1      23.174   3.340  48.772  1.00  0.00    -0.026 A 
HETATM   20  C11 UNL     1      22.733   2.313  48.067  1.00  0.00    -0.002 A 
HETATM   21  C12 UNL     1      21.700   1.512  48.785  1.00  0.00     0.032 A 
HETATM   22  C13 UNL     1      21.342   1.856  50.047  1.00  0.00     0.049 A 
BRANCH  22  23
HETATM   23  O1  UNL     1      20.344   0.875  50.259  1.00  0.00    -0.365 OA
HETATM   24  H17 UNL     1      19.780   0.544  49.455  1.00  0.00     0.217 HD
ENDBRANCH  22  23
ENDBRANCH  16  17
ENDBRANCH   4  16
BRANCH   1  25
HETATM   25  C3  UNL     1      28.220   2.223  53.472  1.00  0.00     0.025 C 
HETATM   26  C2  UNL     1      28.987   1.489  54.257  1.00  0.00    -0.029 C 
HETATM   27  C1  UNL     1      30.137   2.366  54.543  1.00  0.00     0.036 C 
ENDBRANCH   1  25
TORSDOF 4
ENDMDL
MODEL 7
REMARK VINA RESULT:      -8.0      2.213      5.264
REMARK  4 active torsions:
REMARK  status: ('A' for Active; 'I' for Inactive)
REMARK    1  A    between atoms: C3_3  and  C4_4 
REMARK    2  A    between atoms: N1_7  and  C7_8 
REMARK    3  A    between atoms: C7_8  and  C8_9 
REMARK    4  A    between atoms: C13_14  and  O1_15 
ROOT
HETATM    1  C4  UNL     1      20.355   0.710  51.106  1.00  0.00     0.034 C 
HETATM    2  C5  UNL     1      21.695   0.764  51.618  1.00  0.00     0.022 C 
HETATM    3  C6  UNL     1      22.906   1.409  50.911  1.00  0.00     0.152 C 
HETATM    4  N1  UNL     1      23.420   2.650  51.368  1.00  0.00    -0.378 N 
HETATM    5  C14 UNL     1      23.399   3.937  50.523  1.00  0.00     0.041 C 
HETATM    6  C15 UNL     1      22.715   4.507  49.431  1.00  0.00     0.084 C 
HETATM    7  C16 UNL     1      23.024   5.860  48.914  1.00  0.00     0.094 C 
HETATM    8  C17 UNL     1      24.489   5.943  48.559  1.00  0.00    -0.024 C 
HETATM    9  C18 UNL     1      25.071   5.470  49.681  1.00  0.00    -0.024 C 
HETATM   10  C19 UNL     1      24.334   5.023  50.890  1.00  0.00     0.086 C 
HETATM   11  O2  UNL     1      22.022   3.496  49.325  1.00  0.00    -0.263 OA
HETATM   12  C20 UNL     1      21.314   2.480  49.020  1.00  0.00     0.370 C 
HETATM   13  O3  UNL     1      21.018   2.133  47.950  1.00  0.00    -0.238 OA
HETATM   14  N2  UNL     1      20.830   1.586  50.073  1.00  0.00    -0.303 N 
HETATM   15  H24 UNL     1      20.648   2.171  50.913  1.00  0.00     0.171 HD
ENDROOT
BRANCH   4  16
HETATM   16  C7  UNL     1      24.055   2.881  52.618  1.00  0.00     0.134 C 
BRANCH  16  17
HETATM   17  C8  UNL     1      25.325   2.280  53.070  1.00  0.00     0.063 A 
HETATM   18  C9  UNL     1      24.899   0.912  53.658  1.00  0.00     0.040 A 
HETATM   19  C10 UNL     1      25.558  -0.231  53.071  1.00  0.00    -0.026 A 
HETATM   20  C11 UNL     1      26.532  -0.340  52.184  1.00  0.00    -0.002 A 
HETATM   21  C12 UNL     1      27.027   0.979  51.695  1.00  0.00     0.032 A 
HETATM   22  C13 UNL     1      26.448   2.121  52.143  1.00  0.00     0.049 A 
BRANCH  22  23
HETATM   23  O1  UNL     1      27.266   3.054  51.463  1.00  0.00    -0.365 OA
HETATM   24  H17 UNL     1      26.822   3.779  50.868  1.00  0.00     0.217 HD
ENDBRANCH  22  23
ENDBRANCH  16  17
ENDBRANCH   4  16
BRANCH   1  25
HETATM   25  C3  UNL     1      19.026   0.305  51.268  1.00  0.00     0.025 C 
HETATM   26  C2  UNL     1      18.555  -0.537  52.170  1.00  0.00    -0.029 C 
HETATM   27  C1  UNL     1      17.111  -0.590  51.881  1.00  0.00     0.036 C 
ENDBRANCH   1  25
TORSDOF 4
ENDMDL
MODEL 8
REMARK VINA RESULT:      -8.0      1.758      6.434
REMARK  4 active torsions:
REMARK  status: ('A' for Active; 'I' for Inactive)
REMARK    1  A    between atoms: C3_3  and  C4_4 
REMARK    2  A    between atoms: N1_7  and  C7_8 
REMARK    3  A    between atoms: C7_8  and  C8_9 
REMARK    4  A    between atoms: C13_14  and  O1_15 
ROOT
HETATM    1  C4  UNL     1      26.923   1.152  52.906  1.00  0.00     0.034 C 
HETATM    2  C5  UNL     1      25.675   1.558  53.487  1.00  0.00     0.022 C 
HETATM    3  C6  UNL     1      24.761   2.687  52.964  1.00  0.00     0.152 C 
HETATM    4  N1  UNL     1      23.553   2.372  52.291  1.00  0.00    -0.378 N 
HETATM    5  C14 UNL     1      23.292   2.720  50.814  1.00  0.00     0.041 C 
HETATM    6  C15 UNL     1      23.995   3.016  49.629  1.00  0.00     0.084 C 
HETATM    7  C16 UNL     1      23.311   3.298  48.346  1.00  0.00     0.094 C 
HETATM    8  C17 UNL     1      22.337   4.436  48.531  1.00  0.00    -0.024 C 
HETATM    9  C18 UNL     1      21.649   4.034  49.619  1.00  0.00    -0.024 C 
HETATM   10  C19 UNL     1      21.889   2.763  50.349  1.00  0.00     0.086 C 
HETATM   11  O2  UNL     1      25.066   2.903  50.223  1.00  0.00    -0.263 OA
HETATM   12  C20 UNL     1      26.238   2.935  50.725  1.00  0.00     0.370 C 
HETATM   13  O3  UNL     1      27.104   3.652  50.427  1.00  0.00    -0.238 OA
HETATM   14  N2  UNL     1      26.584   2.035  51.826  1.00  0.00    -0.303 N 
HETATM   15  H24 UNL     1      26.055   1.152  51.679  1.00  0.00     0.171 HD
ENDROOT
BRANCH   4  16
HETATM   16  C7  UNL     1      22.414   1.748  52.868  1.00  0.00     0.134 C 
BRANCH  16  17
HETATM   17  C8  UNL     1      21.893   0.410  52.530  1.00  0.00     0.063 A 
HETATM   18  C9  UNL     1      22.770  -0.552  53.372  1.00  0.00     0.040 A 
HETATM   19  C10 UNL     1      22.034  -1.426  54.253  1.00  0.00    -0.026 A 
HETATM   20  C11 UNL     1      20.741  -1.638  54.423  1.00  0.00    -0.002 A 
HETATM   21  C12 UNL     1      19.890  -0.796  53.535  1.00  0.00     0.032 A 
HETATM   22  C13 UNL     1      20.472   0.098  52.697  1.00  0.00     0.049 A 
BRANCH  22  23
HETATM   23  O1  UNL     1      19.305   0.585  52.062  1.00  0.00    -0.365 OA
HETATM   24  H17 UNL     1      18.459  -0.014  52.028  1.00  0.00     0.217 HD
ENDBRANCH  22  23
ENDBRANCH  16  17
ENDBRANCH   4  16
BRANCH   1  25
HETATM   25  C3  UNL     1      28.044   0.316  52.937  1.00  0.00     0.025 C 
HETATM   26  C2  UNL     1      28.628  -0.192  54.007  1.00  0.00    -0.029 C 
HETATM   27  C1  UNL     1      29.741  -0.986  53.457  1.00  0.00     0.036 C 
ENDBRANCH   1  25
TORSDOF 4
ENDMDL
MODEL 9
REMARK VINA RESULT:      -7.9      7.223      9.661
REMARK  4 active torsions:
REMARK  status: ('A' for Active; 'I' for Inactive)
REMARK    1  A    between atoms: C3_3  and  C4_4 
REMARK    2  A    between atoms: N1_7  and  C7_8 
REMARK    3  A    between atoms: C7_8  and  C8_9 
REMARK    4  A    between atoms: C13_14  and  O1_15 
ROOT
HETATM    1  C4  UNL     1      27.293   4.917  49.061  1.00  0.00     0.034 C 
HETATM    2  C5  UNL     1      28.563   4.829  48.397  1.00  0.00     0.022 C 
HETATM    3  C6  UNL     1      29.294   5.990  47.689  1.00  0.00     0.152 C 
HETATM    4  N1  UNL     1      30.431   6.589  48.291  1.00  0.00    -0.378 N 
HETATM    5  C14 UNL     1      30.468   8.056  48.755  1.00  0.00     0.041 C 
HETATM    6  C15 UNL     1      29.595   9.100  49.125  1.00  0.00     0.084 C 
HETATM    7  C16 UNL     1      30.081  10.436  49.539  1.00  0.00     0.094 C 
HETATM    8  C17 UNL     1      30.961  11.012  48.456  1.00  0.00    -0.024 C 
HETATM    9  C18 UNL     1      31.817   9.995  48.227  1.00  0.00    -0.024 C 
HETATM   10  C19 UNL     1      31.790   8.692  48.940  1.00  0.00     0.086 C 
HETATM   11  O2  UNL     1      28.624   8.371  48.928  1.00  0.00    -0.263 OA
HETATM   12  C20 UNL     1      27.528   7.779  48.656  1.00  0.00     0.370 C 
HETATM   13  O3  UNL     1      26.568   8.260  48.209  1.00  0.00    -0.238 OA
HETATM   14  N2  UNL     1      27.409   6.334  48.861  1.00  0.00    -0.303 N 
HETATM   15  H24 UNL     1      27.995   6.092  49.685  1.00  0.00     0.171 HD
ENDROOT
BRANCH   4  16
HETATM   16  C7  UNL     1      31.686   5.961  48.511  1.00  0.00     0.134 C 
BRANCH  16  17
HETATM   17  C8  UNL     1      32.542   5.346  47.477  1.00  0.00     0.063 A 
HETATM   18  C9  UNL     1      33.981   5.684  47.940  1.00  0.00     0.040 A 
HETATM   19  C10 UNL     1      34.843   4.540  48.118  1.00  0.00    -0.026 A 
HETATM   20  C11 UNL     1      34.677   3.252  47.876  1.00  0.00    -0.002 A 
HETATM   21  C12 UNL     1      33.330   2.931  47.323  1.00  0.00     0.032 A 
HETATM   22  C13 UNL     1      32.419   3.922  47.157  1.00  0.00     0.049 A 
BRANCH  22  23
HETATM   23  O1  UNL     1      31.376   3.158  46.583  1.00  0.00    -0.365 OA
HETATM   24  H17 UNL     1      31.213   3.210  45.560  1.00  0.00     0.217 HD
ENDBRANCH  22  23
ENDBRANCH  16  17
ENDBRANCH   4  16
BRANCH   1  25
HETATM   25  C3  UNL     1      26.268   4.289  49.776  1.00  0.00     0.025 C 
HETATM   26  C2  UNL     1      26.187   3.008  50.089  1.00  0.00    -0.029 C 
HETATM   27  C1  UNL     1      24.919   2.909  50.834  1.00  0.00     0.036 C 
ENDBRANCH   1  25
TORSDOF 4
ENDMDL
