MODEL 1
REMARK VINA RESULT:      -6.9      0.000      0.000
REMARK  6 active torsions:
REMARK  status: ('A' for Active; 'I' for Inactive)
REMARK    1  A    between atoms: C2_2  and  C3_3 
REMARK    2  A    between atoms: C3_3  and  C4_4 
REMARK    3  A    between atoms: C4_4  and  C5_5 
REMARK    4  A    between atoms: C8_11  and  C9_12 
REMARK    5  A    between atoms: C9_12  and  C10_13 
REMARK    6  A    between atoms: C10_13  and  S2_14 
ROOT
HETATM    1  C5  UNL     1      22.745   2.140  51.704  1.00  0.00     0.185 C 
HETATM    2  S1  UNL     1      22.513   2.243  49.733  1.00  0.00    -0.052 SA
HETATM    3  C6  UNL     1      24.080   3.098  50.244  1.00  0.00     0.280 A 
HETATM    4  C7  UNL     1      25.311   2.907  50.446  1.00  0.00     0.248 A 
HETATM    5 CL1  UNL     1      26.604   3.504  49.416  1.00  0.00    -0.057 Cl
HETATM    6  N1  UNL     1      24.295   2.319  51.420  1.00  0.00     0.065 N 
HETATM    7  C8  UNL     1      24.624   2.203  52.836  1.00  0.00     0.348 C 
HETATM    8  O1  UNL     1      24.095   3.565  53.362  1.00  0.00    -0.329 OA
HETATM    9  C15 UNL     1      23.623   4.561  52.373  1.00  0.00     0.137 C 
HETATM   10  C16 UNL     1      23.381   4.420  50.930  1.00  0.00     0.057 C 
ENDROOT
BRANCH   7  11
HETATM   11  C9  UNL     1      25.961   2.185  53.408  1.00  0.00     0.073 C 
BRANCH  11  12
HETATM   12  C10 UNL     1      26.335   1.012  54.303  1.00  0.00     0.069 C 
BRANCH  12  13
HETATM   13  S2  UNL     1      27.645   0.216  53.847  1.00  0.00    -0.183 SA
HETATM   14  C11 UNL     1      28.472   0.345  55.232  1.00  0.00     0.080 C 
HETATM   15  N2  UNL     1      26.673  -1.105  53.558  1.00  0.00    -0.286 NA
HETATM   16  C12 UNL     1      26.843  -2.112  52.566  1.00  0.00     0.185 C 
HETATM   17  C13 UNL     1      28.118  -2.853  52.863  1.00  0.00     0.292 C 
HETATM   18  N3  UNL     1      29.001  -1.891  53.537  1.00  0.00     0.093 N 
HETATM   19  C14 UNL     1      28.692  -0.541  52.990  1.00  0.00     0.333 C 
HETATM   20  H20 UNL     1      28.740  -1.959  54.541  1.00  0.00     0.316 HD
HETATM   21  H12 UNL     1      27.726   1.300  52.795  1.00  0.00     0.095 HD
ENDBRANCH  12  13
ENDBRANCH  11  12
ENDBRANCH   7  11
BRANCH   1  22
HETATM   22  C4  UNL     1      21.852   2.018  52.526  1.00  0.00     0.025 C 
BRANCH  22  23
HETATM   23  C3  UNL     1      22.052   0.637  52.825  1.00  0.00     0.023 C 
BRANCH  23  24
HETATM   24  C2  UNL     1      22.030  -0.551  53.340  1.00  0.00    -0.006 C 
HETATM   25  C1  UNL     1      21.781  -1.694  54.220  1.00  0.00     0.011 C 
ENDBRANCH  23  24
ENDBRANCH  22  23
ENDBRANCH   1  22
TORSDOF 6
ENDMDL
MODEL 2
REMARK VINA RESULT:      -6.7      2.078      2.794
REMARK  6 active torsions:
REMARK  status: ('A' for Active; 'I' for Inactive)
REMARK    1  A    between atoms: C2_2  and  C3_3 
REMARK    2  A    between atoms: C3_3  and  C4_4 
REMARK    3  A    between atoms: C4_4  and  C5_5 
REMARK    4  A    between atoms: C8_11  and  C9_12 
REMARK    5  A    between atoms: C9_12  and  C10_13 
REMARK    6  A    between atoms: C10_13  and  S2_14 
ROOT
HETATM    1  C5  UNL     1      20.891   1.487  52.245  1.00  0.00     0.185 C 
HETATM    2  S1  UNL     1      19.763   0.792  50.762  1.00  0.00    -0.052 SA
HETATM    3  C6  UNL     1      21.108   1.882  50.093  1.00  0.00     0.280 A 
HETATM    4  C7  UNL     1      22.297   1.869  49.668  1.00  0.00     0.248 A 
HETATM    5 CL1  UNL     1      22.770   2.099  47.991  1.00  0.00    -0.057 Cl
HETATM    6  N1  UNL     1      22.032   1.644  51.154  1.00  0.00     0.065 N 
HETATM    7  C8  UNL     1      22.990   2.116  52.146  1.00  0.00     0.348 C 
HETATM    8  O1  UNL     1      22.430   3.536  52.428  1.00  0.00    -0.329 OA
HETATM    9  C15 UNL     1      21.318   4.030  51.585  1.00  0.00     0.137 C 
HETATM   10  C16 UNL     1      20.487   3.317  50.604  1.00  0.00     0.057 C 
ENDROOT
BRANCH   7  11
HETATM   11  C9  UNL     1      24.395   2.413  51.910  1.00  0.00     0.073 C 
BRANCH  11  12
HETATM   12  C10 UNL     1      25.362   1.243  51.810  1.00  0.00     0.069 C 
BRANCH  12  13
HETATM   13  S2  UNL     1      25.930   0.724  53.212  1.00  0.00    -0.183 SA
HETATM   14  C11 UNL     1      25.584  -0.845  53.021  1.00  0.00     0.080 C 
HETATM   15  N2  UNL     1      27.418   1.327  52.767  1.00  0.00    -0.286 NA
HETATM   16  C12 UNL     1      28.426   1.870  53.613  1.00  0.00     0.185 C 
HETATM   17  C13 UNL     1      28.909   0.779  54.529  1.00  0.00     0.292 C 
HETATM   18  N3  UNL     1      27.770  -0.132  54.714  1.00  0.00     0.093 N 
HETATM   19  C14 UNL     1      26.527   0.686  54.642  1.00  0.00     0.333 C 
HETATM   20  H20 UNL     1      27.834  -0.791  53.912  1.00  0.00     0.316 HD
HETATM   21  H12 UNL     1      24.903   1.678  53.783  1.00  0.00     0.095 HD
ENDBRANCH  12  13
ENDBRANCH  11  12
ENDBRANCH   7  11
BRANCH   1  22
HETATM   22  C4  UNL     1      20.540   1.639  53.403  1.00  0.00     0.025 C 
BRANCH  22  23
HETATM   23  C3  UNL     1      20.993   0.384  53.908  1.00  0.00     0.023 C 
BRANCH  23  24
HETATM   24  C2  UNL     1      21.630  -0.571  54.507  1.00  0.00    -0.006 C 
HETATM   25  C1  UNL     1      22.672  -1.379  55.143  1.00  0.00     0.011 C 
ENDBRANCH  23  24
ENDBRANCH  22  23
ENDBRANCH   1  22
TORSDOF 6
ENDMDL
MODEL 3
REMARK VINA RESULT:      -6.4      1.812      2.357
REMARK  6 active torsions:
REMARK  status: ('A' for Active; 'I' for Inactive)
REMARK    1  A    between atoms: C2_2  and  C3_3 
REMARK    2  A    between atoms: C3_3  and  C4_4 
REMARK    3  A    between atoms: C4_4  and  C5_5 
REMARK    4  A    between atoms: C8_11  and  C9_12 
REMARK    5  A    between atoms: C9_12  and  C10_13 
REMARK    6  A    between atoms: C10_13  and  S2_14 
ROOT
HETATM    1  C5  UNL     1      21.997   3.761  51.165  1.00  0.00     0.185 C 
HETATM    2  S1  UNL     1      22.058   3.942  49.186  1.00  0.00    -0.052 SA
HETATM    3  C6  UNL     1      23.770   4.043  49.897  1.00  0.00     0.280 A 
HETATM    4  C7  UNL     1      24.770   3.342  50.219  1.00  0.00     0.248 A 
HETATM    5 CL1  UNL     1      26.302   3.318  49.359  1.00  0.00    -0.057 Cl
HETATM    6  N1  UNL     1      23.496   3.254  51.055  1.00  0.00     0.065 N 
HETATM    7  C8  UNL     1      23.579   3.018  52.490  1.00  0.00     0.348 C 
HETATM    8  O1  UNL     1      23.629   4.478  53.016  1.00  0.00    -0.329 OA
HETATM    9  C15 UNL     1      23.744   5.574  52.027  1.00  0.00     0.137 C 
HETATM   10  C16 UNL     1      23.631   5.541  50.562  1.00  0.00     0.057 C 
ENDROOT
BRANCH   7  11
HETATM   11  C9  UNL     1      24.705   2.429  53.200  1.00  0.00     0.073 C 
BRANCH  11  12
HETATM   12  C10 UNL     1      25.041   0.972  52.915  1.00  0.00     0.069 C 
BRANCH  12  13
HETATM   13  S2  UNL     1      26.175   0.353  53.858  1.00  0.00    -0.183 SA
HETATM   14  C11 UNL     1      26.016  -1.192  53.404  1.00  0.00     0.080 C 
HETATM   15  N2  UNL     1      27.270   1.353  53.100  1.00  0.00    -0.286 NA
HETATM   16  C12 UNL     1      28.435   1.951  53.659  1.00  0.00     0.185 C 
HETATM   17  C13 UNL     1      29.388   0.853  54.045  1.00  0.00     0.292 C 
HETATM   18  N3  UNL     1      28.555  -0.314  54.369  1.00  0.00     0.093 N 
HETATM   19  C14 UNL     1      27.277   0.194  54.938  1.00  0.00     0.333 C 
HETATM   20  H20 UNL     1      28.401  -0.783  53.455  1.00  0.00     0.316 HD
HETATM   21  H12 UNL     1      25.320   0.924  54.968  1.00  0.00     0.095 HD
ENDBRANCH  12  13
ENDBRANCH  11  12
ENDBRANCH   7  11
BRANCH   1  22
HETATM   22  C4  UNL     1      21.050   4.041  51.882  1.00  0.00     0.025 C 
BRANCH  22  23
HETATM   23  C3  UNL     1      20.536   2.720  52.047  1.00  0.00     0.023 C 
BRANCH  23  24
HETATM   24  C2  UNL     1      20.157   1.492  51.886  1.00  0.00    -0.006 C 
HETATM   25  C1  UNL     1      19.461   0.287  51.431  1.00  0.00     0.011 C 
ENDBRANCH  23  24
ENDBRANCH  22  23
ENDBRANCH   1  22
TORSDOF 6
ENDMDL
MODEL 4
REMARK VINA RESULT:      -6.2      3.568      5.882
REMARK  6 active torsions:
REMARK  status: ('A' for Active; 'I' for Inactive)
REMARK    1  A    between atoms: C2_2  and  C3_3 
REMARK    2  A    between atoms: C3_3  and  C4_4 
REMARK    3  A    between atoms: C4_4  and  C5_5 
REMARK    4  A    between atoms: C8_11  and  C9_12 
REMARK    5  A    between atoms: C9_12  and  C10_13 
REMARK    6  A    between atoms: C10_13  and  S2_14 
ROOT
HETATM    1  C5  UNL     1      23.863   2.482  51.902  1.00  0.00     0.185 C 
HETATM    2  S1  UNL     1      22.377   1.227  51.488  1.00  0.00    -0.052 SA
HETATM    3  C6  UNL     1      22.541   2.499  50.145  1.00  0.00     0.280 A 
HETATM    4  C7  UNL     1      23.118   2.736  49.048  1.00  0.00     0.248 A 
HETATM    5 CL1  UNL     1      22.328   2.760  47.478  1.00  0.00    -0.057 Cl
HETATM    6  N1  UNL     1      23.934   2.738  50.338  1.00  0.00     0.065 N 
HETATM    7  C8  UNL     1      25.070   3.641  50.482  1.00  0.00     0.348 C 
HETATM    8  O1  UNL     1      24.371   4.875  51.115  1.00  0.00    -0.329 OA
HETATM    9  C15 UNL     1      22.894   4.866  51.220  1.00  0.00     0.137 C 
HETATM   10  C16 UNL     1      21.937   3.774  50.991  1.00  0.00     0.057 C 
ENDROOT
BRANCH   7  11
HETATM   11  C9  UNL     1      25.812   4.266  49.399  1.00  0.00     0.073 C 
BRANCH  11  12
HETATM   12  C10 UNL     1      25.361   5.642  48.929  1.00  0.00     0.069 C 
BRANCH  12  13
HETATM   13  S2  UNL     1      26.545   6.694  48.709  1.00  0.00    -0.183 SA
HETATM   14  C11 UNL     1      26.261   7.617  50.007  1.00  0.00     0.080 C 
HETATM   15  N2  UNL     1      27.615   5.420  48.789  1.00  0.00    -0.286 NA
HETATM   16  C12 UNL     1      28.858   5.282  48.109  1.00  0.00     0.185 C 
HETATM   17  C13 UNL     1      29.784   6.362  48.599  1.00  0.00     0.292 C 
HETATM   18  N3  UNL     1      28.925   7.490  48.986  1.00  0.00     0.093 N 
HETATM   19  C14 UNL     1      27.735   7.473  48.091  1.00  0.00     0.333 C 
HETATM   20  H20 UNL     1      28.659   7.286  49.969  1.00  0.00     0.316 HD
HETATM   21  H12 UNL     1      25.832   6.960  47.401  1.00  0.00     0.095 HD
ENDBRANCH  12  13
ENDBRANCH  11  12
ENDBRANCH   7  11
BRANCH   1  22
HETATM   22  C4  UNL     1      24.286   2.751  53.013  1.00  0.00     0.025 C 
BRANCH  22  23
HETATM   23  C3  UNL     1      25.232   1.687  53.121  1.00  0.00     0.023 C 
BRANCH  23  24
HETATM   24  C2  UNL     1      25.851   0.551  53.084  1.00  0.00    -0.006 C 
HETATM   25  C1  UNL     1      26.801  -0.520  52.775  1.00  0.00     0.011 C 
ENDBRANCH  23  24
ENDBRANCH  22  23
ENDBRANCH   1  22
TORSDOF 6
ENDMDL
MODEL 5
REMARK VINA RESULT:      -6.1      2.858      4.585
REMARK  6 active torsions:
REMARK  status: ('A' for Active; 'I' for Inactive)
REMARK    1  A    between atoms: C2_2  and  C3_3 
REMARK    2  A    between atoms: C3_3  and  C4_4 
REMARK    3  A    between atoms: C4_4  and  C5_5 
REMARK    4  A    between atoms: C8_11  and  C9_12 
REMARK    5  A    between atoms: C9_12  and  C10_13 
REMARK    6  A    between atoms: C10_13  and  S2_14 
ROOT
HETATM    1  C5  UNL     1      20.968   3.134  50.985  1.00  0.00     0.185 C 
HETATM    2  S1  UNL     1      19.100   2.786  51.569  1.00  0.00    -0.052 SA
HETATM    3  C6  UNL     1      20.260   1.571  52.359  1.00  0.00     0.280 A 
HETATM    4  C7  UNL     1      20.987   1.386  53.374  1.00  0.00     0.248 A 
HETATM    5 CL1  UNL     1      20.644   0.245  54.666  1.00  0.00    -0.057 Cl
HETATM    6  N1  UNL     1      21.405   2.422  52.334  1.00  0.00     0.065 N 
HETATM    7  C8  UNL     1      22.818   2.658  52.066  1.00  0.00     0.348 C 
HETATM    8  O1  UNL     1      23.061   1.644  50.915  1.00  0.00    -0.329 OA
HETATM    9  C15 UNL     1      21.971   0.704  50.569  1.00  0.00     0.137 C 
HETATM   10  C16 UNL     1      20.570   0.675  51.014  1.00  0.00     0.057 C 
ENDROOT
BRANCH   7  11
HETATM   11  C9  UNL     1      23.926   2.341  52.954  1.00  0.00     0.073 C 
BRANCH  11  12
HETATM   12  C10 UNL     1      25.059   1.489  52.401  1.00  0.00     0.069 C 
BRANCH  12  13
HETATM   13  S2  UNL     1      25.916   0.718  53.509  1.00  0.00    -0.183 SA
HETATM   14  C11 UNL     1      25.460  -0.788  53.129  1.00  0.00     0.080 C 
HETATM   15  N2  UNL     1      27.284   1.388  52.836  1.00  0.00    -0.286 NA
HETATM   16  C12 UNL     1      28.487   1.762  53.498  1.00  0.00     0.185 C 
HETATM   17  C13 UNL     1      29.120   0.518  54.060  1.00  0.00     0.292 C 
HETATM   18  N3  UNL     1      28.015  -0.408  54.347  1.00  0.00     0.093 N 
HETATM   19  C14 UNL     1      26.831   0.413  54.724  1.00  0.00     0.333 C 
HETATM   20  H20 UNL     1      27.857  -0.907  53.449  1.00  0.00     0.316 HD
HETATM   21  H12 UNL     1      25.099   1.552  54.472  1.00  0.00     0.095 HD
ENDBRANCH  12  13
ENDBRANCH  11  12
ENDBRANCH   7  11
BRANCH   1  22
HETATM   22  C4  UNL     1      21.306   3.669  49.943  1.00  0.00     0.025 C 
BRANCH  22  23
HETATM   23  C3  UNL     1      21.339   5.014  50.419  1.00  0.00     0.023 C 
BRANCH  23  24
HETATM   24  C2  UNL     1      21.241   6.297  50.561  1.00  0.00    -0.006 C 
HETATM   25  C1  UNL     1      21.481   7.739  50.482  1.00  0.00     0.011 C 
ENDBRANCH  23  24
ENDBRANCH  22  23
ENDBRANCH   1  22
TORSDOF 6
ENDMDL
MODEL 6
REMARK VINA RESULT:      -6.1      3.207      5.364
REMARK  6 active torsions:
REMARK  status: ('A' for Active; 'I' for Inactive)
REMARK    1  A    between atoms: C2_2  and  C3_3 
REMARK    2  A    between atoms: C3_3  and  C4_4 
REMARK    3  A    between atoms: C4_4  and  C5_5 
REMARK    4  A    between atoms: C8_11  and  C9_12 
REMARK    5  A    between atoms: C9_12  and  C10_13 
REMARK    6  A    between atoms: C10_13  and  S2_14 
ROOT
HETATM    1  C5  UNL     1      24.927   6.440  49.309  1.00  0.00     0.185 C 
HETATM    2  S1  UNL     1      24.167   7.834  50.506  1.00  0.00    -0.052 SA
HETATM    3  C6  UNL     1      23.540   6.155  50.990  1.00  0.00     0.280 A 
HETATM    4  C7  UNL     1      23.792   5.158  51.723  1.00  0.00     0.248 A 
HETATM    5 CL1  UNL     1      22.890   4.715  53.165  1.00  0.00    -0.057 Cl
HETATM    6  N1  UNL     1      24.669   5.430  50.504  1.00  0.00     0.065 N 
HETATM    7  C8  UNL     1      25.253   4.319  49.764  1.00  0.00     0.348 C 
HETATM    8  O1  UNL     1      24.144   4.068  48.707  1.00  0.00    -0.329 OA
HETATM    9  C15 UNL     1      22.873   4.815  48.835  1.00  0.00     0.137 C 
HETATM   10  C16 UNL     1      22.521   5.938  49.716  1.00  0.00     0.057 C 
ENDROOT
BRANCH   7  11
HETATM   11  C9  UNL     1      25.469   2.971  50.266  1.00  0.00     0.073 C 
BRANCH  11  12
HETATM   12  C10 UNL     1      26.613   2.751  51.245  1.00  0.00     0.069 C 
BRANCH  12  13
HETATM   13  S2  UNL     1      26.620   1.317  51.953  1.00  0.00    -0.183 SA
HETATM   14  C11 UNL     1      27.869   1.572  52.950  1.00  0.00     0.080 C 
HETATM   15  N2  UNL     1      25.060   1.619  52.451  1.00  0.00    -0.286 NA
HETATM   16  C12 UNL     1      24.009   0.678  52.641  1.00  0.00     0.185 C 
HETATM   17  C13 UNL     1      24.406  -0.252  53.755  1.00  0.00     0.292 C 
HETATM   18  N3  UNL     1      25.874  -0.318  53.726  1.00  0.00     0.093 N 
HETATM   19  C14 UNL     1      26.301  -0.158  52.309  1.00  0.00     0.333 C 
HETATM   20  H20 UNL     1      26.180   0.489  54.304  1.00  0.00     0.316 HD
HETATM   21  H12 UNL     1      26.847   0.815  50.544  1.00  0.00     0.095 HD
ENDBRANCH  12  13
ENDBRANCH  11  12
ENDBRANCH   7  11
BRANCH   1  22
HETATM   22  C4  UNL     1      25.313   6.610  48.164  1.00  0.00     0.025 C 
BRANCH  22  23
HETATM   23  C3  UNL     1      26.714   6.519  48.418  1.00  0.00     0.023 C 
BRANCH  23  24
HETATM   24  C2  UNL     1      27.989   6.299  48.356  1.00  0.00    -0.006 C 
HETATM   25  C1  UNL     1      29.295   5.661  48.189  1.00  0.00     0.011 C 
ENDBRANCH  23  24
ENDBRANCH  22  23
ENDBRANCH   1  22
TORSDOF 6
ENDMDL
MODEL 7
REMARK VINA RESULT:      -6.0      3.133      6.087
REMARK  6 active torsions:
REMARK  status: ('A' for Active; 'I' for Inactive)
REMARK    1  A    between atoms: C2_2  and  C3_3 
REMARK    2  A    between atoms: C3_3  and  C4_4 
REMARK    3  A    between atoms: C4_4  and  C5_5 
REMARK    4  A    between atoms: C8_11  and  C9_12 
REMARK    5  A    between atoms: C9_12  and  C10_13 
REMARK    6  A    between atoms: C10_13  and  S2_14 
ROOT
HETATM    1  C5  UNL     1      23.688   1.310  52.444  1.00  0.00     0.185 C 
HETATM    2  S1  UNL     1      22.226  -0.038  52.451  1.00  0.00    -0.052 SA
HETATM    3  C6  UNL     1      21.888   1.275  51.182  1.00  0.00     0.280 A 
HETATM    4  C7  UNL     1      22.082   1.579  49.972  1.00  0.00     0.248 A 
HETATM    5 CL1  UNL     1      20.844   1.585  48.725  1.00  0.00    -0.057 Cl
HETATM    6  N1  UNL     1      23.256   1.608  50.947  1.00  0.00     0.065 N 
HETATM    7  C8  UNL     1      24.323   2.586  50.775  1.00  0.00     0.348 C 
HETATM    8  O1  UNL     1      23.782   3.751  51.647  1.00  0.00    -0.329 OA
HETATM    9  C15 UNL     1      22.414   3.634  52.201  1.00  0.00     0.137 C 
HETATM   10  C16 UNL     1      21.501   2.482  52.230  1.00  0.00     0.057 C 
ENDROOT
BRANCH   7  11
HETATM   11  C9  UNL     1      24.654   3.289  49.546  1.00  0.00     0.073 C 
BRANCH  11  12
HETATM   12  C10 UNL     1      26.070   3.824  49.392  1.00  0.00     0.069 C 
BRANCH  12  13
HETATM   13  S2  UNL     1      26.183   5.420  49.387  1.00  0.00    -0.183 SA
HETATM   14  C11 UNL     1      27.540   5.540  48.512  1.00  0.00     0.080 C 
HETATM   15  N2  UNL     1      24.690   5.466  48.651  1.00  0.00    -0.286 NA
HETATM   16  C12 UNL     1      23.683   6.464  48.786  1.00  0.00     0.185 C 
HETATM   17  C13 UNL     1      24.226   7.756  48.237  1.00  0.00     0.292 C 
HETATM   18  N3  UNL     1      25.681   7.706  48.441  1.00  0.00     0.093 N 
HETATM   19  C14 UNL     1      25.932   6.921  49.682  1.00  0.00     0.333 C 
HETATM   20  H20 UNL     1      26.042   7.210  47.603  1.00  0.00     0.316 HD
HETATM   21  H12 UNL     1      26.247   5.247  50.889  1.00  0.00     0.095 HD
ENDBRANCH  12  13
ENDBRANCH  11  12
ENDBRANCH   7  11
BRANCH   1  22
HETATM   22  C4  UNL     1      24.419   1.581  53.382  1.00  0.00     0.025 C 
BRANCH  22  23
HETATM   23  C3  UNL     1      25.401   0.570  53.159  1.00  0.00     0.023 C 
BRANCH  23  24
HETATM   24  C2  UNL     1      26.091  -0.434  52.720  1.00  0.00    -0.006 C 
HETATM   25  C1  UNL     1      26.889  -1.659  52.638  1.00  0.00     0.011 C 
ENDBRANCH  23  24
ENDBRANCH  22  23
ENDBRANCH   1  22
TORSDOF 6
ENDMDL
MODEL 8
REMARK VINA RESULT:      -6.0      2.328      5.634
REMARK  6 active torsions:
REMARK  status: ('A' for Active; 'I' for Inactive)
REMARK    1  A    between atoms: C2_2  and  C3_3 
REMARK    2  A    between atoms: C3_3  and  C4_4 
REMARK    3  A    between atoms: C4_4  and  C5_5 
REMARK    4  A    between atoms: C8_11  and  C9_12 
REMARK    5  A    between atoms: C9_12  and  C10_13 
REMARK    6  A    between atoms: C10_13  and  S2_14 
ROOT
HETATM    1  C5  UNL     1      25.315  -0.102  53.608  1.00  0.00     0.185 C 
HETATM    2  S1  UNL     1      25.966  -0.158  55.486  1.00  0.00    -0.052 SA
HETATM    3  C6  UNL     1      27.288   0.505  54.363  1.00  0.00     0.280 A 
HETATM    4  C7  UNL     1      27.743   1.572  53.864  1.00  0.00     0.248 A 
HETATM    5 CL1  UNL     1      29.265   2.325  54.313  1.00  0.00    -0.057 Cl
HETATM    6  N1  UNL     1      26.396   1.037  53.384  1.00  0.00     0.065 N 
HETATM    7  C8  UNL     1      25.986   1.230  51.999  1.00  0.00     0.348 C 
HETATM    8  O1  UNL     1      26.547  -0.066  51.354  1.00  0.00    -0.329 OA
HETATM    9  C15 UNL     1      27.397  -0.950  52.184  1.00  0.00     0.137 C 
HETATM   10  C16 UNL     1      27.669  -0.916  53.628  1.00  0.00     0.057 C 
ENDROOT
BRANCH   7  11
HETATM   11  C9  UNL     1      26.497   2.239  51.084  1.00  0.00     0.073 C 
BRANCH  11  12
HETATM   12  C10 UNL     1      25.487   3.081  50.317  1.00  0.00     0.069 C 
BRANCH  12  13
HETATM   13  S2  UNL     1      24.165   3.448  51.138  1.00  0.00    -0.183 SA
HETATM   14  C11 UNL     1      24.206   5.050  50.912  1.00  0.00     0.080 C 
HETATM   15  N2  UNL     1      23.314   2.464  50.098  1.00  0.00    -0.286 NA
HETATM   16  C12 UNL     1      22.159   1.684  50.387  1.00  0.00     0.185 C 
HETATM   17  C13 UNL     1      21.039   2.619  50.751  1.00  0.00     0.292 C 
HETATM   18  N3  UNL     1      21.674   3.803  51.346  1.00  0.00     0.093 N 
HETATM   19  C14 UNL     1      22.909   3.346  52.042  1.00  0.00     0.333 C 
HETATM   20  H20 UNL     1      21.902   4.410  50.534  1.00  0.00     0.316 HD
HETATM   21  H12 UNL     1      24.912   2.812  52.290  1.00  0.00     0.095 HD
ENDBRANCH  12  13
ENDBRANCH  11  12
ENDBRANCH   7  11
BRANCH   1  22
HETATM   22  C4  UNL     1      24.445  -0.810  53.129  1.00  0.00     0.025 C 
BRANCH  22  23
HETATM   23  C3  UNL     1      23.316  -0.099  53.638  1.00  0.00     0.023 C 
BRANCH  23  24
HETATM   24  C2  UNL     1      22.130   0.344  53.906  1.00  0.00    -0.006 C 
HETATM   25  C1  UNL     1      20.681   0.557  53.916  1.00  0.00     0.011 C 
ENDBRANCH  23  24
ENDBRANCH  22  23
ENDBRANCH   1  22
TORSDOF 6
ENDMDL
MODEL 9
REMARK VINA RESULT:      -5.8      2.788      6.144
REMARK  6 active torsions:
REMARK  status: ('A' for Active; 'I' for Inactive)
REMARK    1  A    between atoms: C2_2  and  C3_3 
REMARK    2  A    between atoms: C3_3  and  C4_4 
REMARK    3  A    between atoms: C4_4  and  C5_5 
REMARK    4  A    between atoms: C8_11  and  C9_12 
REMARK    5  A    between atoms: C9_12  and  C10_13 
REMARK    6  A    between atoms: C10_13  and  S2_14 
ROOT
HETATM    1  C5  UNL     1      25.164   0.164  53.538  1.00  0.00     0.185 C 
HETATM    2  S1  UNL     1      25.725  -0.240  55.402  1.00  0.00    -0.052 SA
HETATM    3  C6  UNL     1      27.175   0.354  54.405  1.00  0.00     0.280 A 
HETATM    4  C7  UNL     1      27.804   1.394  54.064  1.00  0.00     0.248 A 
HETATM    5 CL1  UNL     1      29.404   1.837  54.640  1.00  0.00    -0.057 Cl
HETATM    6  N1  UNL     1      26.412   1.141  53.491  1.00  0.00     0.065 N 
HETATM    7  C8  UNL     1      26.090   1.577  52.138  1.00  0.00     0.348 C 
HETATM    8  O1  UNL     1      26.475   0.307  51.332  1.00  0.00    -0.329 OA
HETATM    9  C15 UNL     1      27.149  -0.800  52.049  1.00  0.00     0.137 C 
HETATM   10  C16 UNL     1      27.367  -0.999  53.489  1.00  0.00     0.057 C 
ENDROOT
BRANCH   7  11
HETATM   11  C9  UNL     1      26.783   2.607  51.380  1.00  0.00     0.073 C 
BRANCH  11  12
HETATM   12  C10 UNL     1      26.252   2.949  49.995  1.00  0.00     0.069 C 
BRANCH  12  13
HETATM   13  S2  UNL     1      26.040   4.512  49.729  1.00  0.00    -0.183 SA
HETATM   14  C11 UNL     1      27.307   4.740  48.748  1.00  0.00     0.080 C 
HETATM   15  N2  UNL     1      24.539   4.145  49.107  1.00  0.00    -0.286 NA
HETATM   16  C12 UNL     1      23.358   4.938  49.156  1.00  0.00     0.185 C 
HETATM   17  C13 UNL     1      23.606   6.198  48.371  1.00  0.00     0.292 C 
HETATM   18  N3  UNL     1      25.048   6.464  48.473  1.00  0.00     0.093 N 
HETATM   19  C14 UNL     1      25.502   5.965  49.800  1.00  0.00     0.333 C 
HETATM   20  H20 UNL     1      25.467   5.912  47.699  1.00  0.00     0.316 HD
HETATM   21  H12 UNL     1      26.198   4.612  51.231  1.00  0.00     0.095 HD
ENDBRANCH  12  13
ENDBRANCH  11  12
ENDBRANCH   7  11
BRANCH   1  22
HETATM   22  C4  UNL     1      24.217  -0.332  52.951  1.00  0.00     0.025 C 
BRANCH  22  23
HETATM   23  C3  UNL     1      23.351   0.802  52.990  1.00  0.00     0.023 C 
BRANCH  23  24
HETATM   24  C2  UNL     1      22.362   1.629  52.876  1.00  0.00    -0.006 C 
HETATM   25  C1  UNL     1      21.027   2.203  52.697  1.00  0.00     0.011 C 
ENDBRANCH  23  24
ENDBRANCH  22  23
ENDBRANCH   1  22
TORSDOF 6
ENDMDL
