MODEL 1
REMARK VINA RESULT:      -8.2      0.000      0.000
REMARK  5 active torsions:
REMARK  status: ('A' for Active; 'I' for Inactive)
REMARK    1  A    between atoms: O1_2  and  C2_3 
REMARK    2  A    between atoms: C2_3  and  C3_4 
REMARK    3  A    between atoms: C9_11  and  N2_12 
REMARK    4  A    between atoms: N2_12  and  C10_13 
REMARK    5  A    between atoms: C14_17  and  O2_18 
ROOT
HETATM    1  C3  UNL     1      28.550   1.304  53.548  1.00  0.00     0.009 C 
HETATM    2  C4  UNL     1      27.322   1.595  53.188  1.00  0.00    -0.027 C 
HETATM    3  C5  UNL     1      26.033   1.179  53.870  1.00  0.00     0.075 C 
HETATM    4  C6  UNL     1      24.925   1.990  53.305  1.00  0.00    -0.071 C 
HETATM    5  C7  UNL     1      23.826   2.683  52.976  1.00  0.00     0.023 C 
HETATM    6  C8  UNL     1      23.704   3.403  51.727  1.00  0.00     0.326 C 
HETATM    7  N1  UNL     1      24.309   3.799  50.687  1.00  0.00    -0.228 NA
HETATM    8  C9  UNL     1      25.707   3.531  50.467  1.00  0.00     0.696 C 
HETATM    9  N3  UNL     1      26.909   3.077  50.744  1.00  0.00    -0.066 NA
HETATM   10  C17 UNL     1      27.148   2.432  51.964  1.00  0.00     0.078 C 
HETATM   11  C18 UNL     1      26.589   1.327  51.517  1.00  0.00     0.010 C 
HETATM   12  C19 UNL     1      25.198   1.368  51.936  1.00  0.00     0.064 C 
ENDROOT
BRANCH   8  13
HETATM   13  N2  UNL     1      26.002   4.144  49.179  1.00  0.00    -0.191 N 
HETATM   14  H11 UNL     1      25.539   3.780  48.268  1.00  0.00     0.184 HD
BRANCH  13  15
HETATM   15  C10 UNL     1      26.882   5.243  48.869  1.00  0.00     0.051 A 
HETATM   16  C11 UNL     1      28.186   5.044  48.423  1.00  0.00     0.030 A 
HETATM   17  C12 UNL     1      29.038   6.065  48.135  1.00  0.00     0.005 A 
HETATM   18  C13 UNL     1      28.655   7.379  48.271  1.00  0.00     0.037 A 
HETATM   19  C14 UNL     1      27.375   7.636  48.710  1.00  0.00     0.070 A 
HETATM   20  C16 UNL     1      26.554   6.570  48.988  1.00  0.00     0.066 A 
BRANCH  19  21
HETATM   21  O2  UNL     1      26.966   8.946  48.855  1.00  0.00    -0.356 OA
HETATM   22  C15 UNL     1      27.904   9.973  49.104  1.00  0.00     0.210 C 
ENDBRANCH  19  21
ENDBRANCH  13  15
ENDBRANCH   8  13
BRANCH   1  23
HETATM   23  C2  UNL     1      28.704   0.482  54.743  1.00  0.00     0.195 C 
BRANCH  23  24
HETATM   24  O1  UNL     1      28.783  -0.901  54.474  1.00  0.00    -0.392 OA
HETATM   25  C1  UNL     1      29.761  -1.160  53.549  1.00  0.00     0.201 C 
ENDBRANCH  23  24
ENDBRANCH   1  23
TORSDOF 5
ENDMDL
MODEL 2
REMARK VINA RESULT:      -8.2      1.253      1.854
REMARK  5 active torsions:
REMARK  status: ('A' for Active; 'I' for Inactive)
REMARK    1  A    between atoms: O1_2  and  C2_3 
REMARK    2  A    between atoms: C2_3  and  C3_4 
REMARK    3  A    between atoms: C9_11  and  N2_12 
REMARK    4  A    between atoms: N2_12  and  C10_13 
REMARK    5  A    between atoms: C14_17  and  O2_18 
ROOT
HETATM    1  C3  UNL     1      28.492   1.280  53.506  1.00  0.00     0.009 C 
HETATM    2  C4  UNL     1      27.269   1.632  53.182  1.00  0.00    -0.027 C 
HETATM    3  C5  UNL     1      25.984   1.302  53.916  1.00  0.00     0.075 C 
HETATM    4  C6  UNL     1      24.903   2.162  53.371  1.00  0.00    -0.071 C 
HETATM    5  C7  UNL     1      23.833   2.909  53.064  1.00  0.00     0.023 C 
HETATM    6  C8  UNL     1      23.708   3.610  51.805  1.00  0.00     0.326 C 
HETATM    7  N1  UNL     1      24.296   3.951  50.737  1.00  0.00    -0.228 NA
HETATM    8  C9  UNL     1      25.670   3.601  50.476  1.00  0.00     0.696 C 
HETATM    9  N3  UNL     1      26.854   3.086  50.722  1.00  0.00    -0.066 NA
HETATM   10  C17 UNL     1      27.099   2.453  51.947  1.00  0.00     0.078 C 
HETATM   11  C18 UNL     1      26.465   1.373  51.543  1.00  0.00     0.010 C 
HETATM   12  C19 UNL     1      25.094   1.499  52.008  1.00  0.00     0.064 C 
ENDROOT
BRANCH   8  13
HETATM   13  N2  UNL     1      25.952   4.171  49.166  1.00  0.00    -0.191 N 
HETATM   14  H11 UNL     1      25.349   3.914  48.302  1.00  0.00     0.184 HD
BRANCH  13  15
HETATM   15  C10 UNL     1      26.988   5.095  48.775  1.00  0.00     0.051 A 
HETATM   16  C11 UNL     1      26.736   6.450  48.578  1.00  0.00     0.030 A 
HETATM   17  C12 UNL     1      27.694   7.338  48.199  1.00  0.00     0.005 A 
HETATM   18  C13 UNL     1      28.995   6.942  47.984  1.00  0.00     0.037 A 
HETATM   19  C14 UNL     1      29.302   5.612  48.163  1.00  0.00     0.070 A 
HETATM   20  C16 UNL     1      28.298   4.756  48.545  1.00  0.00     0.066 A 
BRANCH  19  21
HETATM   21  O2  UNL     1      30.599   5.189  47.954  1.00  0.00    -0.356 OA
HETATM   22  C15 UNL     1      31.686   5.868  48.550  1.00  0.00     0.210 C 
ENDBRANCH  19  21
ENDBRANCH  13  15
ENDBRANCH   8  13
BRANCH   1  23
HETATM   23  C2  UNL     1      28.641   0.475  54.713  1.00  0.00     0.195 C 
BRANCH  23  24
HETATM   24  O1  UNL     1      28.757  -0.909  54.460  1.00  0.00    -0.392 OA
HETATM   25  C1  UNL     1      29.701  -1.149  53.496  1.00  0.00     0.201 C 
ENDBRANCH  23  24
ENDBRANCH   1  23
TORSDOF 5
ENDMDL
MODEL 3
REMARK VINA RESULT:      -7.9      5.251      8.139
REMARK  5 active torsions:
REMARK  status: ('A' for Active; 'I' for Inactive)
REMARK    1  A    between atoms: O1_2  and  C2_3 
REMARK    2  A    between atoms: C2_3  and  C3_4 
REMARK    3  A    between atoms: C9_11  and  N2_12 
REMARK    4  A    between atoms: N2_12  and  C10_13 
REMARK    5  A    between atoms: C14_17  and  O2_18 
ROOT
HETATM    1  C3  UNL     1      19.201   0.697  50.675  1.00  0.00     0.009 C 
HETATM    2  C4  UNL     1      19.810   0.266  51.755  1.00  0.00    -0.027 C 
HETATM    3  C5  UNL     1      19.194  -0.447  52.943  1.00  0.00     0.075 C 
HETATM    4  C6  UNL     1      20.292  -1.018  53.763  1.00  0.00    -0.071 C 
HETATM    5  C7  UNL     1      21.140  -1.670  54.572  1.00  0.00     0.023 C 
HETATM    6  C8  UNL     1      22.543  -1.331  54.665  1.00  0.00     0.326 C 
HETATM    7  N1  UNL     1      23.485  -0.639  54.177  1.00  0.00    -0.228 NA
HETATM    8  C9  UNL     1      23.285   0.235  53.049  1.00  0.00     0.696 C 
HETATM    9  N3  UNL     1      22.627   0.813  52.069  1.00  0.00    -0.066 NA
HETATM   10  C17 UNL     1      21.282   0.494  51.848  1.00  0.00     0.078 C 
HETATM   11  C18 UNL     1      20.909   1.260  52.851  1.00  0.00     0.010 C 
HETATM   12  C19 UNL     1      20.809   0.397  54.016  1.00  0.00     0.064 C 
ENDROOT
BRANCH   8  13
HETATM   13  N2  UNL     1      24.592   0.834  52.812  1.00  0.00    -0.191 N 
HETATM   14  H11 UNL     1      24.684   1.812  52.353  1.00  0.00     0.184 HD
BRANCH  13  15
HETATM   15  C10 UNL     1      25.904   0.308  53.099  1.00  0.00     0.051 A 
HETATM   16  C11 UNL     1      26.360  -0.886  52.546  1.00  0.00     0.030 A 
HETATM   17  C12 UNL     1      27.589  -1.407  52.811  1.00  0.00     0.005 A 
HETATM   18  C13 UNL     1      28.470  -0.773  53.656  1.00  0.00     0.037 A 
HETATM   19  C14 UNL     1      28.071   0.413  54.232  1.00  0.00     0.070 A 
HETATM   20  C16 UNL     1      26.821   0.896  53.933  1.00  0.00     0.066 A 
BRANCH  19  21
HETATM   21  O2  UNL     1      28.937   1.069  55.084  1.00  0.00    -0.356 OA
HETATM   22  C15 UNL     1      29.686   2.182  54.637  1.00  0.00     0.210 C 
ENDBRANCH  19  21
ENDBRANCH  13  15
ENDBRANCH   8  13
BRANCH   1  23
HETATM   23  C2  UNL     1      17.762   0.471  50.601  1.00  0.00     0.195 C 
BRANCH  23  24
HETATM   24  O1  UNL     1      17.035   1.588  50.136  1.00  0.00    -0.392 OA
HETATM   25  C1  UNL     1      17.768   2.297  49.220  1.00  0.00     0.201 C 
ENDBRANCH  23  24
ENDBRANCH   1  23
TORSDOF 5
ENDMDL
MODEL 4
REMARK VINA RESULT:      -7.6      2.323      3.138
REMARK  5 active torsions:
REMARK  status: ('A' for Active; 'I' for Inactive)
REMARK    1  A    between atoms: O1_2  and  C2_3 
REMARK    2  A    between atoms: C2_3  and  C3_4 
REMARK    3  A    between atoms: C9_11  and  N2_12 
REMARK    4  A    between atoms: N2_12  and  C10_13 
REMARK    5  A    between atoms: C14_17  and  O2_18 
ROOT
HETATM    1  C3  UNL     1      26.059   1.045  53.792  1.00  0.00     0.009 C 
HETATM    2  C4  UNL     1      24.832   1.202  53.352  1.00  0.00    -0.027 C 
HETATM    3  C5  UNL     1      23.786   0.129  53.119  1.00  0.00     0.075 C 
HETATM    4  C6  UNL     1      22.472   0.793  52.928  1.00  0.00    -0.071 C 
HETATM    5  C7  UNL     1      21.203   1.211  52.819  1.00  0.00     0.023 C 
HETATM    6  C8  UNL     1      20.858   2.559  52.424  1.00  0.00     0.326 C 
HETATM    7  N1  UNL     1      21.299   3.722  52.185  1.00  0.00    -0.228 NA
HETATM    8  C9  UNL     1      22.697   4.049  52.306  1.00  0.00     0.696 C 
HETATM    9  N3  UNL     1      23.967   3.845  52.572  1.00  0.00    -0.066 NA
HETATM   10  C17 UNL     1      24.391   2.592  53.035  1.00  0.00     0.078 C 
HETATM   11  C18 UNL     1      24.336   2.097  51.818  1.00  0.00     0.010 C 
HETATM   12  C19 UNL     1      23.026   1.481  51.681  1.00  0.00     0.064 C 
ENDROOT
BRANCH   8  13
HETATM   13  N2  UNL     1      22.778   5.458  51.946  1.00  0.00    -0.191 N 
HETATM   14  H11 UNL     1      22.255   6.214  52.522  1.00  0.00     0.184 HD
BRANCH  13  15
HETATM   15  C10 UNL     1      23.487   6.084  50.857  1.00  0.00     0.051 A 
HETATM   16  C11 UNL     1      23.498   5.546  49.573  1.00  0.00     0.030 A 
HETATM   17  C12 UNL     1      24.168   6.113  48.534  1.00  0.00     0.005 A 
HETATM   18  C13 UNL     1      24.890   7.273  48.693  1.00  0.00     0.037 A 
HETATM   19  C14 UNL     1      24.915   7.851  49.944  1.00  0.00     0.070 A 
HETATM   20  C16 UNL     1      24.222   7.239  50.959  1.00  0.00     0.066 A 
BRANCH  19  21
HETATM   21  O2  UNL     1      25.631   9.016  50.129  1.00  0.00    -0.356 OA
HETATM   22  C15 UNL     1      27.043   8.993  50.205  1.00  0.00     0.210 C 
ENDBRANCH  19  21
ENDBRANCH  13  15
ENDBRANCH   8  13
BRANCH   1  23
HETATM   23  C2  UNL     1      26.475  -0.320  54.093  1.00  0.00     0.195 C 
BRANCH  23  24
HETATM   24  O1  UNL     1      27.479  -0.401  55.081  1.00  0.00    -0.392 OA
HETATM   25  C1  UNL     1      28.564   0.363  54.736  1.00  0.00     0.201 C 
ENDBRANCH  23  24
ENDBRANCH   1  23
TORSDOF 5
ENDMDL
MODEL 5
REMARK VINA RESULT:      -7.6      3.370      4.740
REMARK  5 active torsions:
REMARK  status: ('A' for Active; 'I' for Inactive)
REMARK    1  A    between atoms: O1_2  and  C2_3 
REMARK    2  A    between atoms: C2_3  and  C3_4 
REMARK    3  A    between atoms: C9_11  and  N2_12 
REMARK    4  A    between atoms: N2_12  and  C10_13 
REMARK    5  A    between atoms: C14_17  and  O2_18 
ROOT
HETATM    1  C3  UNL     1      26.982   0.905  54.121  1.00  0.00     0.009 C 
HETATM    2  C4  UNL     1      25.754   0.442  54.116  1.00  0.00    -0.027 C 
HETATM    3  C5  UNL     1      25.243  -0.837  54.750  1.00  0.00     0.075 C 
HETATM    4  C6  UNL     1      23.759  -0.789  54.764  1.00  0.00    -0.071 C 
HETATM    5  C7  UNL     1      22.433  -0.880  54.936  1.00  0.00     0.023 C 
HETATM    6  C8  UNL     1      21.490  -0.118  54.147  1.00  0.00     0.326 C 
HETATM    7  N1  UNL     1      21.351   0.807  53.292  1.00  0.00    -0.228 NA
HETATM    8  C9  UNL     1      22.478   1.534  52.763  1.00  0.00     0.696 C 
HETATM    9  N3  UNL     1      23.738   1.879  52.629  1.00  0.00    -0.066 NA
HETATM   10  C17 UNL     1      24.720   1.252  53.407  1.00  0.00     0.078 C 
HETATM   11  C18 UNL     1      24.695   0.192  52.627  1.00  0.00     0.010 C 
HETATM   12  C19 UNL     1      23.768  -0.747  53.236  1.00  0.00     0.064 C 
ENDROOT
BRANCH   8  13
HETATM   13  N2  UNL     1      21.894   2.486  51.828  1.00  0.00    -0.191 N 
HETATM   14  H11 UNL     1      21.268   3.300  52.175  1.00  0.00     0.184 HD
BRANCH  13  15
HETATM   15  C10 UNL     1      22.005   2.540  50.391  1.00  0.00     0.051 A 
HETATM   16  C11 UNL     1      21.743   1.435  49.585  1.00  0.00     0.030 A 
HETATM   17  C12 UNL     1      21.851   1.459  48.230  1.00  0.00     0.005 A 
HETATM   18  C13 UNL     1      22.233   2.599  47.561  1.00  0.00     0.037 A 
HETATM   19  C14 UNL     1      22.506   3.724  48.307  1.00  0.00     0.070 A 
HETATM   20  C16 UNL     1      22.382   3.647  49.672  1.00  0.00     0.066 A 
BRANCH  19  21
HETATM   21  O2  UNL     1      22.890   4.881  47.660  1.00  0.00    -0.356 OA
HETATM   22  C15 UNL     1      23.656   5.864  48.328  1.00  0.00     0.210 C 
ENDBRANCH  19  21
ENDBRANCH  13  15
ENDBRANCH   8  13
BRANCH   1  23
HETATM   23  C2  UNL     1      27.981   0.099  54.814  1.00  0.00     0.195 C 
BRANCH  23  24
HETATM   24  O1  UNL     1      28.513  -0.944  54.028  1.00  0.00    -0.392 OA
HETATM   25  C1  UNL     1      29.770  -0.624  53.580  1.00  0.00     0.201 C 
ENDBRANCH  23  24
ENDBRANCH   1  23
TORSDOF 5
ENDMDL
MODEL 6
REMARK VINA RESULT:      -7.6      4.408      8.008
REMARK  5 active torsions:
REMARK  status: ('A' for Active; 'I' for Inactive)
REMARK    1  A    between atoms: O1_2  and  C2_3 
REMARK    2  A    between atoms: C2_3  and  C3_4 
REMARK    3  A    between atoms: C9_11  and  N2_12 
REMARK    4  A    between atoms: N2_12  and  C10_13 
REMARK    5  A    between atoms: C14_17  and  O2_18 
ROOT
HETATM    1  C3  UNL     1      26.147  -0.539  53.095  1.00  0.00     0.009 C 
HETATM    2  C4  UNL     1      25.602   0.499  52.504  1.00  0.00    -0.027 C 
HETATM    3  C5  UNL     1      26.291   1.547  51.652  1.00  0.00     0.075 C 
HETATM    4  C6  UNL     1      25.247   2.331  50.945  1.00  0.00    -0.071 C 
HETATM    5  C7  UNL     1      24.454   3.081  50.166  1.00  0.00     0.023 C 
HETATM    6  C8  UNL     1      23.051   3.286  50.451  1.00  0.00     0.326 C 
HETATM    7  N1  UNL     1      22.072   2.943  51.178  1.00  0.00    -0.228 NA
HETATM    8  C9  UNL     1      22.197   1.938  52.203  1.00  0.00     0.696 C 
HETATM    9  N3  UNL     1      22.793   1.018  52.927  1.00  0.00    -0.066 NA
HETATM   10  C17 UNL     1      24.132   0.692  52.677  1.00  0.00     0.078 C 
HETATM   11  C18 UNL     1      24.539   1.772  53.309  1.00  0.00     0.010 C 
HETATM   12  C19 UNL     1      24.715   2.801  52.298  1.00  0.00     0.064 C 
ENDROOT
BRANCH   8  13
HETATM   13  N2  UNL     1      20.868   1.847  52.793  1.00  0.00    -0.191 N 
HETATM   14  H11 UNL     1      20.549   2.543  53.562  1.00  0.00     0.184 HD
BRANCH  13  15
HETATM   15  C10 UNL     1      19.808   0.910  52.517  1.00  0.00     0.051 A 
HETATM   16  C11 UNL     1      18.953   1.059  51.427  1.00  0.00     0.030 A 
HETATM   17  C12 UNL     1      17.940   0.194  51.153  1.00  0.00     0.005 A 
HETATM   18  C13 UNL     1      17.694  -0.900  51.951  1.00  0.00     0.037 A 
HETATM   19  C14 UNL     1      18.508  -1.097  53.044  1.00  0.00     0.070 A 
HETATM   20  C16 UNL     1      19.517  -0.195  53.278  1.00  0.00     0.066 A 
BRANCH  19  21
HETATM   21  O2  UNL     1      18.283  -2.187  53.860  1.00  0.00    -0.356 OA
HETATM   22  C15 UNL     1      17.386  -3.208  53.472  1.00  0.00     0.210 C 
ENDBRANCH  19  21
ENDBRANCH  13  15
ENDBRANCH   8  13
BRANCH   1  23
HETATM   23  C2  UNL     1      27.584  -0.711  52.920  1.00  0.00     0.195 C 
BRANCH  23  24
HETATM   24  O1  UNL     1      28.287  -0.880  54.131  1.00  0.00    -0.392 OA
HETATM   25  C1  UNL     1      28.970   0.262  54.461  1.00  0.00     0.201 C 
ENDBRANCH  23  24
ENDBRANCH   1  23
TORSDOF 5
ENDMDL
MODEL 7
REMARK VINA RESULT:      -7.5      2.517      4.044
REMARK  5 active torsions:
REMARK  status: ('A' for Active; 'I' for Inactive)
REMARK    1  A    between atoms: O1_2  and  C2_3 
REMARK    2  A    between atoms: C2_3  and  C3_4 
REMARK    3  A    between atoms: C9_11  and  N2_12 
REMARK    4  A    between atoms: N2_12  and  C10_13 
REMARK    5  A    between atoms: C14_17  and  O2_18 
ROOT
HETATM    1  C3  UNL     1      22.533  -0.361  53.013  1.00  0.00     0.009 C 
HETATM    2  C4  UNL     1      23.689   0.255  53.091  1.00  0.00    -0.027 C 
HETATM    3  C5  UNL     1      24.695   0.197  54.224  1.00  0.00     0.075 C 
HETATM    4  C6  UNL     1      25.971   0.785  53.744  1.00  0.00    -0.071 C 
HETATM    5  C7  UNL     1      27.214   1.200  53.459  1.00  0.00     0.023 C 
HETATM    6  C8  UNL     1      27.501   2.111  52.373  1.00  0.00     0.326 C 
HETATM    7  N1  UNL     1      27.031   2.712  51.362  1.00  0.00    -0.228 NA
HETATM    8  C9  UNL     1      25.661   2.549  50.945  1.00  0.00     0.696 C 
HETATM    9  N3  UNL     1      24.438   2.069  50.973  1.00  0.00    -0.066 NA
HETATM   10  C17 UNL     1      24.082   1.122  51.942  1.00  0.00     0.078 C 
HETATM   11  C18 UNL     1      23.974   2.061  52.856  1.00  0.00     0.010 C 
HETATM   12  C19 UNL     1      25.254   2.120  53.542  1.00  0.00     0.064 C 
ENDROOT
BRANCH   8  13
HETATM   13  N2  UNL     1      25.531   3.398  49.768  1.00  0.00    -0.191 N 
HETATM   14  H11 UNL     1      25.059   3.031  48.864  1.00  0.00     0.184 HD
BRANCH  13  15
HETATM   15  C10 UNL     1      25.962   4.760  49.572  1.00  0.00     0.051 A 
HETATM   16  C11 UNL     1      25.342   5.832  50.209  1.00  0.00     0.030 A 
HETATM   17  C12 UNL     1      25.724   7.125  50.031  1.00  0.00     0.005 A 
HETATM   18  C13 UNL     1      26.766   7.458  49.195  1.00  0.00     0.037 A 
HETATM   19  C14 UNL     1      27.416   6.437  48.538  1.00  0.00     0.070 A 
HETATM   20  C16 UNL     1      26.991   5.148  48.752  1.00  0.00     0.066 A 
BRANCH  19  21
HETATM   21  O2  UNL     1      28.464   6.744  47.695  1.00  0.00    -0.356 OA
HETATM   22  C15 UNL     1      29.600   7.436  48.174  1.00  0.00     0.210 C 
ENDBRANCH  19  21
ENDBRANCH  13  15
ENDBRANCH   8  13
BRANCH   1  23
HETATM   23  C2  UNL     1      22.162  -1.201  54.147  1.00  0.00     0.195 C 
BRANCH  23  24
HETATM   24  O1  UNL     1      20.770  -1.268  54.371  1.00  0.00    -0.392 OA
HETATM   25  C1  UNL     1      20.097  -0.450  53.500  1.00  0.00     0.201 C 
ENDBRANCH  23  24
ENDBRANCH   1  23
TORSDOF 5
ENDMDL
MODEL 8
REMARK VINA RESULT:      -7.4      3.068      4.932
REMARK  5 active torsions:
REMARK  status: ('A' for Active; 'I' for Inactive)
REMARK    1  A    between atoms: O1_2  and  C2_3 
REMARK    2  A    between atoms: C2_3  and  C3_4 
REMARK    3  A    between atoms: C9_11  and  N2_12 
REMARK    4  A    between atoms: N2_12  and  C10_13 
REMARK    5  A    between atoms: C14_17  and  O2_18 
ROOT
HETATM    1  C3  UNL     1      22.992  -0.426  53.081  1.00  0.00     0.009 C 
HETATM    2  C4  UNL     1      24.205   0.021  53.310  1.00  0.00    -0.027 C 
HETATM    3  C5  UNL     1      25.141  -0.373  54.436  1.00  0.00     0.075 C 
HETATM    4  C6  UNL     1      26.496   0.141  54.115  1.00  0.00    -0.071 C 
HETATM    5  C7  UNL     1      27.790   0.452  53.952  1.00  0.00     0.023 C 
HETATM    6  C8  UNL     1      28.231   1.514  53.074  1.00  0.00     0.326 C 
HETATM    7  N1  UNL     1      27.881   2.350  52.189  1.00  0.00    -0.228 NA
HETATM    8  C9  UNL     1      26.524   2.434  51.712  1.00  0.00     0.696 C 
HETATM    9  N3  UNL     1      25.255   2.107  51.611  1.00  0.00    -0.066 NA
HETATM   10  C17 UNL     1      24.748   1.040  52.364  1.00  0.00     0.078 C 
HETATM   11  C18 UNL     1      24.700   1.792  53.443  1.00  0.00     0.010 C 
HETATM   12  C19 UNL     1      25.943   1.565  54.161  1.00  0.00     0.064 C 
ENDROOT
BRANCH   8  13
HETATM   13  N2  UNL     1      26.548   3.503  50.722  1.00  0.00    -0.191 N 
HETATM   14  H11 UNL     1      27.486   3.889  50.338  1.00  0.00     0.184 HD
BRANCH  13  15
HETATM   15  C10 UNL     1      25.448   4.208  50.111  1.00  0.00     0.051 A 
HETATM   16  C11 UNL     1      25.256   5.576  50.287  1.00  0.00     0.030 A 
HETATM   17  C12 UNL     1      24.221   6.260  49.730  1.00  0.00     0.005 A 
HETATM   18  C13 UNL     1      23.284   5.629  48.945  1.00  0.00     0.037 A 
HETATM   19  C14 UNL     1      23.424   4.275  48.736  1.00  0.00     0.070 A 
HETATM   20  C16 UNL     1      24.486   3.631  49.321  1.00  0.00     0.066 A 
BRANCH  19  21
HETATM   21  O2  UNL     1      22.498   3.619  47.951  1.00  0.00    -0.356 OA
HETATM   22  C15 UNL     1      22.499   2.208  47.856  1.00  0.00     0.210 C 
ENDBRANCH  19  21
ENDBRANCH  13  15
ENDBRANCH   8  13
BRANCH   1  23
HETATM   23  C2  UNL     1      22.474  -1.418  54.016  1.00  0.00     0.195 C 
BRANCH  23  24
HETATM   24  O1  UNL     1      21.667  -0.870  55.035  1.00  0.00    -0.392 OA
HETATM   25  C1  UNL     1      20.875   0.135  54.540  1.00  0.00     0.201 C 
ENDBRANCH  23  24
ENDBRANCH   1  23
TORSDOF 5
ENDMDL
MODEL 9
REMARK VINA RESULT:      -7.3      4.178      7.261
REMARK  5 active torsions:
REMARK  status: ('A' for Active; 'I' for Inactive)
REMARK    1  A    between atoms: O1_2  and  C2_3 
REMARK    2  A    between atoms: C2_3  and  C3_4 
REMARK    3  A    between atoms: C9_11  and  N2_12 
REMARK    4  A    between atoms: N2_12  and  C10_13 
REMARK    5  A    between atoms: C14_17  and  O2_18 
ROOT
HETATM    1  C3  UNL     1      20.467  -0.126  52.519  1.00  0.00     0.009 C 
HETATM    2  C4  UNL     1      21.013   1.041  52.266  1.00  0.00    -0.027 C 
HETATM    3  C5  UNL     1      20.315   2.380  52.128  1.00  0.00     0.075 C 
HETATM    4  C6  UNL     1      21.346   3.447  52.159  1.00  0.00    -0.071 C 
HETATM    5  C7  UNL     1      22.123   4.536  52.253  1.00  0.00     0.023 C 
HETATM    6  C8  UNL     1      23.543   4.506  51.981  1.00  0.00     0.326 C 
HETATM    7  N1  UNL     1      24.545   3.769  51.741  1.00  0.00    -0.228 NA
HETATM    8  C9  UNL     1      24.439   2.333  51.680  1.00  0.00     0.696 C 
HETATM    9  N3  UNL     1      23.852   1.160  51.753  1.00  0.00    -0.066 NA
HETATM   10  C17 UNL     1      22.494   1.079  52.087  1.00  0.00     0.078 C 
HETATM   11  C18 UNL     1      22.148   1.425  50.865  1.00  0.00     0.010 C 
HETATM   12  C19 UNL     1      21.955   2.866  50.884  1.00  0.00     0.064 C 
ENDROOT
BRANCH   8  13
HETATM   13  N2  UNL     1      25.791   1.877  51.385  1.00  0.00    -0.191 N 
HETATM   14  H11 UNL     1      26.139   1.782  50.362  1.00  0.00     0.184 HD
BRANCH  13  15
HETATM   15  C10 UNL     1      26.843   1.489  52.292  1.00  0.00     0.051 A 
HETATM   16  C11 UNL     1      27.718   2.416  52.852  1.00  0.00     0.030 A 
HETATM   17  C12 UNL     1      28.724   2.072  53.701  1.00  0.00     0.005 A 
HETATM   18  C13 UNL     1      28.940   0.763  54.064  1.00  0.00     0.037 A 
HETATM   19  C14 UNL     1      28.104  -0.198  53.541  1.00  0.00     0.070 A 
HETATM   20  C16 UNL     1      27.105   0.201  52.688  1.00  0.00     0.066 A 
BRANCH  19  21
HETATM   21  O2  UNL     1      28.299  -1.519  53.890  1.00  0.00    -0.356 OA
HETATM   22  C15 UNL     1      29.208  -2.330  53.173  1.00  0.00     0.210 C 
ENDBRANCH  19  21
ENDBRANCH  13  15
ENDBRANCH   8  13
BRANCH   1  23
HETATM   23  C2  UNL     1      19.018  -0.147  52.688  1.00  0.00     0.195 C 
BRANCH  23  24
HETATM   24  O1  UNL     1      18.316  -0.494  51.513  1.00  0.00    -0.392 OA
HETATM   25  C1  UNL     1      16.976  -0.625  51.770  1.00  0.00     0.201 C 
ENDBRANCH  23  24
ENDBRANCH   1  23
TORSDOF 5
ENDMDL
