MODEL 1
REMARK VINA RESULT:      -9.6      0.000      0.000
REMARK  2 active torsions:
REMARK  status: ('A' for Active; 'I' for Inactive)
REMARK    1  A    between atoms: O1_2  and  C2_3 
REMARK    2  A    between atoms: C15_20  and  C16_21 
ROOT
HETATM    1  C2  UNL     1      26.392   0.851  54.064  1.00  0.00     0.069 A 
HETATM    2  C3  UNL     1      25.896  -0.143  53.262  1.00  0.00     0.039 A 
HETATM    3  C4  UNL     1      24.994   0.185  52.278  1.00  0.00     0.040 A 
HETATM    4  C5  UNL     1      24.509   1.467  51.998  1.00  0.00     0.078 A 
HETATM    5  C6  UNL     1      25.077   2.408  52.872  1.00  0.00     0.006 A 
HETATM    6  C7  UNL     1      25.976   2.129  53.864  1.00  0.00     0.048 A 
HETATM    7  C8  UNL     1      24.465   3.723  52.458  1.00  0.00     0.315 C 
HETATM    8  N1  UNL     1      24.431   3.859  51.052  1.00  0.00     0.123 N 
HETATM    9  C9  UNL     1      23.482   4.872  50.554  1.00  0.00     0.281 A 
HETATM   10  C10 UNL     1      23.894   5.027  49.138  1.00  0.00     0.156 A 
HETATM   11  N2  UNL     1      24.318   6.116  48.551  1.00  0.00    -0.254 NA
HETATM   12  C11 UNL     1      24.421   7.329  49.286  1.00  0.00     0.226 A 
HETATM   13  N3  UNL     1      24.079   7.240  50.469  1.00  0.00    -0.278 NA
HETATM   14  C12 UNL     1      23.596   6.156  51.240  1.00  0.00     0.220 A 
HETATM   15  N4  UNL     1      22.170   4.281  50.549  1.00  0.00    -0.364 N 
HETATM   16  C13 UNL     1      21.333   4.417  51.656  1.00  0.00     0.148 C 
HETATM   17  C14 UNL     1      20.928   3.106  52.295  1.00  0.00     0.003 C 
HETATM   18  C15 UNL     1      21.454   1.949  52.008  1.00  0.00    -0.019 C 
HETATM   19  C22 UNL     1      22.309   1.849  50.823  1.00  0.00     0.184 C 
HETATM   20  O2  UNL     1      23.636   1.556  50.991  1.00  0.00    -0.339 OA
HETATM   21  C23 UNL     1      22.096   3.036  49.870  1.00  0.00     0.112 C 
HETATM   22  C24 UNL     1      20.687   2.925  49.274  1.00  0.00     0.035 C 
HETATM   23  H9  UNL     1      25.391   4.129  50.679  1.00  0.00     0.320 HD
ENDROOT
BRANCH  18  24
HETATM   24  C16 UNL     1      21.195   0.783  52.840  1.00  0.00    -0.028 A 
HETATM   25  C17 UNL     1      20.095  -0.032  52.674  1.00  0.00     0.012 A 
HETATM   26  C18 UNL     1      19.803  -1.151  53.426  1.00  0.00     0.001 A 
HETATM   27  C19 UNL     1      20.676  -1.499  54.435  1.00  0.00     0.000 A 
HETATM   28  C20 UNL     1      21.800  -0.734  54.666  1.00  0.00     0.001 A 
HETATM   29  C21 UNL     1      22.016   0.368  53.866  1.00  0.00     0.012 A 
ENDBRANCH  18  24
BRANCH   1  30
HETATM   30  O1  UNL     1      27.291   0.619  55.065  1.00  0.00    -0.356 OA
HETATM   31  C1  UNL     1      28.631   0.200  54.842  1.00  0.00     0.210 C 
ENDBRANCH   1  30
TORSDOF 2
ENDMDL
MODEL 2
REMARK VINA RESULT:      -9.6      2.393      5.516
REMARK  2 active torsions:
REMARK  status: ('A' for Active; 'I' for Inactive)
REMARK    1  A    between atoms: O1_2  and  C2_3 
REMARK    2  A    between atoms: C15_20  and  C16_21 
ROOT
HETATM    1  C2  UNL     1      24.995   1.000  53.383  1.00  0.00     0.069 A 
HETATM    2  C3  UNL     1      25.315   2.321  53.555  1.00  0.00     0.039 A 
HETATM    3  C4  UNL     1      24.492   3.279  53.012  1.00  0.00     0.040 A 
HETATM    4  C5  UNL     1      23.325   3.045  52.279  1.00  0.00     0.078 A 
HETATM    5  C6  UNL     1      23.088   1.665  52.161  1.00  0.00     0.006 A 
HETATM    6  C7  UNL     1      23.877   0.677  52.683  1.00  0.00     0.048 A 
HETATM    7  C8  UNL     1      21.818   1.568  51.354  1.00  0.00     0.315 C 
HETATM    8  N1  UNL     1      20.856   2.509  51.786  1.00  0.00     0.123 N 
HETATM    9  C9  UNL     1      19.788   2.790  50.810  1.00  0.00     0.281 A 
HETATM   10  C10 UNL     1      18.787   3.515  51.630  1.00  0.00     0.156 A 
HETATM   11  N2  UNL     1      17.550   3.161  51.865  1.00  0.00    -0.254 NA
HETATM   12  C11 UNL     1      17.032   1.962  51.304  1.00  0.00     0.226 A 
HETATM   13  N3  UNL     1      17.835   1.335  50.607  1.00  0.00    -0.278 NA
HETATM   14  C12 UNL     1      19.182   1.583  50.253  1.00  0.00     0.220 A 
HETATM   15  N4  UNL     1      20.305   3.729  49.849  1.00  0.00    -0.364 N 
HETATM   16  C13 UNL     1      20.903   3.276  48.674  1.00  0.00     0.148 C 
HETATM   17  C14 UNL     1      22.347   3.699  48.509  1.00  0.00     0.003 C 
HETATM   18  C15 UNL     1      23.068   4.250  49.442  1.00  0.00    -0.019 C 
HETATM   19  C22 UNL     1      22.394   4.732  50.650  1.00  0.00     0.184 C 
HETATM   20  O2  UNL     1      22.676   4.129  51.846  1.00  0.00    -0.339 OA
HETATM   21  C23 UNL     1      20.881   4.892  50.426  1.00  0.00     0.112 C 
HETATM   22  C24 UNL     1      20.663   6.047  49.440  1.00  0.00     0.035 C 
HETATM   23  H9  UNL     1      20.377   2.173  52.676  1.00  0.00     0.320 HD
ENDROOT
BRANCH  18  24
HETATM   24  C16 UNL     1      24.510   4.392  49.289  1.00  0.00    -0.028 A 
HETATM   25  C17 UNL     1      25.112   5.562  48.877  1.00  0.00     0.012 A 
HETATM   26  C18 UNL     1      26.469   5.755  48.720  1.00  0.00     0.001 A 
HETATM   27  C19 UNL     1      27.310   4.696  48.996  1.00  0.00     0.000 A 
HETATM   28  C20 UNL     1      26.784   3.491  49.412  1.00  0.00     0.001 A 
HETATM   29  C21 UNL     1      25.415   3.385  49.542  1.00  0.00     0.012 A 
ENDBRANCH  18  24
BRANCH   1  30
HETATM   30  O1  UNL     1      25.753  -0.019  53.887  1.00  0.00    -0.356 OA
HETATM   31  C1  UNL     1      26.984   0.174  54.570  1.00  0.00     0.210 C 
ENDBRANCH   1  30
TORSDOF 2
ENDMDL
MODEL 3
REMARK VINA RESULT:      -8.9      3.050      6.685
REMARK  2 active torsions:
REMARK  status: ('A' for Active; 'I' for Inactive)
REMARK    1  A    between atoms: O1_2  and  C2_3 
REMARK    2  A    between atoms: C15_20  and  C16_21 
ROOT
HETATM    1  C2  UNL     1      27.737   6.358  48.115  1.00  0.00     0.069 A 
HETATM    2  C3  UNL     1      26.804   7.256  48.560  1.00  0.00     0.039 A 
HETATM    3  C4  UNL     1      25.840   6.829  49.442  1.00  0.00     0.040 A 
HETATM    4  C5  UNL     1      25.702   5.534  49.951  1.00  0.00     0.078 A 
HETATM    5  C6  UNL     1      26.703   4.695  49.433  1.00  0.00     0.006 A 
HETATM    6  C7  UNL     1      27.681   5.074  48.556  1.00  0.00     0.048 A 
HETATM    7  C8  UNL     1      26.428   3.350  50.058  1.00  0.00     0.315 C 
HETATM    8  N1  UNL     1      26.118   3.470  51.432  1.00  0.00     0.123 N 
HETATM    9  C9  UNL     1      25.422   2.307  52.010  1.00  0.00     0.281 A 
HETATM   10  C10 UNL     1      25.529   2.561  53.467  1.00  0.00     0.156 A 
HETATM   11  N2  UNL     1      26.110   1.805  54.362  1.00  0.00    -0.254 NA
HETATM   12  C11 UNL     1      26.728   0.585  53.973  1.00  0.00     0.226 A 
HETATM   13  N3  UNL     1      26.651   0.336  52.767  1.00  0.00    -0.278 NA
HETATM   14  C12 UNL     1      26.060   1.033  51.688  1.00  0.00     0.220 A 
HETATM   15  N4  UNL     1      24.028   2.412  51.665  1.00  0.00    -0.364 N 
HETATM   16  C13 UNL     1      23.541   1.802  50.510  1.00  0.00     0.148 C 
HETATM   17  C14 UNL     1      22.925   2.760  49.513  1.00  0.00     0.003 C 
HETATM   18  C15 UNL     1      23.009   4.058  49.585  1.00  0.00    -0.019 C 
HETATM   19  C22 UNL     1      23.505   4.655  50.827  1.00  0.00     0.184 C 
HETATM   20  O2  UNL     1      24.689   5.342  50.800  1.00  0.00    -0.339 OA
HETATM   21  C23 UNL     1      23.440   3.661  51.998  1.00  0.00     0.112 C 
HETATM   22  C24 UNL     1      21.964   3.399  52.321  1.00  0.00     0.035 C 
HETATM   23  H9  UNL     1      27.004   3.613  52.005  1.00  0.00     0.320 HD
ENDROOT
BRANCH  18  24
HETATM   24  C16 UNL     1      22.614   4.896  48.462  1.00  0.00    -0.028 A 
HETATM   25  C17 UNL     1      22.428   4.407  47.186  1.00  0.00     0.012 A 
HETATM   26  C18 UNL     1      22.049   5.151  46.088  1.00  0.00     0.001 A 
HETATM   27  C19 UNL     1      21.833   6.502  46.264  1.00  0.00     0.000 A 
HETATM   28  C20 UNL     1      22.000   7.068  47.510  1.00  0.00     0.001 A 
HETATM   29  C21 UNL     1      22.380   6.250  48.554  1.00  0.00     0.012 A 
ENDBRANCH  18  24
BRANCH   1  30
HETATM   30  O1  UNL     1      28.731   6.692  47.240  1.00  0.00    -0.356 OA
HETATM   31  C1  UNL     1      30.071   6.961  47.630  1.00  0.00     0.210 C 
ENDBRANCH   1  30
TORSDOF 2
ENDMDL
MODEL 4
REMARK VINA RESULT:      -8.7      1.189      1.394
REMARK  2 active torsions:
REMARK  status: ('A' for Active; 'I' for Inactive)
REMARK    1  A    between atoms: O1_2  and  C2_3 
REMARK    2  A    between atoms: C15_20  and  C16_21 
ROOT
HETATM    1  C2  UNL     1      25.442   1.688  53.606  1.00  0.00     0.069 A 
HETATM    2  C3  UNL     1      24.998   0.703  52.765  1.00  0.00     0.039 A 
HETATM    3  C4  UNL     1      24.178   1.045  51.716  1.00  0.00     0.040 A 
HETATM    4  C5  UNL     1      23.731   2.333  51.404  1.00  0.00     0.078 A 
HETATM    5  C6  UNL     1      24.241   3.265  52.324  1.00  0.00     0.006 A 
HETATM    6  C7  UNL     1      25.058   2.972  53.380  1.00  0.00     0.048 A 
HETATM    7  C8  UNL     1      23.678   4.589  51.869  1.00  0.00     0.315 C 
HETATM    8  N1  UNL     1      23.754   4.729  50.466  1.00  0.00     0.123 N 
HETATM    9  C9  UNL     1      22.859   5.755  49.900  1.00  0.00     0.281 A 
HETATM   10  C10 UNL     1      23.380   5.910  48.520  1.00  0.00     0.156 A 
HETATM   11  N2  UNL     1      23.861   6.995  47.973  1.00  0.00    -0.254 NA
HETATM   12  C11 UNL     1      23.922   8.205  48.719  1.00  0.00     0.226 A 
HETATM   13  N3  UNL     1      23.488   8.116  49.871  1.00  0.00    -0.278 NA
HETATM   14  C12 UNL     1      22.935   7.036  50.598  1.00  0.00     0.220 A 
HETATM   15  N4  UNL     1      21.544   5.180  49.792  1.00  0.00    -0.364 N 
HETATM   16  C13 UNL     1      20.626   5.323  50.832  1.00  0.00     0.148 C 
HETATM   17  C14 UNL     1      20.158   4.015  51.433  1.00  0.00     0.003 C 
HETATM   18  C15 UNL     1      20.690   2.853  51.182  1.00  0.00    -0.019 C 
HETATM   19  C22 UNL     1      21.633   2.746  50.066  1.00  0.00     0.184 C 
HETATM   20  O2  UNL     1      22.939   2.436  50.334  1.00  0.00    -0.339 OA
HETATM   21  C23 UNL     1      21.507   3.939  49.104  1.00  0.00     0.112 C 
HETATM   22  C24 UNL     1      20.147   3.846  48.401  1.00  0.00     0.035 C 
HETATM   23  H9  UNL     1      24.743   4.989  50.168  1.00  0.00     0.320 HD
ENDROOT
BRANCH  18  24
HETATM   24  C16 UNL     1      20.354   1.687  51.987  1.00  0.00    -0.028 A 
HETATM   25  C17 UNL     1      19.439   0.735  51.589  1.00  0.00     0.012 A 
HETATM   26  C18 UNL     1      19.087  -0.390  52.305  1.00  0.00     0.001 A 
HETATM   27  C19 UNL     1      19.693  -0.596  53.527  1.00  0.00     0.000 A 
HETATM   28  C20 UNL     1      20.620   0.311  53.996  1.00  0.00     0.001 A 
HETATM   29  C21 UNL     1      20.913   1.409  53.215  1.00  0.00     0.012 A 
ENDBRANCH  18  24
BRANCH   1  30
HETATM   30  O1  UNL     1      26.259   1.442  54.673  1.00  0.00    -0.356 OA
HETATM   31  C1  UNL     1      26.762   0.155  55.003  1.00  0.00     0.210 C 
ENDBRANCH   1  30
TORSDOF 2
ENDMDL
MODEL 5
REMARK VINA RESULT:      -8.5      2.406      4.780
REMARK  2 active torsions:
REMARK  status: ('A' for Active; 'I' for Inactive)
REMARK    1  A    between atoms: O1_2  and  C2_3 
REMARK    2  A    between atoms: C15_20  and  C16_21 
ROOT
HETATM    1  C2  UNL     1      25.853   5.271  49.459  1.00  0.00     0.069 A 
HETATM    2  C3  UNL     1      26.180   3.947  49.321  1.00  0.00     0.039 A 
HETATM    3  C4  UNL     1      25.187   3.004  49.428  1.00  0.00     0.040 A 
HETATM    4  C5  UNL     1      23.833   3.255  49.673  1.00  0.00     0.078 A 
HETATM    5  C6  UNL     1      23.605   4.635  49.798  1.00  0.00     0.006 A 
HETATM    6  C7  UNL     1      24.559   5.610  49.699  1.00  0.00     0.048 A 
HETATM    7  C8  UNL     1      22.124   4.750  50.060  1.00  0.00     0.315 C 
HETATM    8  N1  UNL     1      21.381   3.891  49.219  1.00  0.00     0.123 N 
HETATM    9  C9  UNL     1      20.011   3.608  49.684  1.00  0.00     0.281 A 
HETATM   10  C10 UNL     1      19.388   2.991  48.488  1.00  0.00     0.156 A 
HETATM   11  N2  UNL     1      18.348   3.425  47.825  1.00  0.00    -0.254 NA
HETATM   12  C11 UNL     1      17.684   4.613  48.236  1.00  0.00     0.226 A 
HETATM   13  N3  UNL     1      18.170   5.151  49.234  1.00  0.00    -0.278 NA
HETATM   14  C12 UNL     1      19.268   4.809  50.058  1.00  0.00     0.220 A 
HETATM   15  N4  UNL     1      20.091   2.584  50.693  1.00  0.00    -0.364 N 
HETATM   16  C13 UNL     1      20.200   2.930  52.039  1.00  0.00     0.148 C 
HETATM   17  C14 UNL     1      21.455   2.421  52.714  1.00  0.00     0.003 C 
HETATM   18  C15 UNL     1      22.467   1.891  52.089  1.00  0.00    -0.019 C 
HETATM   19  C22 UNL     1      22.301   1.522  50.681  1.00  0.00     0.184 C 
HETATM   20  O2  UNL     1      23.040   2.182  49.737  1.00  0.00    -0.339 OA
HETATM   21  C23 UNL     1      20.816   1.430  50.293  1.00  0.00     0.112 C 
HETATM   22  C24 UNL     1      20.203   0.230  51.026  1.00  0.00     0.035 C 
HETATM   23  H9  UNL     1      21.293   4.307  48.243  1.00  0.00     0.320 HD
ENDROOT
BRANCH  18  24
HETATM   24  C16 UNL     1      23.732   1.662  52.774  1.00  0.00    -0.028 A 
HETATM   25  C17 UNL     1      24.209   0.404  53.077  1.00  0.00     0.012 A 
HETATM   26  C18 UNL     1      25.400   0.129  53.716  1.00  0.00     0.001 A 
HETATM   27  C19 UNL     1      26.195   1.192  54.091  1.00  0.00     0.000 A 
HETATM   28  C20 UNL     1      25.788   2.482  53.823  1.00  0.00     0.001 A 
HETATM   29  C21 UNL     1      24.582   2.667  53.180  1.00  0.00     0.012 A 
ENDBRANCH  18  24
BRANCH   1  30
HETATM   30  O1  UNL     1      26.772   6.277  49.367  1.00  0.00    -0.356 OA
HETATM   31  C1  UNL     1      27.561   6.523  48.211  1.00  0.00     0.210 C 
ENDBRANCH   1  30
TORSDOF 2
ENDMDL
MODEL 6
REMARK VINA RESULT:      -8.4      2.384      5.818
REMARK  2 active torsions:
REMARK  status: ('A' for Active; 'I' for Inactive)
REMARK    1  A    between atoms: O1_2  and  C2_3 
REMARK    2  A    between atoms: C15_20  and  C16_21 
ROOT
HETATM    1  C2  UNL     1      19.394  -0.382  52.988  1.00  0.00     0.069 A 
HETATM    2  C3  UNL     1      19.346  -0.235  51.627  1.00  0.00     0.039 A 
HETATM    3  C4  UNL     1      20.429   0.310  50.979  1.00  0.00     0.040 A 
HETATM    4  C5  UNL     1      21.614   0.747  51.579  1.00  0.00     0.078 A 
HETATM    5  C6  UNL     1      21.561   0.553  52.969  1.00  0.00     0.006 A 
HETATM    6  C7  UNL     1      20.508   0.016  53.656  1.00  0.00     0.048 A 
HETATM    7  C8  UNL     1      22.887   1.068  53.472  1.00  0.00     0.315 C 
HETATM    8  N1  UNL     1      23.953   0.644  52.647  1.00  0.00     0.123 N 
HETATM    9  C9  UNL     1      25.192   1.431  52.790  1.00  0.00     0.281 A 
HETATM   10  C10 UNL     1      26.191   0.585  52.092  1.00  0.00     0.156 A 
HETATM   11  N2  UNL     1      27.271   0.054  52.601  1.00  0.00    -0.254 NA
HETATM   12  C11 UNL     1      27.596   0.268  53.969  1.00  0.00     0.226 A 
HETATM   13  N3  UNL     1      26.790   0.975  54.580  1.00  0.00    -0.278 NA
HETATM   14  C12 UNL     1      25.598   1.622  54.179  1.00  0.00     0.220 A 
HETATM   15  N4  UNL     1      25.041   2.633  52.012  1.00  0.00    -0.364 N 
HETATM   16  C13 UNL     1      24.542   3.794  52.601  1.00  0.00     0.148 C 
HETATM   17  C14 UNL     1      23.266   4.312  51.974  1.00  0.00     0.003 C 
HETATM   18  C15 UNL     1      22.550   3.656  51.106  1.00  0.00    -0.019 C 
HETATM   19  C22 UNL     1      23.123   2.455  50.496  1.00  0.00     0.184 C 
HETATM   20  O2  UNL     1      22.540   1.243  50.754  1.00  0.00    -0.339 OA
HETATM   21  C23 UNL     1      24.651   2.409  50.665  1.00  0.00     0.112 C 
HETATM   22  C24 UNL     1      25.260   3.535  49.820  1.00  0.00     0.035 C 
HETATM   23  H9  UNL     1      24.209  -0.369  52.856  1.00  0.00     0.320 HD
ENDROOT
BRANCH  18  24
HETATM   24  C16 UNL     1      21.213   4.109  50.746  1.00  0.00    -0.028 A 
HETATM   25  C17 UNL     1      20.936   4.783  49.575  1.00  0.00     0.012 A 
HETATM   26  C18 UNL     1      19.692   5.228  49.179  1.00  0.00     0.001 A 
HETATM   27  C19 UNL     1      18.621   4.987  50.015  1.00  0.00     0.000 A 
HETATM   28  C20 UNL     1      18.816   4.319  51.206  1.00  0.00     0.001 A 
HETATM   29  C21 UNL     1      20.094   3.908  51.523  1.00  0.00     0.012 A 
ENDBRANCH  18  24
BRANCH   1  30
HETATM   30  O1  UNL     1      18.366  -0.913  53.715  1.00  0.00    -0.356 OA
HETATM   31  C1  UNL     1      17.792  -2.187  53.457  1.00  0.00     0.210 C 
ENDBRANCH   1  30
TORSDOF 2
ENDMDL
MODEL 7
REMARK VINA RESULT:      -8.3      6.660     10.828
REMARK  2 active torsions:
REMARK  status: ('A' for Active; 'I' for Inactive)
REMARK    1  A    between atoms: O1_2  and  C2_3 
REMARK    2  A    between atoms: C15_20  and  C16_21 
ROOT
HETATM    1  C2  UNL     1      32.160   5.019  48.194  1.00  0.00     0.069 A 
HETATM    2  C3  UNL     1      32.735   6.057  48.878  1.00  0.00     0.039 A 
HETATM    3  C4  UNL     1      31.967   7.153  49.191  1.00  0.00     0.040 A 
HETATM    4  C5  UNL     1      30.616   7.331  48.874  1.00  0.00     0.078 A 
HETATM    5  C6  UNL     1      30.125   6.215  48.176  1.00  0.00     0.006 A 
HETATM    6  C7  UNL     1      30.850   5.105  47.843  1.00  0.00     0.048 A 
HETATM    7  C8  UNL     1      28.680   6.549  47.902  1.00  0.00     0.315 C 
HETATM    8  N1  UNL     1      28.056   7.120  49.035  1.00  0.00     0.123 N 
HETATM    9  C9  UNL     1      26.817   7.864  48.746  1.00  0.00     0.281 A 
HETATM   10  C10 UNL     1      26.231   8.047  50.096  1.00  0.00     0.156 A 
HETATM   11  N2  UNL     1      25.072   7.617  50.521  1.00  0.00    -0.254 NA
HETATM   12  C11 UNL     1      24.219   6.886  49.649  1.00  0.00     0.226 A 
HETATM   13  N3  UNL     1      24.671   6.721  48.513  1.00  0.00    -0.278 NA
HETATM   14  C12 UNL     1      25.882   7.124  47.903  1.00  0.00     0.220 A 
HETATM   15  N4  UNL     1      27.190   9.170  48.267  1.00  0.00    -0.364 N 
HETATM   16  C13 UNL     1      27.341   9.402  46.901  1.00  0.00     0.148 C 
HETATM   17  C14 UNL     1      28.728   9.856  46.497  1.00  0.00     0.003 C 
HETATM   18  C15 UNL     1      29.768   9.841  47.279  1.00  0.00    -0.019 C 
HETATM   19  C22 UNL     1      29.560   9.616  48.711  1.00  0.00     0.184 C 
HETATM   20  O2  UNL     1      30.066   8.478  49.280  1.00  0.00    -0.339 OA
HETATM   21  C23 UNL     1      28.096   9.862  49.114  1.00  0.00     0.112 C 
HETATM   22  C24 UNL     1      27.804  11.361  48.967  1.00  0.00     0.035 C 
HETATM   23  H9  UNL     1      27.802   6.365  49.742  1.00  0.00     0.320 HD
ENDROOT
BRANCH  18  24
HETATM   24  C16 UNL     1      31.108  10.049  46.746  1.00  0.00    -0.028 A 
HETATM   25  C17 UNL     1      31.893  11.131  47.084  1.00  0.00     0.012 A 
HETATM   26  C18 UNL     1      33.168  11.375  46.617  1.00  0.00     0.001 A 
HETATM   27  C19 UNL     1      33.720  10.469  45.735  1.00  0.00     0.000 A 
HETATM   28  C20 UNL     1      32.997   9.361  45.347  1.00  0.00     0.001 A 
HETATM   29  C21 UNL     1      31.729   9.193  45.863  1.00  0.00     0.012 A 
ENDBRANCH  18  24
BRANCH   1  30
HETATM   30  O1  UNL     1      32.845   3.891  47.841  1.00  0.00    -0.356 OA
HETATM   31  C1  UNL     1      32.503   3.072  46.732  1.00  0.00     0.210 C 
ENDBRANCH   1  30
TORSDOF 2
ENDMDL
MODEL 8
REMARK VINA RESULT:      -8.2      8.212     12.171
REMARK  2 active torsions:
REMARK  status: ('A' for Active; 'I' for Inactive)
REMARK    1  A    between atoms: O1_2  and  C2_3 
REMARK    2  A    between atoms: C15_20  and  C16_21 
ROOT
HETATM    1  C2  UNL     1      27.639   6.377  48.185  1.00  0.00     0.069 A 
HETATM    2  C3  UNL     1      27.605   7.356  47.227  1.00  0.00     0.039 A 
HETATM    3  C4  UNL     1      28.780   7.733  46.621  1.00  0.00     0.040 A 
HETATM    4  C5  UNL     1      30.050   7.210  46.886  1.00  0.00     0.078 A 
HETATM    5  C6  UNL     1      29.975   6.219  47.879  1.00  0.00     0.006 A 
HETATM    6  C7  UNL     1      28.832   5.811  48.508  1.00  0.00     0.048 A 
HETATM    7  C8  UNL     1      31.400   5.758  48.059  1.00  0.00     0.315 C 
HETATM    8  N1  UNL     1      32.053   5.595  46.817  1.00  0.00     0.123 N 
HETATM    9  C9  UNL     1      33.525   5.580  46.892  1.00  0.00     0.281 A 
HETATM   10  C10 UNL     1      33.909   5.075  45.551  1.00  0.00     0.156 A 
HETATM   11  N2  UNL     1      34.586   3.991  45.278  1.00  0.00    -0.254 NA
HETATM   12  C11 UNL     1      35.043   3.150  46.330  1.00  0.00     0.226 A 
HETATM   13  N3  UNL     1      34.748   3.543  47.462  1.00  0.00    -0.278 NA
HETATM   14  C12 UNL     1      34.041   4.679  47.920  1.00  0.00     0.220 A 
HETATM   15  N4  UNL     1      33.976   6.945  46.974  1.00  0.00    -0.364 N 
HETATM   16  C13 UNL     1      34.176   7.546  48.216  1.00  0.00     0.148 C 
HETATM   17  C14 UNL     1      33.319   8.769  48.461  1.00  0.00     0.003 C 
HETATM   18  C15 UNL     1      32.325   9.139  47.706  1.00  0.00    -0.019 C 
HETATM   19  C22 UNL     1      32.166   8.495  46.400  1.00  0.00     0.184 C 
HETATM   20  O2  UNL     1      31.056   7.725  46.175  1.00  0.00    -0.339 OA
HETATM   21  C23 UNL     1      33.458   7.789  45.956  1.00  0.00     0.112 C 
HETATM   22  C24 UNL     1      34.517   8.862  45.672  1.00  0.00     0.035 C 
HETATM   23  H9  UNL     1      31.760   4.680  46.356  1.00  0.00     0.320 HD
ENDROOT
BRANCH  18  24
HETATM   24  C16 UNL     1      31.396  10.171  48.144  1.00  0.00    -0.028 A 
HETATM   25  C17 UNL     1      31.547  11.504  47.828  1.00  0.00     0.012 A 
HETATM   26  C18 UNL     1      30.698  12.522  48.210  1.00  0.00     0.001 A 
HETATM   27  C19 UNL     1      29.596  12.195  48.974  1.00  0.00     0.000 A 
HETATM   28  C20 UNL     1      29.375  10.882  49.332  1.00  0.00     0.001 A 
HETATM   29  C21 UNL     1      30.275   9.927  48.907  1.00  0.00     0.012 A 
ENDBRANCH  18  24
BRANCH   1  30
HETATM   30  O1  UNL     1      26.523   5.938  48.838  1.00  0.00    -0.356 OA
HETATM   31  C1  UNL     1      26.371   4.619  49.344  1.00  0.00     0.210 C 
ENDBRANCH   1  30
TORSDOF 2
ENDMDL
MODEL 9
REMARK VINA RESULT:      -7.8      9.318     12.465
REMARK  2 active torsions:
REMARK  status: ('A' for Active; 'I' for Inactive)
REMARK    1  A    between atoms: O1_2  and  C2_3 
REMARK    2  A    between atoms: C15_20  and  C16_21 
ROOT
HETATM    1  C2  UNL     1      35.119   8.934  44.157  1.00  0.00     0.069 A 
HETATM    2  C3  UNL     1      34.340   7.971  43.571  1.00  0.00     0.039 A 
HETATM    3  C4  UNL     1      33.108   7.694  44.114  1.00  0.00     0.040 A 
HETATM    4  C5  UNL     1      32.544   8.308  45.237  1.00  0.00     0.078 A 
HETATM    5  C6  UNL     1      33.419   9.275  45.758  1.00  0.00     0.006 A 
HETATM    6  C7  UNL     1      34.652   9.584  45.254  1.00  0.00     0.048 A 
HETATM    7  C8  UNL     1      32.688   9.840  46.951  1.00  0.00     0.315 C 
HETATM    8  N1  UNL     1      31.325  10.072  46.660  1.00  0.00     0.123 N 
HETATM    9  C9  UNL     1      30.456  10.199  47.844  1.00  0.00     0.281 A 
HETATM   10  C10 UNL     1      29.207  10.753  47.267  1.00  0.00     0.156 A 
HETATM   11  N2  UNL     1      28.634  11.890  47.564  1.00  0.00    -0.254 NA
HETATM   12  C11 UNL     1      29.211  12.746  48.542  1.00  0.00     0.226 A 
HETATM   13  N3  UNL     1      30.249  12.314  49.050  1.00  0.00    -0.278 NA
HETATM   14  C12 UNL     1      30.980  11.119  48.850  1.00  0.00     0.220 A 
HETATM   15  N4  UNL     1      30.152   8.871  48.311  1.00  0.00    -0.364 N 
HETATM   16  C13 UNL     1      30.949   8.267  49.282  1.00  0.00     0.148 C 
HETATM   17  C14 UNL     1      31.605   6.978  48.835  1.00  0.00     0.003 C 
HETATM   18  C15 UNL     1      31.625   6.546  47.607  1.00  0.00    -0.019 C 
HETATM   19  C22 UNL     1      30.755   7.196  46.625  1.00  0.00     0.184 C 
HETATM   20  O2  UNL     1      31.328   7.883  45.589  1.00  0.00    -0.339 OA
HETATM   21  C23 UNL     1      29.639   8.006  47.308  1.00  0.00     0.112 C 
HETATM   22  C24 UNL     1      28.687   7.022  47.998  1.00  0.00     0.035 C 
HETATM   23  H9  UNL     1      31.209  10.969  46.098  1.00  0.00     0.320 HD
ENDROOT
BRANCH  18  24
HETATM   24  C16 UNL     1      32.488   5.439  47.218  1.00  0.00    -0.028 A 
HETATM   25  C17 UNL     1      32.009   4.184  46.907  1.00  0.00     0.012 A 
HETATM   26  C18 UNL     1      32.776   3.102  46.528  1.00  0.00     0.001 A 
HETATM   27  C19 UNL     1      34.143   3.274  46.445  1.00  0.00     0.000 A 
HETATM   28  C20 UNL     1      34.700   4.501  46.740  1.00  0.00     0.001 A 
HETATM   29  C21 UNL     1      33.858   5.529  47.112  1.00  0.00     0.012 A 
ENDBRANCH  18  24
BRANCH   1  30
HETATM   30  O1  UNL     1      36.355   9.276  43.687  1.00  0.00    -0.356 OA
HETATM   31  C1  UNL     1      37.006   8.608  42.615  1.00  0.00     0.210 C 
ENDBRANCH   1  30
TORSDOF 2
ENDMDL
