MODEL 1
REMARK VINA RESULT:      -8.2      0.000      0.000
REMARK  8 active torsions:
REMARK  status: ('A' for Active; 'I' for Inactive)
REMARK    1  A    between atoms: C2_2  and  O1_3 
REMARK    2  A    between atoms: O1_3  and  C3_4 
REMARK    3  A    between atoms: C7_10  and  N3_11 
REMARK    4  A    between atoms: N3_11  and  C8_12 
REMARK    5  A    between atoms: C16_22  and  C17_23 
REMARK    6  A    between atoms: C17_23  and  C18_24 
REMARK    7  A    between atoms: C18_24  and  C19_25 
REMARK    8  A    between atoms: C19_25  and  N4_26 
ROOT
HETATM    1  C3  UNL     1      20.021   0.366  52.150  1.00  0.00     0.077 A 
HETATM    2  C4  UNL     1      20.252  -0.307  53.344  1.00  0.00     0.070 A 
HETATM    3  C5  UNL     1      21.540  -0.533  53.778  1.00  0.00     0.074 A 
HETATM    4  N1  UNL     1      21.662  -1.187  54.939  1.00  0.00    -0.241 NA
HETATM    5  C6  UNL     1      22.870  -1.461  55.456  1.00  0.00     0.236 A 
HETATM    6  N2  UNL     1      23.927  -1.047  54.754  1.00  0.00    -0.224 NA
HETATM    7  C7  UNL     1      23.905  -0.391  53.591  1.00  0.00     0.142 A 
HETATM    8  C14 UNL     1      22.654  -0.127  53.089  1.00  0.00     0.039 A 
HETATM    9  C15 UNL     1      22.385   0.529  51.922  1.00  0.00     0.027 A 
HETATM   10  C16 UNL     1      21.142   0.792  51.426  1.00  0.00    -0.024 A 
ENDROOT
BRANCH   7  11
HETATM   11  N3  UNL     1      25.032   0.044  52.853  1.00  0.00    -0.340 N 
HETATM   12  H8  UNL     1      24.940   0.602  51.997  1.00  0.00     0.167 HD
BRANCH  11  13
HETATM   13  C8  UNL     1      26.415  -0.159  53.088  1.00  0.00     0.035 A 
HETATM   14  C9  UNL     1      27.130  -1.318  52.842  1.00  0.00     0.032 A 
HETATM   15  C10 UNL     1      28.473  -1.448  53.089  1.00  0.00     0.046 A 
HETATM   16  C11 UNL     1      29.206  -0.407  53.611  1.00  0.00     0.138 A 
HETATM   17  F1  UNL     1      30.515  -0.679  53.802  1.00  0.00    -0.204 F 
HETATM   18  C12 UNL     1      28.536   0.769  53.873  1.00  0.00     0.074 A 
HETATM   19 CL1  UNL     1      29.516   2.059  54.535  1.00  0.00    -0.081 Cl
HETATM   20  C13 UNL     1      27.186   0.856  53.609  1.00  0.00     0.056 A 
ENDBRANCH  11  13
ENDBRANCH   7  11
BRANCH  10  21
HETATM   21  C17 UNL     1      20.840   1.492  50.180  1.00  0.00     0.043 C 
BRANCH  21  22
HETATM   22  C18 UNL     1      21.089   2.957  50.166  1.00  0.00     0.035 C 
BRANCH  22  23
HETATM   23  C19 UNL     1      22.182   3.202  49.120  1.00  0.00     0.275 C 
BRANCH  23  24
HETATM   24  N4  UNL     1      23.228   4.035  49.661  1.00  0.00     0.113 N 
HETATM   25  C20 UNL     1      24.554   3.528  49.486  1.00  0.00     0.301 C 
HETATM   26  C21 UNL     1      24.870   2.999  50.871  1.00  0.00     0.200 C 
HETATM   27  O2  UNL     1      24.220   3.886  51.700  1.00  0.00    -0.361 OA
HETATM   28  C22 UNL     1      23.023   4.226  51.072  1.00  0.00     0.440 C 
ENDBRANCH  23  24
ENDBRANCH  22  23
ENDBRANCH  21  22
ENDBRANCH  10  21
BRANCH   1  29
HETATM   29  O1  UNL     1      18.735   0.588  51.725  1.00  0.00    -0.351 OA
BRANCH  29  30
HETATM   30  C2  UNL     1      17.735  -0.364  51.529  1.00  0.00     0.171 C 
HETATM   31  C1  UNL     1      17.196  -0.176  50.112  1.00  0.00     0.034 C 
ENDBRANCH  29  30
ENDBRANCH   1  29
TORSDOF 8
ENDMDL
MODEL 2
REMARK VINA RESULT:      -8.2      3.574      6.614
REMARK  8 active torsions:
REMARK  status: ('A' for Active; 'I' for Inactive)
REMARK    1  A    between atoms: C2_2  and  O1_3 
REMARK    2  A    between atoms: O1_3  and  C3_4 
REMARK    3  A    between atoms: C7_10  and  N3_11 
REMARK    4  A    between atoms: N3_11  and  C8_12 
REMARK    5  A    between atoms: C16_22  and  C17_23 
REMARK    6  A    between atoms: C17_23  and  C18_24 
REMARK    7  A    between atoms: C18_24  and  C19_25 
REMARK    8  A    between atoms: C19_25  and  N4_26 
ROOT
HETATM    1  C3  UNL     1      22.503   0.983  52.413  1.00  0.00     0.077 A 
HETATM    2  C4  UNL     1      21.453   1.774  51.959  1.00  0.00     0.070 A 
HETATM    3  C5  UNL     1      21.669   3.090  51.617  1.00  0.00     0.074 A 
HETATM    4  N1  UNL     1      20.600   3.770  51.190  1.00  0.00    -0.241 NA
HETATM    5  C6  UNL     1      20.696   5.059  50.829  1.00  0.00     0.236 A 
HETATM    6  N2  UNL     1      21.906   5.615  50.920  1.00  0.00    -0.224 NA
HETATM    7  C7  UNL     1      23.027   5.020  51.334  1.00  0.00     0.142 A 
HETATM    8  C14 UNL     1      22.894   3.701  51.695  1.00  0.00     0.039 A 
HETATM    9  C15 UNL     1      23.899   2.893  52.145  1.00  0.00     0.027 A 
HETATM   10  C16 UNL     1      23.764   1.584  52.503  1.00  0.00    -0.024 A 
ENDROOT
BRANCH   7  11
HETATM   11  N3  UNL     1      24.308   5.617  51.426  1.00  0.00    -0.340 N 
HETATM   12  H8  UNL     1      24.672   5.991  52.310  1.00  0.00     0.167 HD
BRANCH  11  13
HETATM   13  C8  UNL     1      25.295   5.826  50.431  1.00  0.00     0.035 A 
HETATM   14  C9  UNL     1      25.969   4.848  49.722  1.00  0.00     0.032 A 
HETATM   15  C10 UNL     1      26.915   5.118  48.765  1.00  0.00     0.046 A 
HETATM   16  C11 UNL     1      27.257   6.412  48.447  1.00  0.00     0.138 A 
HETATM   17  F1  UNL     1      28.201   6.527  47.489  1.00  0.00    -0.204 F 
HETATM   18  C12 UNL     1      26.611   7.422  49.128  1.00  0.00     0.074 A 
HETATM   19 CL1  UNL     1      27.084   9.048  48.685  1.00  0.00    -0.081 Cl
HETATM   20  C13 UNL     1      25.668   7.105  50.082  1.00  0.00     0.056 A 
ENDBRANCH  11  13
ENDBRANCH   7  11
BRANCH  10  21
HETATM   21  C17 UNL     1      24.829   0.708  52.986  1.00  0.00     0.043 C 
BRANCH  21  22
HETATM   22  C18 UNL     1      25.989   0.510  52.077  1.00  0.00     0.035 C 
BRANCH  22  23
HETATM   23  C19 UNL     1      27.238   0.896  52.876  1.00  0.00     0.275 C 
BRANCH  23  24
HETATM   24  N4  UNL     1      27.599  -0.155  53.795  1.00  0.00     0.113 N 
HETATM   25  C20 UNL     1      28.791   0.086  54.547  1.00  0.00     0.301 C 
HETATM   26  C21 UNL     1      29.793  -0.801  53.836  1.00  0.00     0.200 C 
HETATM   27  O2  UNL     1      29.034  -1.883  53.449  1.00  0.00    -0.361 OA
HETATM   28  C22 UNL     1      27.783  -1.390  53.080  1.00  0.00     0.440 C 
ENDBRANCH  23  24
ENDBRANCH  22  23
ENDBRANCH  21  22
ENDBRANCH  10  21
BRANCH   1  29
HETATM   29  O1  UNL     1      22.277  -0.327  52.752  1.00  0.00    -0.351 OA
BRANCH  29  30
HETATM   30  C2  UNL     1      21.447  -0.807  53.764  1.00  0.00     0.171 C 
HETATM   31  C1  UNL     1      22.335  -1.151  54.959  1.00  0.00     0.034 C 
ENDBRANCH  29  30
ENDBRANCH   1  29
TORSDOF 8
ENDMDL
MODEL 3
REMARK VINA RESULT:      -8.0      3.611      6.670
REMARK  8 active torsions:
REMARK  status: ('A' for Active; 'I' for Inactive)
REMARK    1  A    between atoms: C2_2  and  O1_3 
REMARK    2  A    between atoms: O1_3  and  C3_4 
REMARK    3  A    between atoms: C7_10  and  N3_11 
REMARK    4  A    between atoms: N3_11  and  C8_12 
REMARK    5  A    between atoms: C16_22  and  C17_23 
REMARK    6  A    between atoms: C17_23  and  C18_24 
REMARK    7  A    between atoms: C18_24  and  C19_25 
REMARK    8  A    between atoms: C19_25  and  N4_26 
ROOT
HETATM    1  C3  UNL     1      26.985   0.548  53.457  1.00  0.00     0.077 A 
HETATM    2  C4  UNL     1      26.420  -0.147  54.521  1.00  0.00     0.070 A 
HETATM    3  C5  UNL     1      25.092  -0.510  54.489  1.00  0.00     0.074 A 
HETATM    4  N1  UNL     1      24.639  -1.176  55.557  1.00  0.00    -0.241 NA
HETATM    5  C6  UNL     1      23.361  -1.579  55.632  1.00  0.00     0.236 A 
HETATM    6  N2  UNL     1      22.579  -1.280  54.593  1.00  0.00    -0.224 NA
HETATM    7  C7  UNL     1      22.939  -0.620  53.489  1.00  0.00     0.142 A 
HETATM    8  C14 UNL     1      24.253  -0.222  53.443  1.00  0.00     0.039 A 
HETATM    9  C15 UNL     1      24.845   0.461  52.419  1.00  0.00     0.027 A 
HETATM   10  C16 UNL     1      26.150   0.854  52.376  1.00  0.00    -0.024 A 
ENDROOT
BRANCH   7  11
HETATM   11  N3  UNL     1      22.103  -0.308  52.390  1.00  0.00    -0.340 N 
HETATM   12  H8  UNL     1      22.076  -0.888  51.543  1.00  0.00     0.167 HD
BRANCH  11  13
HETATM   13  C8  UNL     1      21.196   0.766  52.205  1.00  0.00     0.035 A 
HETATM   14  C9  UNL     1      19.826   0.667  52.038  1.00  0.00     0.032 A 
HETATM   15  C10 UNL     1      19.001   1.750  51.867  1.00  0.00     0.046 A 
HETATM   16  C11 UNL     1      19.502   3.032  51.851  1.00  0.00     0.138 A 
HETATM   17  F1  UNL     1      18.575   3.998  51.675  1.00  0.00    -0.204 F 
HETATM   18  C12 UNL     1      20.863   3.180  52.015  1.00  0.00     0.074 A 
HETATM   19 CL1  UNL     1      21.446   4.830  51.987  1.00  0.00    -0.081 Cl
HETATM   20  C13 UNL     1      21.654   2.065  52.183  1.00  0.00     0.056 A 
ENDBRANCH  11  13
ENDBRANCH   7  11
BRANCH  10  21
HETATM   21  C17 UNL     1      26.795   1.585  51.288  1.00  0.00     0.043 C 
BRANCH  21  22
HETATM   22  C18 UNL     1      26.471   3.032  51.179  1.00  0.00     0.035 C 
BRANCH  22  23
HETATM   23  C19 UNL     1      26.510   3.374  49.686  1.00  0.00     0.275 C 
BRANCH  23  24
HETATM   24  N4  UNL     1      25.445   4.284  49.343  1.00  0.00     0.113 N 
HETATM   25  C20 UNL     1      25.873   5.552  48.841  1.00  0.00     0.301 C 
HETATM   26  C21 UNL     1      25.654   6.452  50.041  1.00  0.00     0.200 C 
HETATM   27  O2  UNL     1      24.532   5.916  50.633  1.00  0.00    -0.361 OA
HETATM   28  C22 UNL     1      24.622   4.532  50.497  1.00  0.00     0.440 C 
ENDBRANCH  23  24
ENDBRANCH  22  23
ENDBRANCH  21  22
ENDBRANCH  10  21
BRANCH   1  29
HETATM   29  O1  UNL     1      28.309   0.905  53.497  1.00  0.00    -0.351 OA
BRANCH  29  30
HETATM   30  C2  UNL     1      29.321   0.312  54.251  1.00  0.00     0.171 C 
HETATM   31  C1  UNL     1      29.859  -0.869  53.444  1.00  0.00     0.034 C 
ENDBRANCH  29  30
ENDBRANCH   1  29
TORSDOF 8
ENDMDL
MODEL 4
REMARK VINA RESULT:      -8.0      3.834      7.067
REMARK  8 active torsions:
REMARK  status: ('A' for Active; 'I' for Inactive)
REMARK    1  A    between atoms: C2_2  and  O1_3 
REMARK    2  A    between atoms: O1_3  and  C3_4 
REMARK    3  A    between atoms: C7_10  and  N3_11 
REMARK    4  A    between atoms: N3_11  and  C8_12 
REMARK    5  A    between atoms: C16_22  and  C17_23 
REMARK    6  A    between atoms: C17_23  and  C18_24 
REMARK    7  A    between atoms: C18_24  and  C19_25 
REMARK    8  A    between atoms: C19_25  and  N4_26 
ROOT
HETATM    1  C3  UNL     1      26.634   0.504  52.989  1.00  0.00     0.077 A 
HETATM    2  C4  UNL     1      26.085  -0.340  53.948  1.00  0.00     0.070 A 
HETATM    3  C5  UNL     1      24.722  -0.392  54.131  1.00  0.00     0.074 A 
HETATM    4  N1  UNL     1      24.287  -1.234  55.075  1.00  0.00    -0.241 NA
HETATM    5  C6  UNL     1      22.978  -1.366  55.338  1.00  0.00     0.236 A 
HETATM    6  N2  UNL     1      22.145  -0.618  54.611  1.00  0.00    -0.224 NA
HETATM    7  C7  UNL     1      22.484   0.248  53.652  1.00  0.00     0.142 A 
HETATM    8  C14 UNL     1      23.831   0.359  53.408  1.00  0.00     0.039 A 
HETATM    9  C15 UNL     1      24.408   1.174  52.477  1.00  0.00     0.027 A 
HETATM   10  C16 UNL     1      25.746   1.282  52.236  1.00  0.00    -0.024 A 
ENDROOT
BRANCH   7  11
HETATM   11  N3  UNL     1      21.593   1.037  52.884  1.00  0.00    -0.340 N 
HETATM   12  H8  UNL     1      21.740   2.043  52.743  1.00  0.00     0.167 HD
BRANCH  11  13
HETATM   13  C8  UNL     1      20.408   0.675  52.196  1.00  0.00     0.035 A 
HETATM   14  C9  UNL     1      20.050   1.056  50.916  1.00  0.00     0.032 A 
HETATM   15  C10 UNL     1      18.885   0.665  50.305  1.00  0.00     0.046 A 
HETATM   16  C11 UNL     1      17.982  -0.150  50.947  1.00  0.00     0.138 A 
HETATM   17  F1  UNL     1      16.881  -0.452  50.225  1.00  0.00    -0.204 F 
HETATM   18  C12 UNL     1      18.296  -0.556  52.227  1.00  0.00     0.074 A 
HETATM   19 CL1  UNL     1      17.113  -1.590  52.997  1.00  0.00    -0.081 Cl
HETATM   20  C13 UNL     1      19.476  -0.139  52.803  1.00  0.00     0.056 A 
ENDBRANCH  11  13
ENDBRANCH   7  11
BRANCH  10  21
HETATM   21  C17 UNL     1      26.377   2.150  51.245  1.00  0.00     0.043 C 
BRANCH  21  22
HETATM   22  C18 UNL     1      25.476   2.766  50.235  1.00  0.00     0.035 C 
BRANCH  22  23
HETATM   23  C19 UNL     1      25.437   4.266  50.546  1.00  0.00     0.275 C 
BRANCH  23  24
HETATM   24  N4  UNL     1      24.086   4.765  50.481  1.00  0.00     0.113 N 
HETATM   25  C20 UNL     1      23.660   5.505  51.628  1.00  0.00     0.301 C 
HETATM   26  C21 UNL     1      22.780   4.497  52.340  1.00  0.00     0.200 C 
HETATM   27  O2  UNL     1      22.199   3.802  51.302  1.00  0.00    -0.361 OA
HETATM   28  C22 UNL     1      23.167   3.672  50.308  1.00  0.00     0.440 C 
ENDBRANCH  23  24
ENDBRANCH  22  23
ENDBRANCH  21  22
ENDBRANCH  10  21
BRANCH   1  29
HETATM   29  O1  UNL     1      27.994   0.550  52.813  1.00  0.00    -0.351 OA
BRANCH  29  30
HETATM   30  C2  UNL     1      28.975   0.522  53.803  1.00  0.00     0.171 C 
HETATM   31  C1  UNL     1      29.846  -0.708  53.550  1.00  0.00     0.034 C 
ENDBRANCH  29  30
ENDBRANCH   1  29
TORSDOF 8
ENDMDL
MODEL 5
REMARK VINA RESULT:      -7.9      3.346      7.357
REMARK  8 active torsions:
REMARK  status: ('A' for Active; 'I' for Inactive)
REMARK    1  A    between atoms: C2_2  and  O1_3 
REMARK    2  A    between atoms: O1_3  and  C3_4 
REMARK    3  A    between atoms: C7_10  and  N3_11 
REMARK    4  A    between atoms: N3_11  and  C8_12 
REMARK    5  A    between atoms: C16_22  and  C17_23 
REMARK    6  A    between atoms: C17_23  and  C18_24 
REMARK    7  A    between atoms: C18_24  and  C19_25 
REMARK    8  A    between atoms: C19_25  and  N4_26 
ROOT
HETATM    1  C3  UNL     1      25.345   4.560  49.568  1.00  0.00     0.077 A 
HETATM    2  C4  UNL     1      24.175   5.059  49.006  1.00  0.00     0.070 A 
HETATM    3  C5  UNL     1      23.039   4.283  48.958  1.00  0.00     0.074 A 
HETATM    4  N1  UNL     1      21.964   4.849  48.400  1.00  0.00    -0.241 NA
HETATM    5  C6  UNL     1      20.802   4.185  48.301  1.00  0.00     0.236 A 
HETATM    6  N2  UNL     1      20.783   2.941  48.786  1.00  0.00    -0.224 NA
HETATM    7  C7  UNL     1      21.802   2.293  49.357  1.00  0.00     0.142 A 
HETATM    8  C14 UNL     1      22.976   3.002  49.443  1.00  0.00     0.039 A 
HETATM    9  C15 UNL     1      24.144   2.548  49.986  1.00  0.00     0.027 A 
HETATM   10  C16 UNL     1      25.307   3.254  50.071  1.00  0.00    -0.024 A 
ENDROOT
BRANCH   7  11
HETATM   11  N3  UNL     1      21.773   0.974  49.871  1.00  0.00    -0.340 N 
HETATM   12  H8  UNL     1      21.929   0.154  49.273  1.00  0.00     0.167 HD
BRANCH  11  13
HETATM   13  C8  UNL     1      21.547   0.509  51.191  1.00  0.00     0.035 A 
HETATM   14  C9  UNL     1      20.318   0.326  51.799  1.00  0.00     0.032 A 
HETATM   15  C10 UNL     1      20.168  -0.133  53.084  1.00  0.00     0.046 A 
HETATM   16  C11 UNL     1      21.260  -0.444  53.862  1.00  0.00     0.138 A 
HETATM   17  F1  UNL     1      20.961  -0.882  55.104  1.00  0.00    -0.204 F 
HETATM   18  C12 UNL     1      22.507  -0.277  53.297  1.00  0.00     0.074 A 
HETATM   19 CL1  UNL     1      23.858  -0.687  54.330  1.00  0.00    -0.081 Cl
HETATM   20  C13 UNL     1      22.611   0.186  52.003  1.00  0.00     0.056 A 
ENDBRANCH  11  13
ENDBRANCH   7  11
BRANCH  10  21
HETATM   21  C17 UNL     1      26.563   2.781  50.649  1.00  0.00     0.043 C 
BRANCH  21  22
HETATM   22  C18 UNL     1      26.465   1.656  51.617  1.00  0.00     0.035 C 
BRANCH  22  23
HETATM   23  C19 UNL     1      27.502   1.934  52.711  1.00  0.00     0.275 C 
BRANCH  23  24
HETATM   24  N4  UNL     1      27.492   0.885  53.700  1.00  0.00     0.113 N 
HETATM   25  C20 UNL     1      28.721   0.715  54.411  1.00  0.00     0.301 C 
HETATM   26  C21 UNL     1      29.293  -0.524  53.751  1.00  0.00     0.200 C 
HETATM   27  O2  UNL     1      28.172  -1.270  53.461  1.00  0.00    -0.361 OA
HETATM   28  C22 UNL     1      27.176  -0.373  53.078  1.00  0.00     0.440 C 
ENDBRANCH  23  24
ENDBRANCH  22  23
ENDBRANCH  21  22
ENDBRANCH  10  21
BRANCH   1  29
HETATM   29  O1  UNL     1      26.473   5.340  49.612  1.00  0.00    -0.351 OA
BRANCH  29  30
HETATM   30  C2  UNL     1      27.108   5.967  48.540  1.00  0.00     0.171 C 
HETATM   31  C1  UNL     1      28.474   5.306  48.369  1.00  0.00     0.034 C 
ENDBRANCH  29  30
ENDBRANCH   1  29
TORSDOF 8
ENDMDL
MODEL 6
REMARK VINA RESULT:      -7.8      3.807      6.529
REMARK  8 active torsions:
REMARK  status: ('A' for Active; 'I' for Inactive)
REMARK    1  A    between atoms: C2_2  and  O1_3 
REMARK    2  A    between atoms: O1_3  and  C3_4 
REMARK    3  A    between atoms: C7_10  and  N3_11 
REMARK    4  A    between atoms: N3_11  and  C8_12 
REMARK    5  A    between atoms: C16_22  and  C17_23 
REMARK    6  A    between atoms: C17_23  and  C18_24 
REMARK    7  A    between atoms: C18_24  and  C19_25 
REMARK    8  A    between atoms: C19_25  and  N4_26 
ROOT
HETATM    1  C3  UNL     1      26.417   0.558  52.759  1.00  0.00     0.077 A 
HETATM    2  C4  UNL     1      25.585  -0.216  53.561  1.00  0.00     0.070 A 
HETATM    3  C5  UNL     1      24.220  -0.045  53.518  1.00  0.00     0.074 A 
HETATM    4  N1  UNL     1      23.502  -0.835  54.324  1.00  0.00    -0.241 NA
HETATM    5  C6  UNL     1      22.163  -0.754  54.363  1.00  0.00     0.236 A 
HETATM    6  N2  UNL     1      21.597   0.150  53.560  1.00  0.00    -0.224 NA
HETATM    7  C7  UNL     1      22.227   0.980  52.726  1.00  0.00     0.142 A 
HETATM    8  C14 UNL     1      23.596   0.872  52.710  1.00  0.00     0.039 A 
HETATM    9  C15 UNL     1      24.446   1.612  51.939  1.00  0.00     0.027 A 
HETATM   10  C16 UNL     1      25.805   1.501  51.925  1.00  0.00    -0.024 A 
ENDROOT
BRANCH   7  11
HETATM   11  N3  UNL     1      21.618   1.936  51.877  1.00  0.00    -0.340 N 
HETATM   12  H8  UNL     1      20.953   2.634  52.231  1.00  0.00     0.167 HD
BRANCH  11  13
HETATM   13  C8  UNL     1      21.758   2.143  50.481  1.00  0.00     0.035 A 
HETATM   14  C9  UNL     1      21.671   1.179  49.493  1.00  0.00     0.032 A 
HETATM   15  C10 UNL     1      21.813   1.448  48.155  1.00  0.00     0.046 A 
HETATM   16  C11 UNL     1      22.058   2.726  47.707  1.00  0.00     0.138 A 
HETATM   17  F1  UNL     1      22.175   2.841  46.367  1.00  0.00    -0.204 F 
HETATM   18  C12 UNL     1      22.153   3.721  48.657  1.00  0.00     0.074 A 
HETATM   19 CL1  UNL     1      22.465   5.326  48.032  1.00  0.00    -0.081 Cl
HETATM   20  C13 UNL     1      22.004   3.406  49.990  1.00  0.00     0.056 A 
ENDBRANCH  11  13
ENDBRANCH   7  11
BRANCH  10  21
HETATM   21  C17 UNL     1      26.726   2.287  51.106  1.00  0.00     0.043 C 
BRANCH  21  22
HETATM   22  C18 UNL     1      26.203   2.773  49.802  1.00  0.00     0.035 C 
BRANCH  22  23
HETATM   23  C19 UNL     1      26.827   4.153  49.572  1.00  0.00     0.275 C 
BRANCH  23  24
HETATM   24  N4  UNL     1      25.815   5.119  49.223  1.00  0.00     0.113 N 
HETATM   25  C20 UNL     1      26.306   6.315  48.614  1.00  0.00     0.301 C 
HETATM   26  C21 UNL     1      26.222   7.305  49.760  1.00  0.00     0.200 C 
HETATM   27  O2  UNL     1      25.098   6.896  50.443  1.00  0.00    -0.361 OA
HETATM   28  C22 UNL     1      25.078   5.503  50.397  1.00  0.00     0.440 C 
ENDBRANCH  23  24
ENDBRANCH  22  23
ENDBRANCH  21  22
ENDBRANCH  10  21
BRANCH   1  29
HETATM   29  O1  UNL     1      27.777   0.380  52.809  1.00  0.00    -0.351 OA
BRANCH  29  30
HETATM   30  C2  UNL     1      28.582   0.343  53.946  1.00  0.00     0.171 C 
HETATM   31  C1  UNL     1      29.609  -0.770  53.742  1.00  0.00     0.034 C 
ENDBRANCH  29  30
ENDBRANCH   1  29
TORSDOF 8
ENDMDL
MODEL 7
REMARK VINA RESULT:      -7.6      3.515      6.218
REMARK  8 active torsions:
REMARK  status: ('A' for Active; 'I' for Inactive)
REMARK    1  A    between atoms: C2_2  and  O1_3 
REMARK    2  A    between atoms: O1_3  and  C3_4 
REMARK    3  A    between atoms: C7_10  and  N3_11 
REMARK    4  A    between atoms: N3_11  and  C8_12 
REMARK    5  A    between atoms: C16_22  and  C17_23 
REMARK    6  A    between atoms: C17_23  and  C18_24 
REMARK    7  A    between atoms: C18_24  and  C19_25 
REMARK    8  A    between atoms: C19_25  and  N4_26 
ROOT
HETATM    1  C3  UNL     1      23.264   0.805  53.144  1.00  0.00     0.077 A 
HETATM    2  C4  UNL     1      24.509   0.935  53.751  1.00  0.00     0.070 A 
HETATM    3  C5  UNL     1      25.564   1.492  53.063  1.00  0.00     0.074 A 
HETATM    4  N1  UNL     1      26.721   1.577  53.729  1.00  0.00    -0.241 NA
HETATM    5  C6  UNL     1      27.814   2.103  53.156  1.00  0.00     0.236 A 
HETATM    6  N2  UNL     1      27.681   2.532  51.899  1.00  0.00    -0.224 NA
HETATM    7  C7  UNL     1      26.572   2.489  51.156  1.00  0.00     0.142 A 
HETATM    8  C14 UNL     1      25.472   1.945  51.772  1.00  0.00     0.039 A 
HETATM    9  C15 UNL     1      24.235   1.799  51.212  1.00  0.00     0.027 A 
HETATM   10  C16 UNL     1      23.143   1.259  51.826  1.00  0.00    -0.024 A 
ENDROOT
BRANCH   7  11
HETATM   11  N3  UNL     1      26.439   2.947  49.822  1.00  0.00    -0.340 N 
HETATM   12  H8  UNL     1      26.288   2.303  49.038  1.00  0.00     0.167 HD
BRANCH  11  13
HETATM   13  C8  UNL     1      26.478   4.264  49.298  1.00  0.00     0.035 A 
HETATM   14  C9  UNL     1      25.433   5.169  49.268  1.00  0.00     0.032 A 
HETATM   15  C10 UNL     1      25.539   6.434  48.748  1.00  0.00     0.046 A 
HETATM   16  C11 UNL     1      26.722   6.888  48.211  1.00  0.00     0.138 A 
HETATM   17  F1  UNL     1      26.679   8.151  47.737  1.00  0.00    -0.204 F 
HETATM   18  C12 UNL     1      27.793   6.020  48.219  1.00  0.00     0.074 A 
HETATM   19 CL1  UNL     1      29.272   6.647  47.526  1.00  0.00    -0.081 Cl
HETATM   20  C13 UNL     1      27.643   4.758  48.752  1.00  0.00     0.056 A 
ENDBRANCH  11  13
ENDBRANCH   7  11
BRANCH  10  21
HETATM   21  C17 UNL     1      21.815   1.097  51.239  1.00  0.00     0.043 C 
BRANCH  21  22
HETATM   22  C18 UNL     1      20.886   2.249  51.373  1.00  0.00     0.035 C 
BRANCH  22  23
HETATM   23  C19 UNL     1      19.569   1.684  51.915  1.00  0.00     0.275 C 
BRANCH  23  24
HETATM   24  N4  UNL     1      19.125   0.569  51.116  1.00  0.00     0.113 N 
HETATM   25  C20 UNL     1      18.302   0.917  50.000  1.00  0.00     0.301 C 
HETATM   26  C21 UNL     1      16.923   0.534  50.499  1.00  0.00     0.200 C 
HETATM   27  O2  UNL     1      17.169  -0.575  51.278  1.00  0.00    -0.361 OA
HETATM   28  C22 UNL     1      18.379  -0.352  51.932  1.00  0.00     0.440 C 
ENDBRANCH  23  24
ENDBRANCH  22  23
ENDBRANCH  21  22
ENDBRANCH  10  21
BRANCH   1  29
HETATM   29  O1  UNL     1      22.219   0.249  53.838  1.00  0.00    -0.351 OA
BRANCH  29  30
HETATM   30  C2  UNL     1      22.246  -0.899  54.629  1.00  0.00     0.171 C 
HETATM   31  C1  UNL     1      21.005  -1.721  54.284  1.00  0.00     0.034 C 
ENDBRANCH  29  30
ENDBRANCH   1  29
TORSDOF 8
ENDMDL
MODEL 8
REMARK VINA RESULT:      -7.5      5.868      8.890
REMARK  8 active torsions:
REMARK  status: ('A' for Active; 'I' for Inactive)
REMARK    1  A    between atoms: C2_2  and  O1_3 
REMARK    2  A    between atoms: O1_3  and  C3_4 
REMARK    3  A    between atoms: C7_10  and  N3_11 
REMARK    4  A    between atoms: N3_11  and  C8_12 
REMARK    5  A    between atoms: C16_22  and  C17_23 
REMARK    6  A    between atoms: C17_23  and  C18_24 
REMARK    7  A    between atoms: C18_24  and  C19_25 
REMARK    8  A    between atoms: C19_25  and  N4_26 
ROOT
HETATM    1  C3  UNL     1      25.305   5.912  48.923  1.00  0.00     0.077 A 
HETATM    2  C4  UNL     1      25.822   7.010  48.244  1.00  0.00     0.070 A 
HETATM    3  C5  UNL     1      27.154   7.050  47.896  1.00  0.00     0.074 A 
HETATM    4  N1  UNL     1      27.559   8.145  47.244  1.00  0.00    -0.241 NA
HETATM    5  C6  UNL     1      28.835   8.290  46.857  1.00  0.00     0.236 A 
HETATM    6  N2  UNL     1      29.666   7.289  47.155  1.00  0.00    -0.224 NA
HETATM    7  C7  UNL     1      29.356   6.162  47.800  1.00  0.00     0.142 A 
HETATM    8  C14 UNL     1      28.042   6.045  48.183  1.00  0.00     0.039 A 
HETATM    9  C15 UNL     1      27.497   4.986  48.850  1.00  0.00     0.027 A 
HETATM   10  C16 UNL     1      26.191   4.872  49.228  1.00  0.00    -0.024 A 
ENDROOT
BRANCH   7  11
HETATM   11  N3  UNL     1      30.245   5.104  48.112  1.00  0.00    -0.340 N 
HETATM   12  H8  UNL     1      30.006   4.376  48.795  1.00  0.00     0.167 HD
BRANCH  11  13
HETATM   13  C8  UNL     1      31.541   4.820  47.615  1.00  0.00     0.035 A 
HETATM   14  C9  UNL     1      31.864   3.894  46.640  1.00  0.00     0.032 A 
HETATM   15  C10 UNL     1      33.144   3.670  46.199  1.00  0.00     0.046 A 
HETATM   16  C11 UNL     1      34.209   4.372  46.716  1.00  0.00     0.138 A 
HETATM   17  F1  UNL     1      35.409   4.046  46.188  1.00  0.00    -0.204 F 
HETATM   18  C12 UNL     1      33.936   5.307  47.691  1.00  0.00     0.074 A 
HETATM   19 CL1  UNL     1      35.325   6.170  48.313  1.00  0.00    -0.081 Cl
HETATM   20  C13 UNL     1      32.635   5.500  48.104  1.00  0.00     0.056 A 
ENDBRANCH  11  13
ENDBRANCH   7  11
BRANCH  10  21
HETATM   21  C17 UNL     1      25.595   3.746  49.942  1.00  0.00     0.043 C 
BRANCH  21  22
HETATM   22  C18 UNL     1      26.515   2.642  50.324  1.00  0.00     0.035 C 
BRANCH  22  23
HETATM   23  C19 UNL     1      26.316   2.411  51.826  1.00  0.00     0.275 C 
BRANCH  23  24
HETATM   24  N4  UNL     1      27.372   1.585  52.358  1.00  0.00     0.113 N 
HETATM   25  C20 UNL     1      26.945   0.325  52.882  1.00  0.00     0.301 C 
HETATM   26  C21 UNL     1      26.994   0.575  54.376  1.00  0.00     0.200 C 
HETATM   27  O2  UNL     1      28.068   1.426  54.515  1.00  0.00    -0.361 OA
HETATM   28  C22 UNL     1      28.054   2.283  53.416  1.00  0.00     0.440 C 
ENDBRANCH  23  24
ENDBRANCH  22  23
ENDBRANCH  21  22
ENDBRANCH  10  21
BRANCH   1  29
HETATM   29  O1  UNL     1      23.977   5.881  49.265  1.00  0.00    -0.351 OA
BRANCH  29  30
HETATM   30  C2  UNL     1      22.882   6.020  48.413  1.00  0.00     0.171 C 
HETATM   31  C1  UNL     1      22.644   4.665  47.749  1.00  0.00     0.034 C 
ENDBRANCH  29  30
ENDBRANCH   1  29
TORSDOF 8
ENDMDL
MODEL 9
REMARK VINA RESULT:      -7.4      4.184      7.110
REMARK  8 active torsions:
REMARK  status: ('A' for Active; 'I' for Inactive)
REMARK    1  A    between atoms: C2_2  and  O1_3 
REMARK    2  A    between atoms: O1_3  and  C3_4 
REMARK    3  A    between atoms: C7_10  and  N3_11 
REMARK    4  A    between atoms: N3_11  and  C8_12 
REMARK    5  A    between atoms: C16_22  and  C17_23 
REMARK    6  A    between atoms: C17_23  and  C18_24 
REMARK    7  A    between atoms: C18_24  and  C19_25 
REMARK    8  A    between atoms: C19_25  and  N4_26 
ROOT
HETATM    1  C3  UNL     1      25.997   0.724  52.714  1.00  0.00     0.077 A 
HETATM    2  C4  UNL     1      25.476  -0.178  53.635  1.00  0.00     0.070 A 
HETATM    3  C5  UNL     1      24.122  -0.220  53.879  1.00  0.00     0.074 A 
HETATM    4  N1  UNL     1      23.714  -1.120  54.780  1.00  0.00    -0.241 NA
HETATM    5  C6  UNL     1      22.416  -1.248  55.095  1.00  0.00     0.236 A 
HETATM    6  N2  UNL     1      21.566  -0.435  54.465  1.00  0.00    -0.224 NA
HETATM    7  C7  UNL     1      21.877   0.492  53.555  1.00  0.00     0.142 A 
HETATM    8  C14 UNL     1      23.214   0.597  53.255  1.00  0.00     0.039 A 
HETATM    9  C15 UNL     1      23.764   1.468  52.359  1.00  0.00     0.027 A 
HETATM   10  C16 UNL     1      25.091   1.570  52.062  1.00  0.00    -0.024 A 
ENDROOT
BRANCH   7  11
HETATM   11  N3  UNL     1      20.969   1.351  52.890  1.00  0.00    -0.340 N 
HETATM   12  H8  UNL     1      20.996   2.370  53.009  1.00  0.00     0.167 HD
BRANCH  11  13
HETATM   13  C8  UNL     1      19.912   1.049  51.994  1.00  0.00     0.035 A 
HETATM   14  C9  UNL     1      19.015   0.002  52.101  1.00  0.00     0.032 A 
HETATM   15  C10 UNL     1      18.009  -0.233  51.198  1.00  0.00     0.046 A 
HETATM   16  C11 UNL     1      17.830   0.582  50.104  1.00  0.00     0.138 A 
HETATM   17  F1  UNL     1      16.802   0.231  49.301  1.00  0.00    -0.204 F 
HETATM   18  C12 UNL     1      18.701   1.641  49.954  1.00  0.00     0.074 A 
HETATM   19 CL1  UNL     1      18.428   2.643  48.547  1.00  0.00    -0.081 Cl
HETATM   20  C13 UNL     1      19.697   1.839  50.886  1.00  0.00     0.056 A 
ENDBRANCH  11  13
ENDBRANCH   7  11
BRANCH  10  21
HETATM   21  C17 UNL     1      25.693   2.497  51.107  1.00  0.00     0.043 C 
BRANCH  21  22
HETATM   22  C18 UNL     1      24.757   3.223  50.208  1.00  0.00     0.035 C 
BRANCH  22  23
HETATM   23  C19 UNL     1      25.191   4.692  50.224  1.00  0.00     0.275 C 
BRANCH  23  24
HETATM   24  N4  UNL     1      25.587   5.121  48.905  1.00  0.00     0.113 N 
HETATM   25  C20 UNL     1      26.995   5.286  48.722  1.00  0.00     0.301 C 
HETATM   26  C21 UNL     1      27.142   6.794  48.770  1.00  0.00     0.200 C 
HETATM   27  O2  UNL     1      25.979   7.240  48.183  1.00  0.00    -0.361 OA
HETATM   28  C22 UNL     1      24.961   6.378  48.590  1.00  0.00     0.440 C 
ENDBRANCH  23  24
ENDBRANCH  22  23
ENDBRANCH  21  22
ENDBRANCH  10  21
BRANCH   1  29
HETATM   29  O1  UNL     1      27.348   0.759  52.476  1.00  0.00    -0.351 OA
BRANCH  29  30
HETATM   30  C2  UNL     1      28.366   0.924  53.415  1.00  0.00     0.171 C 
HETATM   31  C1  UNL     1      28.636   2.423  53.537  1.00  0.00     0.034 C 
ENDBRANCH  29  30
ENDBRANCH   1  29
TORSDOF 8
ENDMDL
