MODEL 1
REMARK VINA RESULT:      -9.5      0.000      0.000
REMARK  6 active torsions:
REMARK  status: ('A' for Active; 'I' for Inactive)
REMARK    1  A    between atoms: O1_2  and  C2_3 
REMARK    2  A    between atoms: C4_5  and  O2_6 
REMARK    3  A    between atoms: O2_6  and  C5_7 
REMARK    4  A    between atoms: N1_10  and  C8_11 
REMARK    5  A    between atoms: C13_17  and  N2_18 
REMARK    6  A    between atoms: N2_18  and  C14_19 
ROOT
HETATM    1  C2  UNL     1      19.845  -0.448  52.777  1.00  0.00     0.073 A 
HETATM    2  C3  UNL     1      20.778   0.269  52.047  1.00  0.00     0.074 A 
HETATM    3  C4  UNL     1      22.128   0.395  52.309  1.00  0.00     0.088 A 
HETATM    4  C12 UNL     1      22.564  -0.275  53.425  1.00  0.00     0.072 A 
HETATM    5  C13 UNL     1      23.886  -0.227  53.790  1.00  0.00     0.144 A 
HETATM    6  N3  UNL     1      24.273  -0.895  54.886  1.00  0.00    -0.223 NA
HETATM    7  C20 UNL     1      23.449  -1.616  55.657  1.00  0.00     0.236 A 
HETATM    8  N4  UNL     1      22.152  -1.662  55.299  1.00  0.00    -0.241 NA
HETATM    9  C21 UNL     1      21.695  -1.011  54.204  1.00  0.00     0.077 A 
HETATM   10  C22 UNL     1      20.353  -1.106  53.899  1.00  0.00     0.069 A 
ENDROOT
BRANCH   3  11
HETATM   11  O2  UNL     1      22.973   1.128  51.523  1.00  0.00    -0.345 OA
BRANCH  11  12
HETATM   12  C5  UNL     1      22.881   2.445  51.108  1.00  0.00     0.132 C 
HETATM   13  C6  UNL     1      22.717   3.340  52.339  1.00  0.00     0.052 C 
HETATM   14  C7  UNL     1      23.546   4.593  52.232  1.00  0.00     0.126 C 
HETATM   15  N1  UNL     1      23.532   5.180  50.917  1.00  0.00    -0.375 N 
HETATM   16  C10 UNL     1      23.810   4.286  49.814  1.00  0.00     0.126 C 
HETATM   17  C11 UNL     1      24.134   2.929  50.400  1.00  0.00     0.052 C 
BRANCH  15  18
HETATM   18  C8  UNL     1      23.254   6.580  50.702  1.00  0.00     0.071 C 
HETATM   19  C9  UNL     1      24.285   7.653  50.699  1.00  0.00     0.081 C 
HETATM   20  S1  UNL     1      21.700   7.008  50.448  1.00  0.00    -0.066 SA
ENDBRANCH  15  18
ENDBRANCH  11  12
ENDBRANCH   3  11
BRANCH   1  21
HETATM   21  O1  UNL     1      18.515  -0.485  52.392  1.00  0.00    -0.356 OA
HETATM   22  C1  UNL     1      17.650  -1.386  53.051  1.00  0.00     0.210 C 
ENDBRANCH   1  21
BRANCH   5  23
HETATM   23  N2  UNL     1      24.887   0.469  53.068  1.00  0.00    -0.340 N 
HETATM   24  H17 UNL     1      24.975   1.238  52.382  1.00  0.00     0.167 HD
BRANCH  23  25
HETATM   25  C14 UNL     1      26.279   0.148  53.203  1.00  0.00     0.035 A 
HETATM   26  C15 UNL     1      26.931  -1.035  52.865  1.00  0.00     0.032 A 
HETATM   27  C16 UNL     1      28.282  -1.225  53.021  1.00  0.00     0.046 A 
HETATM   28  C17 UNL     1      29.070  -0.221  53.534  1.00  0.00     0.138 A 
HETATM   29  F1  UNL     1      30.379  -0.505  53.649  1.00  0.00    -0.204 F 
HETATM   30  C18 UNL     1      28.451   0.964  53.878  1.00  0.00     0.074 A 
HETATM   31 CL1  UNL     1      29.582   2.162  54.523  1.00  0.00    -0.081 Cl
HETATM   32  C19 UNL     1      27.104   1.142  53.718  1.00  0.00     0.056 A 
ENDBRANCH  23  25
ENDBRANCH   5  23
TORSDOF 6
ENDMDL
MODEL 2
REMARK VINA RESULT:      -8.8      4.112      6.376
REMARK  6 active torsions:
REMARK  status: ('A' for Active; 'I' for Inactive)
REMARK    1  A    between atoms: O1_2  and  C2_3 
REMARK    2  A    between atoms: C4_5  and  O2_6 
REMARK    3  A    between atoms: O2_6  and  C5_7 
REMARK    4  A    between atoms: N1_10  and  C8_11 
REMARK    5  A    between atoms: C13_17  and  N2_18 
REMARK    6  A    between atoms: N2_18  and  C14_19 
ROOT
HETATM    1  C2  UNL     1      26.021  -0.199  54.736  1.00  0.00     0.073 A 
HETATM    2  C3  UNL     1      25.754   0.425  53.529  1.00  0.00     0.074 A 
HETATM    3  C4  UNL     1      24.552   0.454  52.851  1.00  0.00     0.088 A 
HETATM    4  C12 UNL     1      23.526  -0.220  53.466  1.00  0.00     0.072 A 
HETATM    5  C13 UNL     1      22.281  -0.263  52.889  1.00  0.00     0.144 A 
HETATM    6  N3  UNL     1      21.305  -0.931  53.520  1.00  0.00    -0.223 NA
HETATM    7  C20 UNL     1      21.462  -1.565  54.689  1.00  0.00     0.236 A 
HETATM    8  N4  UNL     1      22.684  -1.523  55.253  1.00  0.00    -0.241 NA
HETATM    9  C21 UNL     1      23.713  -0.867  54.670  1.00  0.00     0.077 A 
HETATM   10  C22 UNL     1      24.935  -0.866  55.309  1.00  0.00     0.069 A 
ENDROOT
BRANCH   3  11
HETATM   11  O2  UNL     1      24.387   1.102  51.658  1.00  0.00    -0.345 OA
BRANCH  11  12
HETATM   12  C5  UNL     1      24.746   2.385  51.288  1.00  0.00     0.132 C 
HETATM   13  C6  UNL     1      26.204   2.374  50.821  1.00  0.00     0.052 C 
HETATM   14  C7  UNL     1      26.403   3.224  49.593  1.00  0.00     0.126 C 
HETATM   15  N1  UNL     1      25.677   4.467  49.633  1.00  0.00    -0.375 N 
HETATM   16  C10 UNL     1      24.273   4.378  49.971  1.00  0.00     0.126 C 
HETATM   17  C11 UNL     1      23.934   2.911  50.117  1.00  0.00     0.052 C 
BRANCH  15  18
HETATM   18  C8  UNL     1      26.307   5.736  49.353  1.00  0.00     0.071 C 
HETATM   19  C9  UNL     1      27.515   5.907  48.500  1.00  0.00     0.081 C 
HETATM   20  S1  UNL     1      25.644   7.068  50.022  1.00  0.00    -0.066 SA
ENDBRANCH  15  18
ENDBRANCH  11  12
ENDBRANCH   3  11
BRANCH   1  21
HETATM   21  O1  UNL     1      27.284  -0.144  55.303  1.00  0.00    -0.356 OA
HETATM   22  C1  UNL     1      28.367   0.255  54.490  1.00  0.00     0.210 C 
ENDBRANCH   1  21
BRANCH   5  23
HETATM   23  N2  UNL     1      21.946   0.377  51.669  1.00  0.00    -0.340 N 
HETATM   24  H17 UNL     1      22.228   0.378  50.675  1.00  0.00     0.167 HD
BRANCH  23  25
HETATM   25  C14 UNL     1      20.907   1.364  51.593  1.00  0.00     0.035 A 
HETATM   26  C15 UNL     1      20.886   2.642  52.144  1.00  0.00     0.032 A 
HETATM   27  C16 UNL     1      19.837   3.515  51.989  1.00  0.00     0.046 A 
HETATM   28  C17 UNL     1      18.731   3.149  51.259  1.00  0.00     0.138 A 
HETATM   29  F1  UNL     1      17.758   4.072  51.167  1.00  0.00    -0.204 F 
HETATM   30  C18 UNL     1      18.723   1.886  50.701  1.00  0.00     0.074 A 
HETATM   31 CL1  UNL     1      17.242   1.551  49.793  1.00  0.00    -0.081 Cl
HETATM   32  C19 UNL     1      19.773   1.025  50.862  1.00  0.00     0.056 A 
ENDBRANCH  23  25
ENDBRANCH   5  23
TORSDOF 6
ENDMDL
MODEL 3
REMARK VINA RESULT:      -8.8      2.754      6.243
REMARK  6 active torsions:
REMARK  status: ('A' for Active; 'I' for Inactive)
REMARK    1  A    between atoms: O1_2  and  C2_3 
REMARK    2  A    between atoms: C4_5  and  O2_6 
REMARK    3  A    between atoms: O2_6  and  C5_7 
REMARK    4  A    between atoms: N1_10  and  C8_11 
REMARK    5  A    between atoms: C13_17  and  N2_18 
REMARK    6  A    between atoms: N2_18  and  C14_19 
ROOT
HETATM    1  C2  UNL     1      23.182   6.423  50.742  1.00  0.00     0.073 A 
HETATM    2  C3  UNL     1      22.937   5.236  51.412  1.00  0.00     0.074 A 
HETATM    3  C4  UNL     1      23.715   4.096  51.404  1.00  0.00     0.088 A 
HETATM    4  C12 UNL     1      24.850   4.177  50.636  1.00  0.00     0.072 A 
HETATM    5  C13 UNL     1      25.705   3.106  50.548  1.00  0.00     0.144 A 
HETATM    6  N3  UNL     1      26.804   3.225  49.789  1.00  0.00    -0.223 NA
HETATM    7  C20 UNL     1      27.128   4.328  49.103  1.00  0.00     0.236 A 
HETATM    8  N4  UNL     1      26.289   5.377  49.190  1.00  0.00    -0.241 NA
HETATM    9  C21 UNL     1      25.163   5.325  49.939  1.00  0.00     0.077 A 
HETATM   10  C22 UNL     1      24.353   6.440  49.980  1.00  0.00     0.069 A 
ENDROOT
BRANCH   3  11
HETATM   11  O2  UNL     1      23.388   2.967  52.104  1.00  0.00    -0.345 OA
BRANCH  11  12
HETATM   12  C5  UNL     1      22.160   2.354  52.276  1.00  0.00     0.132 C 
HETATM   13  C6  UNL     1      21.678   1.826  50.923  1.00  0.00     0.052 C 
HETATM   14  C7  UNL     1      21.062   0.456  51.045  1.00  0.00     0.126 C 
HETATM   15  N1  UNL     1      20.225   0.307  52.208  1.00  0.00    -0.375 N 
HETATM   16  C10 UNL     1      20.799   0.724  53.469  1.00  0.00     0.126 C 
HETATM   17  C11 UNL     1      22.226   1.149  53.199  1.00  0.00     0.052 C 
BRANCH  15  18
HETATM   18  C8  UNL     1      18.886  -0.227  52.129  1.00  0.00     0.071 C 
HETATM   19  C9  UNL     1      18.280  -1.136  53.140  1.00  0.00     0.081 C 
HETATM   20  S1  UNL     1      17.982   0.197  50.839  1.00  0.00    -0.066 SA
ENDBRANCH  15  18
ENDBRANCH  11  12
ENDBRANCH   3  11
BRANCH   1  21
HETATM   21  O1  UNL     1      22.307   7.492  50.844  1.00  0.00    -0.356 OA
HETATM   22  C1  UNL     1      22.089   8.293  49.702  1.00  0.00     0.210 C 
ENDBRANCH   1  21
BRANCH   5  23
HETATM   23  N2  UNL     1      25.517   1.878  51.231  1.00  0.00    -0.340 N 
HETATM   24  H17 UNL     1      24.796   1.150  51.361  1.00  0.00     0.167 HD
BRANCH  23  25
HETATM   25  C14 UNL     1      26.547   1.302  52.048  1.00  0.00     0.035 A 
HETATM   26  C15 UNL     1      27.449   1.949  52.888  1.00  0.00     0.032 A 
HETATM   27  C16 UNL     1      28.386   1.288  53.643  1.00  0.00     0.046 A 
HETATM   28  C17 UNL     1      28.473  -0.083  53.599  1.00  0.00     0.138 A 
HETATM   29  F1  UNL     1      29.423  -0.636  54.374  1.00  0.00    -0.204 F 
HETATM   30  C18 UNL     1      27.591  -0.752  52.775  1.00  0.00     0.074 A 
HETATM   31 CL1  UNL     1      27.815  -2.507  52.817  1.00  0.00    -0.081 Cl
HETATM   32  C19 UNL     1      26.661  -0.084  52.026  1.00  0.00     0.056 A 
ENDBRANCH  23  25
ENDBRANCH   5  23
TORSDOF 6
ENDMDL
MODEL 4
REMARK VINA RESULT:      -8.4      3.682      5.587
REMARK  6 active torsions:
REMARK  status: ('A' for Active; 'I' for Inactive)
REMARK    1  A    between atoms: O1_2  and  C2_3 
REMARK    2  A    between atoms: C4_5  and  O2_6 
REMARK    3  A    between atoms: O2_6  and  C5_7 
REMARK    4  A    between atoms: N1_10  and  C8_11 
REMARK    5  A    between atoms: C13_17  and  N2_18 
REMARK    6  A    between atoms: N2_18  and  C14_19 
ROOT
HETATM    1  C2  UNL     1      24.382  -0.392  54.430  1.00  0.00     0.073 A 
HETATM    2  C3  UNL     1      23.822   0.035  53.238  1.00  0.00     0.074 A 
HETATM    3  C4  UNL     1      24.397   0.859  52.291  1.00  0.00     0.088 A 
HETATM    4  C12 UNL     1      25.666   1.287  52.593  1.00  0.00     0.072 A 
HETATM    5  C13 UNL     1      26.344   2.110  51.729  1.00  0.00     0.144 A 
HETATM    6  N3  UNL     1      27.581   2.507  52.059  1.00  0.00    -0.223 NA
HETATM    7  C20 UNL     1      28.209   2.149  53.186  1.00  0.00     0.236 A 
HETATM    8  N4  UNL     1      27.543   1.341  54.033  1.00  0.00    -0.241 NA
HETATM    9  C21 UNL     1      26.292   0.905  53.761  1.00  0.00     0.077 A 
HETATM   10  C22 UNL     1      25.674   0.079  54.677  1.00  0.00     0.069 A 
ENDROOT
BRANCH   3  11
HETATM   11  O2  UNL     1      23.760   1.225  51.138  1.00  0.00    -0.345 OA
BRANCH  11  12
HETATM   12  C5  UNL     1      22.412   1.416  50.891  1.00  0.00     0.132 C 
HETATM   13  C6  UNL     1      21.986   2.759  51.487  1.00  0.00     0.052 C 
HETATM   14  C7  UNL     1      21.061   3.511  50.566  1.00  0.00     0.126 C 
HETATM   15  N1  UNL     1      20.080   2.671  49.928  1.00  0.00    -0.375 N 
HETATM   16  C10 UNL     1      20.581   1.475  49.286  1.00  0.00     0.126 C 
HETATM   17  C11 UNL     1      22.089   1.493  49.408  1.00  0.00     0.052 C 
BRANCH  15  18
HETATM   18  C8  UNL     1      18.674   2.996  49.926  1.00  0.00     0.071 C 
HETATM   19  C9  UNL     1      17.758   2.773  48.774  1.00  0.00     0.081 C 
HETATM   20  S1  UNL     1      18.052   3.655  51.283  1.00  0.00    -0.066 SA
ENDBRANCH  15  18
ENDBRANCH  11  12
ENDBRANCH   3  11
BRANCH   1  21
HETATM   21  O1  UNL     1      23.683  -1.224  55.288  1.00  0.00    -0.356 OA
HETATM   22  C1  UNL     1      22.333  -1.513  54.992  1.00  0.00     0.210 C 
ENDBRANCH   1  21
BRANCH   5  23
HETATM   23  N2  UNL     1      25.828   2.558  50.486  1.00  0.00    -0.340 N 
HETATM   24  H17 UNL     1      25.287   2.201  49.681  1.00  0.00     0.167 HD
BRANCH  23  25
HETATM   25  C14 UNL     1      26.015   3.907  50.032  1.00  0.00     0.035 A 
HETATM   26  C15 UNL     1      26.928   4.387  49.098  1.00  0.00     0.032 A 
HETATM   27  C16 UNL     1      27.004   5.706  48.723  1.00  0.00     0.046 A 
HETATM   28  C17 UNL     1      26.152   6.634  49.274  1.00  0.00     0.138 A 
HETATM   29  F1  UNL     1      26.307   7.899  48.843  1.00  0.00    -0.204 F 
HETATM   30  C18 UNL     1      25.235   6.187  50.203  1.00  0.00     0.074 A 
HETATM   31 CL1  UNL     1      24.208   7.486  50.827  1.00  0.00    -0.081 Cl
HETATM   32  C19 UNL     1      25.169   4.871  50.570  1.00  0.00     0.056 A 
ENDBRANCH  23  25
ENDBRANCH   5  23
TORSDOF 6
ENDMDL
MODEL 5
REMARK VINA RESULT:      -8.4      4.059      6.447
REMARK  6 active torsions:
REMARK  status: ('A' for Active; 'I' for Inactive)
REMARK    1  A    between atoms: O1_2  and  C2_3 
REMARK    2  A    between atoms: C4_5  and  O2_6 
REMARK    3  A    between atoms: O2_6  and  C5_7 
REMARK    4  A    between atoms: N1_10  and  C8_11 
REMARK    5  A    between atoms: C13_17  and  N2_18 
REMARK    6  A    between atoms: N2_18  and  C14_19 
ROOT
HETATM    1  C2  UNL     1      25.827  -0.188  54.568  1.00  0.00     0.073 A 
HETATM    2  C3  UNL     1      25.516   0.477  53.395  1.00  0.00     0.074 A 
HETATM    3  C4  UNL     1      24.293   0.517  52.755  1.00  0.00     0.088 A 
HETATM    4  C12 UNL     1      23.295  -0.195  53.374  1.00  0.00     0.072 A 
HETATM    5  C13 UNL     1      22.033  -0.232  52.834  1.00  0.00     0.144 A 
HETATM    6  N3  UNL     1      21.086  -0.937  53.468  1.00  0.00    -0.223 NA
HETATM    7  C20 UNL     1      21.287  -1.614  54.606  1.00  0.00     0.236 A 
HETATM    8  N4  UNL     1      22.525  -1.577  55.134  1.00  0.00    -0.241 NA
HETATM    9  C21 UNL     1      23.527  -0.884  54.546  1.00  0.00     0.077 A 
HETATM   10  C22 UNL     1      24.768  -0.892  55.147  1.00  0.00     0.069 A 
ENDROOT
BRANCH   3  11
HETATM   11  O2  UNL     1      24.083   1.208  51.594  1.00  0.00    -0.345 OA
BRANCH  11  12
HETATM   12  C5  UNL     1      24.137   2.568  51.349  1.00  0.00     0.132 C 
HETATM   13  C6  UNL     1      23.516   2.848  49.978  1.00  0.00     0.052 C 
HETATM   14  C7  UNL     1      22.643   4.075  50.000  1.00  0.00     0.126 C 
HETATM   15  N1  UNL     1      23.201   5.161  50.765  1.00  0.00    -0.375 N 
HETATM   16  C10 UNL     1      23.662   4.836  52.098  1.00  0.00     0.126 C 
HETATM   17  C11 UNL     1      23.332   3.381  52.349  1.00  0.00     0.052 C 
BRANCH  15  18
HETATM   18  C8  UNL     1      23.301   6.501  50.238  1.00  0.00     0.071 C 
HETATM   19  C9  UNL     1      24.121   7.586  50.844  1.00  0.00     0.081 C 
HETATM   20  S1  UNL     1      22.453   6.843  48.887  1.00  0.00    -0.066 SA
ENDBRANCH  15  18
ENDBRANCH  11  12
ENDBRANCH   3  11
BRANCH   1  21
HETATM   21  O1  UNL     1      27.106  -0.138  55.098  1.00  0.00    -0.356 OA
HETATM   22  C1  UNL     1      28.197  -0.029  54.209  1.00  0.00     0.210 C 
ENDBRANCH   1  21
BRANCH   5  23
HETATM   23  N2  UNL     1      21.653   0.449  51.651  1.00  0.00    -0.340 N 
HETATM   24  H17 UNL     1      22.040   0.703  50.726  1.00  0.00     0.167 HD
BRANCH  23  25
HETATM   25  C14 UNL     1      20.353   1.040  51.503  1.00  0.00     0.035 A 
HETATM   26  C15 UNL     1      19.911   2.283  51.946  1.00  0.00     0.032 A 
HETATM   27  C16 UNL     1      18.641   2.756  51.729  1.00  0.00     0.046 A 
HETATM   28  C17 UNL     1      17.725   1.995  51.041  1.00  0.00     0.138 A 
HETATM   29  F1  UNL     1      16.508   2.545  50.881  1.00  0.00    -0.204 F 
HETATM   30  C18 UNL     1      18.134   0.757  50.588  1.00  0.00     0.074 A 
HETATM   31 CL1  UNL     1      16.858  -0.110  49.723  1.00  0.00    -0.081 Cl
HETATM   32  C19 UNL     1      19.402   0.296  50.811  1.00  0.00     0.056 A 
ENDBRANCH  23  25
ENDBRANCH   5  23
TORSDOF 6
ENDMDL
MODEL 6
REMARK VINA RESULT:      -8.4      3.650      5.473
REMARK  6 active torsions:
REMARK  status: ('A' for Active; 'I' for Inactive)
REMARK    1  A    between atoms: O1_2  and  C2_3 
REMARK    2  A    between atoms: C4_5  and  O2_6 
REMARK    3  A    between atoms: O2_6  and  C5_7 
REMARK    4  A    between atoms: N1_10  and  C8_11 
REMARK    5  A    between atoms: C13_17  and  N2_18 
REMARK    6  A    between atoms: N2_18  and  C14_19 
ROOT
HETATM    1  C2  UNL     1      24.533  -0.458  54.539  1.00  0.00     0.073 A 
HETATM    2  C3  UNL     1      23.987  -0.056  53.332  1.00  0.00     0.074 A 
HETATM    3  C4  UNL     1      24.567   0.762  52.383  1.00  0.00     0.088 A 
HETATM    4  C12 UNL     1      25.825   1.212  52.701  1.00  0.00     0.072 A 
HETATM    5  C13 UNL     1      26.506   2.033  51.836  1.00  0.00     0.144 A 
HETATM    6  N3  UNL     1      27.731   2.451  52.181  1.00  0.00    -0.223 NA
HETATM    7  C20 UNL     1      28.345   2.118  53.325  1.00  0.00     0.236 A 
HETATM    8  N4  UNL     1      27.676   1.314  54.172  1.00  0.00    -0.241 NA
HETATM    9  C21 UNL     1      26.435   0.856  53.885  1.00  0.00     0.077 A 
HETATM   10  C22 UNL     1      25.814   0.034  54.801  1.00  0.00     0.069 A 
ENDROOT
BRANCH   3  11
HETATM   11  O2  UNL     1      23.945   1.102  51.214  1.00  0.00    -0.345 OA
BRANCH  11  12
HETATM   12  C5  UNL     1      22.630   1.461  50.981  1.00  0.00     0.132 C 
HETATM   13  C6  UNL     1      22.288   2.675  51.848  1.00  0.00     0.052 C 
HETATM   14  C7  UNL     1      21.469   3.689  51.093  1.00  0.00     0.126 C 
HETATM   15  N1  UNL     1      20.453   3.099  50.260  1.00  0.00    -0.375 N 
HETATM   16  C10 UNL     1      20.883   2.032  49.382  1.00  0.00     0.126 C 
HETATM   17  C11 UNL     1      22.381   1.888  49.544  1.00  0.00     0.052 C 
BRANCH  15  18
HETATM   18  C8  UNL     1      19.079   3.540  50.293  1.00  0.00     0.071 C 
HETATM   19  C9  UNL     1      18.187   3.432  51.481  1.00  0.00     0.081 C 
HETATM   20  S1  UNL     1      18.467   4.201  48.933  1.00  0.00    -0.066 SA
ENDBRANCH  15  18
ENDBRANCH  11  12
ENDBRANCH   3  11
BRANCH   1  21
HETATM   21  O1  UNL     1      23.830  -1.287  55.398  1.00  0.00    -0.356 OA
HETATM   22  C1  UNL     1      22.460  -1.513  55.142  1.00  0.00     0.210 C 
ENDBRANCH   1  21
BRANCH   5  23
HETATM   23  N2  UNL     1      26.006   2.455  50.579  1.00  0.00    -0.340 N 
HETATM   24  H17 UNL     1      25.622   2.054  49.707  1.00  0.00     0.167 HD
BRANCH  23  25
HETATM   25  C14 UNL     1      25.928   3.843  50.224  1.00  0.00     0.035 A 
HETATM   26  C15 UNL     1      25.012   4.798  50.658  1.00  0.00     0.032 A 
HETATM   27  C16 UNL     1      25.046   6.112  50.264  1.00  0.00     0.046 A 
HETATM   28  C17 UNL     1      26.018   6.553  49.397  1.00  0.00     0.138 A 
HETATM   29  F1  UNL     1      25.965   7.856  49.071  1.00  0.00    -0.204 F 
HETATM   30  C18 UNL     1      26.941   5.629  48.950  1.00  0.00     0.074 A 
HETATM   31 CL1  UNL     1      28.129   6.333  47.844  1.00  0.00    -0.081 Cl
HETATM   32  C19 UNL     1      26.898   4.322  49.349  1.00  0.00     0.056 A 
ENDBRANCH  23  25
ENDBRANCH   5  23
TORSDOF 6
ENDMDL
MODEL 7
REMARK VINA RESULT:      -8.0      4.004      5.763
REMARK  6 active torsions:
REMARK  status: ('A' for Active; 'I' for Inactive)
REMARK    1  A    between atoms: O1_2  and  C2_3 
REMARK    2  A    between atoms: C4_5  and  O2_6 
REMARK    3  A    between atoms: O2_6  and  C5_7 
REMARK    4  A    between atoms: N1_10  and  C8_11 
REMARK    5  A    between atoms: C13_17  and  N2_18 
REMARK    6  A    between atoms: N2_18  and  C14_19 
ROOT
HETATM    1  C2  UNL     1      22.910   0.695  52.853  1.00  0.00     0.073 A 
HETATM    2  C3  UNL     1      22.772   1.278  51.606  1.00  0.00     0.074 A 
HETATM    3  C4  UNL     1      23.747   1.926  50.873  1.00  0.00     0.088 A 
HETATM    4  C12 UNL     1      24.980   1.982  51.475  1.00  0.00     0.072 A 
HETATM    5  C13 UNL     1      26.031   2.600  50.845  1.00  0.00     0.144 A 
HETATM    6  N3  UNL     1      27.219   2.633  51.465  1.00  0.00    -0.223 NA
HETATM    7  C20 UNL     1      27.453   2.099  52.671  1.00  0.00     0.236 A 
HETATM    8  N4  UNL     1      26.421   1.493  53.288  1.00  0.00    -0.241 NA
HETATM    9  C21 UNL     1      25.196   1.424  52.718  1.00  0.00     0.077 A 
HETATM   10  C22 UNL     1      24.188   0.786  53.410  1.00  0.00     0.069 A 
ENDROOT
BRANCH   3  11
HETATM   11  O2  UNL     1      23.512   2.472  49.641  1.00  0.00    -0.345 OA
BRANCH  11  12
HETATM   12  C5  UNL     1      22.338   2.955  49.094  1.00  0.00     0.132 C 
HETATM   13  C6  UNL     1      22.675   4.088  48.122  1.00  0.00     0.052 C 
HETATM   14  C7  UNL     1      21.852   4.007  46.862  1.00  0.00     0.126 C 
HETATM   15  N1  UNL     1      20.475   3.658  47.100  1.00  0.00    -0.375 N 
HETATM   16  C10 UNL     1      20.242   2.503  47.938  1.00  0.00     0.126 C 
HETATM   17  C11 UNL     1      21.592   1.911  48.280  1.00  0.00     0.052 C 
BRANCH  15  18
HETATM   18  C8  UNL     1      19.382   4.415  46.537  1.00  0.00     0.071 C 
HETATM   19  C9  UNL     1      19.233   5.892  46.650  1.00  0.00     0.081 C 
HETATM   20  S1  UNL     1      18.234   3.588  45.725  1.00  0.00    -0.066 SA
ENDBRANCH  15  18
ENDBRANCH  11  12
ENDBRANCH   3  11
BRANCH   1  21
HETATM   21  O1  UNL     1      21.837   0.075  53.472  1.00  0.00    -0.356 OA
HETATM   22  C1  UNL     1      20.617   0.780  53.565  1.00  0.00     0.210 C 
ENDBRANCH   1  21
BRANCH   5  23
HETATM   23  N2  UNL     1      25.953   3.191  49.560  1.00  0.00    -0.340 N 
HETATM   24  H17 UNL     1      25.636   2.962  48.603  1.00  0.00     0.167 HD
BRANCH  23  25
HETATM   25  C14 UNL     1      26.408   4.530  49.315  1.00  0.00     0.035 A 
HETATM   26  C15 UNL     1      27.537   4.947  48.615  1.00  0.00     0.032 A 
HETATM   27  C16 UNL     1      27.866   6.266  48.425  1.00  0.00     0.046 A 
HETATM   28  C17 UNL     1      27.065   7.261  48.935  1.00  0.00     0.138 A 
HETATM   29  F1  UNL     1      27.472   8.520  48.697  1.00  0.00    -0.204 F 
HETATM   30  C18 UNL     1      25.938   6.879  49.634  1.00  0.00     0.074 A 
HETATM   31 CL1  UNL     1      25.004   8.258  50.231  1.00  0.00    -0.081 Cl
HETATM   32  C19 UNL     1      25.620   5.561  49.817  1.00  0.00     0.056 A 
ENDBRANCH  23  25
ENDBRANCH   5  23
TORSDOF 6
ENDMDL
MODEL 8
REMARK VINA RESULT:      -7.9      3.565      5.566
REMARK  6 active torsions:
REMARK  status: ('A' for Active; 'I' for Inactive)
REMARK    1  A    between atoms: O1_2  and  C2_3 
REMARK    2  A    between atoms: C4_5  and  O2_6 
REMARK    3  A    between atoms: O2_6  and  C5_7 
REMARK    4  A    between atoms: N1_10  and  C8_11 
REMARK    5  A    between atoms: C13_17  and  N2_18 
REMARK    6  A    between atoms: N2_18  and  C14_19 
ROOT
HETATM    1  C2  UNL     1      23.609  -0.476  54.090  1.00  0.00     0.073 A 
HETATM    2  C3  UNL     1      23.080   0.135  52.966  1.00  0.00     0.074 A 
HETATM    3  C4  UNL     1      23.739   0.954  52.071  1.00  0.00     0.088 A 
HETATM    4  C12 UNL     1      25.065   1.169  52.354  1.00  0.00     0.072 A 
HETATM    5  C13 UNL     1      25.828   1.966  51.537  1.00  0.00     0.144 A 
HETATM    6  N3  UNL     1      27.119   2.152  51.846  1.00  0.00    -0.223 NA
HETATM    7  C20 UNL     1      27.723   1.605  52.909  1.00  0.00     0.236 A 
HETATM    8  N4  UNL     1      26.974   0.824  53.710  1.00  0.00    -0.241 NA
HETATM    9  C21 UNL     1      25.665   0.595  53.456  1.00  0.00     0.077 A 
HETATM   10  C22 UNL     1      24.963  -0.217  54.321  1.00  0.00     0.069 A 
ENDROOT
BRANCH   3  11
HETATM   11  O2  UNL     1      23.126   1.513  50.984  1.00  0.00    -0.345 OA
BRANCH  11  12
HETATM   12  C5  UNL     1      21.793   1.820  50.777  1.00  0.00     0.132 C 
HETATM   13  C6  UNL     1      21.704   3.137  50.002  1.00  0.00     0.052 C 
HETATM   14  C7  UNL     1      20.645   3.085  48.931  1.00  0.00     0.126 C 
HETATM   15  N1  UNL     1      19.438   2.421  49.352  1.00  0.00    -0.375 N 
HETATM   16  C10 UNL     1      19.601   1.125  49.973  1.00  0.00     0.126 C 
HETATM   17  C11 UNL     1      21.075   0.784  49.928  1.00  0.00     0.052 C 
BRANCH  15  18
HETATM   18  C8  UNL     1      18.133   3.011  49.168  1.00  0.00     0.071 C 
HETATM   19  C9  UNL     1      17.130   2.544  48.172  1.00  0.00     0.081 C 
HETATM   20  S1  UNL     1      17.738   4.275  50.120  1.00  0.00    -0.066 SA
ENDBRANCH  15  18
ENDBRANCH  11  12
ENDBRANCH   3  11
BRANCH   1  21
HETATM   21  O1  UNL     1      22.823  -1.278  54.902  1.00  0.00    -0.356 OA
HETATM   22  C1  UNL     1      21.481  -1.501  54.527  1.00  0.00     0.210 C 
ENDBRANCH   1  21
BRANCH   5  23
HETATM   23  N2  UNL     1      25.345   2.596  50.363  1.00  0.00    -0.340 N 
HETATM   24  H17 UNL     1      24.878   2.356  49.473  1.00  0.00     0.167 HD
BRANCH  23  25
HETATM   25  C14 UNL     1      25.445   4.015  50.170  1.00  0.00     0.035 A 
HETATM   26  C15 UNL     1      24.660   5.022  50.727  1.00  0.00     0.032 A 
HETATM   27  C16 UNL     1      24.861   6.358  50.485  1.00  0.00     0.046 A 
HETATM   28  C17 UNL     1      25.880   6.768  49.657  1.00  0.00     0.138 A 
HETATM   29  F1  UNL     1      25.994   8.097  49.484  1.00  0.00    -0.204 F 
HETATM   30  C18 UNL     1      26.675   5.793  49.091  1.00  0.00     0.074 A 
HETATM   31 CL1  UNL     1      27.941   6.462  48.053  1.00  0.00    -0.081 Cl
HETATM   32  C19 UNL     1      26.466   4.464  49.339  1.00  0.00     0.056 A 
ENDBRANCH  23  25
ENDBRANCH   5  23
TORSDOF 6
ENDMDL
MODEL 9
REMARK VINA RESULT:      -7.5      4.408      6.630
REMARK  6 active torsions:
REMARK  status: ('A' for Active; 'I' for Inactive)
REMARK    1  A    between atoms: O1_2  and  C2_3 
REMARK    2  A    between atoms: C4_5  and  O2_6 
REMARK    3  A    between atoms: O2_6  and  C5_7 
REMARK    4  A    between atoms: N1_10  and  C8_11 
REMARK    5  A    between atoms: C13_17  and  N2_18 
REMARK    6  A    between atoms: N2_18  and  C14_19 
ROOT
HETATM    1  C2  UNL     1      25.356   0.164  53.345  1.00  0.00     0.073 A 
HETATM    2  C3  UNL     1      24.880   1.363  52.843  1.00  0.00     0.074 A 
HETATM    3  C4  UNL     1      23.562   1.762  52.740  1.00  0.00     0.088 A 
HETATM    4  C12 UNL     1      22.645   0.847  53.194  1.00  0.00     0.072 A 
HETATM    5  C13 UNL     1      21.302   1.128  53.145  1.00  0.00     0.144 A 
HETATM    6  N3  UNL     1      20.438   0.209  53.597  1.00  0.00    -0.223 NA
HETATM    7  C20 UNL     1      20.798  -0.978  54.101  1.00  0.00     0.236 A 
HETATM    8  N4  UNL     1      22.116  -1.254  54.148  1.00  0.00    -0.241 NA
HETATM    9  C21 UNL     1      23.041  -0.370  53.708  1.00  0.00     0.077 A 
HETATM   10  C22 UNL     1      24.372  -0.722  53.790  1.00  0.00     0.069 A 
ENDROOT
BRANCH   3  11
HETATM   11  O2  UNL     1      23.190   2.974  52.228  1.00  0.00    -0.345 OA
BRANCH  11  12
HETATM   12  C5  UNL     1      23.916   3.883  51.480  1.00  0.00     0.132 C 
HETATM   13  C6  UNL     1      23.878   3.456  50.011  1.00  0.00     0.052 C 
HETATM   14  C7  UNL     1      23.685   4.633  49.091  1.00  0.00     0.126 C 
HETATM   15  N1  UNL     1      24.448   5.792  49.477  1.00  0.00    -0.375 N 
HETATM   16  C10 UNL     1      24.339   6.200  50.861  1.00  0.00     0.126 C 
HETATM   17  C11 UNL     1      23.333   5.285  51.525  1.00  0.00     0.052 C 
BRANCH  15  18
HETATM   18  C8  UNL     1      25.279   6.512  48.542  1.00  0.00     0.071 C 
HETATM   19  C9  UNL     1      24.769   7.482  47.534  1.00  0.00     0.081 C 
HETATM   20  S1  UNL     1      26.886   6.239  48.598  1.00  0.00    -0.066 SA
ENDBRANCH  15  18
ENDBRANCH  11  12
ENDBRANCH   3  11
BRANCH   1  21
HETATM   21  O1  UNL     1      26.715  -0.101  53.387  1.00  0.00    -0.356 OA
HETATM   22  C1  UNL     1      27.511   0.614  54.308  1.00  0.00     0.210 C 
ENDBRANCH   1  21
BRANCH   5  23
HETATM   23  N2  UNL     1      20.761   2.347  52.664  1.00  0.00    -0.340 N 
HETATM   24  H17 UNL     1      20.731   3.350  52.912  1.00  0.00     0.167 HD
BRANCH  23  25
HETATM   25  C14 UNL     1      19.979   2.405  51.462  1.00  0.00     0.035 A 
HETATM   26  C15 UNL     1      20.385   2.163  50.153  1.00  0.00     0.032 A 
HETATM   27  C16 UNL     1      19.538   2.229  49.074  1.00  0.00     0.046 A 
HETATM   28  C17 UNL     1      18.212   2.546  49.251  1.00  0.00     0.138 A 
HETATM   29  F1  UNL     1      17.465   2.586  48.133  1.00  0.00    -0.204 F 
HETATM   30  C18 UNL     1      17.780   2.791  50.538  1.00  0.00     0.074 A 
HETATM   31 CL1  UNL     1      16.057   3.185  50.616  1.00  0.00    -0.081 Cl
HETATM   32  C19 UNL     1      18.632   2.722  51.605  1.00  0.00     0.056 A 
ENDBRANCH  23  25
ENDBRANCH   5  23
TORSDOF 6
ENDMDL
