MODEL 1
REMARK VINA RESULT:      -8.9      0.000      0.000
REMARK  4 active torsions:
REMARK  status: ('A' for Active; 'I' for Inactive)
REMARK    1  A    between atoms: O1_2  and  C2_3 
REMARK    2  A    between atoms: C4_5  and  O2_6 
REMARK    3  A    between atoms: O2_6  and  C5_7 
REMARK    4  A    between atoms: C11_14  and  N2_15 
ROOT
HETATM    1  C2  UNL     1      20.341   0.109  52.902  1.00  0.00     0.073 A 
HETATM    2  C3  UNL     1      21.319   0.776  52.182  1.00  0.00     0.074 A 
HETATM    3  C4  UNL     1      22.666   0.708  52.459  1.00  0.00     0.088 A 
HETATM    4  C10 UNL     1      22.944  -0.100  53.539  1.00  0.00     0.072 A 
HETATM    5  C11 UNL     1      24.272  -0.208  53.881  1.00  0.00     0.145 A 
HETATM    6  N3  UNL     1      24.642  -0.973  54.934  1.00  0.00    -0.223 NA
HETATM    7  C17 UNL     1      23.726  -1.655  55.683  1.00  0.00     0.236 A 
HETATM    8  N4  UNL     1      22.420  -1.551  55.349  1.00  0.00    -0.241 NA
HETATM    9  C18 UNL     1      22.032  -0.794  54.303  1.00  0.00     0.077 A 
HETATM   10  C19 UNL     1      20.698  -0.683  53.971  1.00  0.00     0.069 A 
ENDROOT
BRANCH   3  11
HETATM   11  O2  UNL     1      23.646   1.351  51.773  1.00  0.00    -0.345 OA
BRANCH  11  12
HETATM   12  C5  UNL     1      23.552   2.638  51.221  1.00  0.00     0.132 C 
HETATM   13  C6  UNL     1      24.584   2.862  50.140  1.00  0.00     0.051 C 
HETATM   14  C7  UNL     1      25.522   3.969  50.496  1.00  0.00     0.116 C 
HETATM   15  N1  UNL     1      24.861   5.192  50.874  1.00  0.00    -0.421 N 
HETATM   16  C8  UNL     1      23.646   5.035  51.600  1.00  0.00     0.116 C 
HETATM   17  H10 UNL     1      24.912   5.959  50.200  1.00  0.00     0.153 HD
HETATM   18  C9  UNL     1      23.712   3.688  52.315  1.00  0.00     0.051 C 
ENDBRANCH  11  12
ENDBRANCH   3  11
BRANCH   1  19
HETATM   19  O1  UNL     1      18.992   0.198  52.597  1.00  0.00    -0.356 OA
HETATM   20  C1  UNL     1      18.100  -0.877  52.761  1.00  0.00     0.210 C 
ENDBRANCH   1  19
BRANCH   5  21
HETATM   21  N2  UNL     1      25.426   0.356  53.282  1.00  0.00    -0.330 N 
HETATM   22  C12 UNL     1      26.159   0.197  52.022  1.00  0.00     0.156 C 
HETATM   23  C13 UNL     1      27.447  -0.457  52.419  1.00  0.00     0.012 C 
HETATM   24  C14 UNL     1      28.031  -0.180  53.556  1.00  0.00     0.014 C 
HETATM   25 CL1  UNL     1      29.540  -0.902  54.092  1.00  0.00    -0.089 Cl
HETATM   26  C15 UNL     1      27.463   0.782  54.508  1.00  0.00     0.110 C 
HETATM   27  C16 UNL     1      26.148   1.374  54.051  1.00  0.00     0.278 C 
HETATM   28  F1  UNL     1      26.446   2.477  53.274  1.00  0.00    -0.226 F 
ENDBRANCH   5  21
TORSDOF 4
ENDMDL
MODEL 2
REMARK VINA RESULT:      -8.3      3.302      5.554
REMARK  4 active torsions:
REMARK  status: ('A' for Active; 'I' for Inactive)
REMARK    1  A    between atoms: O1_2  and  C2_3 
REMARK    2  A    between atoms: C4_5  and  O2_6 
REMARK    3  A    between atoms: O2_6  and  C5_7 
REMARK    4  A    between atoms: C11_14  and  N2_15 
ROOT
HETATM    1  C2  UNL     1      25.566  -0.358  54.577  1.00  0.00     0.073 A 
HETATM    2  C3  UNL     1      25.311   0.613  53.623  1.00  0.00     0.074 A 
HETATM    3  C4  UNL     1      24.067   0.866  53.089  1.00  0.00     0.088 A 
HETATM    4  C10 UNL     1      23.092   0.045  53.608  1.00  0.00     0.072 A 
HETATM    5  C11 UNL     1      21.822   0.234  53.114  1.00  0.00     0.145 A 
HETATM    6  N3  UNL     1      20.799  -0.533  53.557  1.00  0.00    -0.223 NA
HETATM    7  C17 UNL     1      20.986  -1.506  54.496  1.00  0.00     0.236 A 
HETATM    8  N4  UNL     1      22.233  -1.694  54.985  1.00  0.00    -0.241 NA
HETATM    9  C18 UNL     1      23.265  -0.940  54.555  1.00  0.00     0.077 A 
HETATM   10  C19 UNL     1      24.537  -1.142  55.049  1.00  0.00     0.069 A 
ENDROOT
BRANCH   3  11
HETATM   11  O2  UNL     1      23.786   1.809  52.152  1.00  0.00    -0.345 OA
BRANCH  11  12
HETATM   12  C5  UNL     1      24.530   2.976  51.915  1.00  0.00     0.132 C 
HETATM   13  C6  UNL     1      24.025   4.139  52.739  1.00  0.00     0.051 C 
HETATM   14  C7  UNL     1      23.534   5.253  51.874  1.00  0.00     0.116 C 
HETATM   15  N1  UNL     1      24.479   5.671  50.871  1.00  0.00    -0.421 N 
HETATM   16  C8  UNL     1      25.272   4.633  50.302  1.00  0.00     0.116 C 
HETATM   17  H10 UNL     1      24.929   6.577  51.023  1.00  0.00     0.153 HD
HETATM   18  C9  UNL     1      24.484   3.333  50.434  1.00  0.00     0.051 C 
ENDBRANCH  11  12
ENDBRANCH   3  11
BRANCH   1  19
HETATM   19  O1  UNL     1      26.831  -0.587  55.095  1.00  0.00    -0.356 OA
HETATM   20  C1  UNL     1      27.949   0.194  54.751  1.00  0.00     0.210 C 
ENDBRANCH   1  19
BRANCH   5  21
HETATM   21  N2  UNL     1      21.332   1.167  52.166  1.00  0.00    -0.330 N 
HETATM   22  C12 UNL     1      20.897   2.568  52.177  1.00  0.00     0.156 C 
HETATM   23  C13 UNL     1      19.418   2.501  51.947  1.00  0.00     0.012 C 
HETATM   24  C14 UNL     1      18.889   1.593  51.168  1.00  0.00     0.014 C 
HETATM   25 CL1  UNL     1      17.167   1.450  50.847  1.00  0.00    -0.089 Cl
HETATM   26  C15 UNL     1      19.706   0.589  50.476  1.00  0.00     0.110 C 
HETATM   27  C16 UNL     1      21.184   0.702  50.784  1.00  0.00     0.278 C 
HETATM   28  F1  UNL     1      21.719   1.605  49.886  1.00  0.00    -0.226 F 
ENDBRANCH   5  21
TORSDOF 4
ENDMDL
MODEL 3
REMARK VINA RESULT:      -8.1      3.221      6.773
REMARK  4 active torsions:
REMARK  status: ('A' for Active; 'I' for Inactive)
REMARK    1  A    between atoms: O1_2  and  C2_3 
REMARK    2  A    between atoms: C4_5  and  O2_6 
REMARK    3  A    between atoms: O2_6  and  C5_7 
REMARK    4  A    between atoms: C11_14  and  N2_15 
ROOT
HETATM    1  C2  UNL     1      26.669   0.024  53.111  1.00  0.00     0.073 A 
HETATM    2  C3  UNL     1      25.287  -0.019  53.194  1.00  0.00     0.074 A 
HETATM    3  C4  UNL     1      24.445   0.862  52.554  1.00  0.00     0.088 A 
HETATM    4  C10 UNL     1      25.127   1.802  51.814  1.00  0.00     0.072 A 
HETATM    5  C11 UNL     1      24.350   2.724  51.152  1.00  0.00     0.145 A 
HETATM    6  N3  UNL     1      24.931   3.692  50.406  1.00  0.00    -0.223 NA
HETATM    7  C17 UNL     1      26.287   3.788  50.285  1.00  0.00     0.236 A 
HETATM    8  N4  UNL     1      27.054   2.883  50.934  1.00  0.00    -0.241 NA
HETATM    9  C18 UNL     1      26.493   1.911  51.681  1.00  0.00     0.077 A 
HETATM   10  C19 UNL     1      27.280   0.996  52.349  1.00  0.00     0.069 A 
ENDROOT
BRANCH   3  11
HETATM   11  O2  UNL     1      23.088   0.846  52.616  1.00  0.00    -0.345 OA
BRANCH  11  12
HETATM   12  C5  UNL     1      22.293  -0.283  52.868  1.00  0.00     0.132 C 
HETATM   13  C6  UNL     1      20.933  -0.168  52.216  1.00  0.00     0.051 C 
HETATM   14  C7  UNL     1      19.837  -0.179  53.230  1.00  0.00     0.116 C 
HETATM   15  N1  UNL     1      19.903  -1.287  54.148  1.00  0.00    -0.421 N 
HETATM   16  C8  UNL     1      21.215  -1.695  54.524  1.00  0.00     0.116 C 
HETATM   17  H10 UNL     1      19.199  -2.018  54.025  1.00  0.00     0.153 HD
HETATM   18  C9  UNL     1      22.131  -0.484  54.370  1.00  0.00     0.051 C 
ENDBRANCH  11  12
ENDBRANCH   3  11
BRANCH   1  19
HETATM   19  O1  UNL     1      27.490  -0.879  53.769  1.00  0.00    -0.356 OA
HETATM   20  C1  UNL     1      28.892  -0.846  53.673  1.00  0.00     0.210 C 
ENDBRANCH   1  19
BRANCH   5  21
HETATM   21  N2  UNL     1      22.941   2.855  51.075  1.00  0.00    -0.330 N 
HETATM   22  C12 UNL     1      21.868   2.346  50.215  1.00  0.00     0.156 C 
HETATM   23  C13 UNL     1      21.396   3.549  49.455  1.00  0.00     0.012 C 
HETATM   24  C14 UNL     1      21.371   4.736  50.004  1.00  0.00     0.014 C 
HETATM   25 CL1  UNL     1      20.831   6.192  49.182  1.00  0.00    -0.089 Cl
HETATM   26  C15 UNL     1      21.802   4.962  51.390  1.00  0.00     0.110 C 
HETATM   27  C16 UNL     1      22.293   3.707  52.077  1.00  0.00     0.278 C 
HETATM   28  F1  UNL     1      21.190   3.087  52.631  1.00  0.00    -0.226 F 
ENDBRANCH   5  21
TORSDOF 4
ENDMDL
MODEL 4
REMARK VINA RESULT:      -7.7      1.679      2.111
REMARK  4 active torsions:
REMARK  status: ('A' for Active; 'I' for Inactive)
REMARK    1  A    between atoms: O1_2  and  C2_3 
REMARK    2  A    between atoms: C4_5  and  O2_6 
REMARK    3  A    between atoms: O2_6  and  C5_7 
REMARK    4  A    between atoms: C11_14  and  N2_15 
ROOT
HETATM    1  C2  UNL     1      20.120  -0.427  53.085  1.00  0.00     0.073 A 
HETATM    2  C3  UNL     1      20.930   0.309  52.236  1.00  0.00     0.074 A 
HETATM    3  C4  UNL     1      22.289   0.455  52.394  1.00  0.00     0.088 A 
HETATM    4  C10 UNL     1      22.768  -0.215  53.498  1.00  0.00     0.072 A 
HETATM    5  C11 UNL     1      24.120  -0.108  53.726  1.00  0.00     0.145 A 
HETATM    6  N3  UNL     1      24.680  -0.725  54.792  1.00  0.00    -0.223 NA
HETATM    7  C17 UNL     1      23.936  -1.465  55.666  1.00  0.00     0.236 A 
HETATM    8  N4  UNL     1      22.607  -1.573  55.444  1.00  0.00    -0.241 NA
HETATM    9  C18 UNL     1      22.031  -0.966  54.387  1.00  0.00     0.077 A 
HETATM   10  C19 UNL     1      20.673  -1.070  54.170  1.00  0.00     0.069 A 
ENDROOT
BRANCH   3  11
HETATM   11  O2  UNL     1      23.108   1.170  51.580  1.00  0.00    -0.345 OA
BRANCH  11  12
HETATM   12  C5  UNL     1      22.744   1.744  50.351  1.00  0.00     0.132 C 
HETATM   13  C6  UNL     1      22.258   3.166  50.518  1.00  0.00     0.051 C 
HETATM   14  C7  UNL     1      20.838   3.315  50.081  1.00  0.00     0.116 C 
HETATM   15  N1  UNL     1      20.579   2.808  48.758  1.00  0.00    -0.421 N 
HETATM   16  C8  UNL     1      21.310   1.641  48.394  1.00  0.00     0.116 C 
HETATM   17  H10 UNL     1      20.415   3.507  48.030  1.00  0.00     0.153 HD
HETATM   18  C9  UNL     1      21.663   0.903  49.682  1.00  0.00     0.051 C 
ENDBRANCH  11  12
ENDBRANCH   3  11
BRANCH   1  19
HETATM   19  O1  UNL     1      18.753  -0.553  52.897  1.00  0.00    -0.356 OA
HETATM   20  C1  UNL     1      18.036  -1.706  53.265  1.00  0.00     0.210 C 
ENDBRANCH   1  19
BRANCH   5  21
HETATM   21  N2  UNL     1      25.128   0.562  52.988  1.00  0.00    -0.330 N 
HETATM   22  C12 UNL     1      26.036   0.235  51.884  1.00  0.00     0.156 C 
HETATM   23  C13 UNL     1      27.394   0.200  52.515  1.00  0.00     0.012 C 
HETATM   24  C14 UNL     1      27.715   1.012  53.489  1.00  0.00     0.014 C 
HETATM   25 CL1  UNL     1      29.285   1.033  54.279  1.00  0.00    -0.089 Cl
HETATM   26  C15 UNL     1      26.770   2.001  54.021  1.00  0.00     0.110 C 
HETATM   27  C16 UNL     1      25.412   1.952  53.355  1.00  0.00     0.278 C 
HETATM   28  F1  UNL     1      25.476   2.766  52.241  1.00  0.00    -0.226 F 
ENDBRANCH   5  21
TORSDOF 4
ENDMDL
MODEL 5
REMARK VINA RESULT:      -7.7      3.304      7.116
REMARK  4 active torsions:
REMARK  status: ('A' for Active; 'I' for Inactive)
REMARK    1  A    between atoms: O1_2  and  C2_3 
REMARK    2  A    between atoms: C4_5  and  O2_6 
REMARK    3  A    between atoms: O2_6  and  C5_7 
REMARK    4  A    between atoms: C11_14  and  N2_15 
ROOT
HETATM    1  C2  UNL     1      26.756   4.279  49.410  1.00  0.00     0.073 A 
HETATM    2  C3  UNL     1      26.509   3.184  50.221  1.00  0.00     0.074 A 
HETATM    3  C4  UNL     1      25.252   2.758  50.586  1.00  0.00     0.088 A 
HETATM    4  C10 UNL     1      24.253   3.543  50.056  1.00  0.00     0.072 A 
HETATM    5  C11 UNL     1      22.967   3.184  50.386  1.00  0.00     0.145 A 
HETATM    6  N3  UNL     1      21.920   3.902  49.919  1.00  0.00    -0.223 NA
HETATM    7  C17 UNL     1      22.097   4.991  49.116  1.00  0.00     0.236 A 
HETATM    8  N4  UNL     1      23.360   5.347  48.789  1.00  0.00    -0.241 NA
HETATM    9  C18 UNL     1      24.416   4.644  49.244  1.00  0.00     0.077 A 
HETATM   10  C19 UNL     1      25.703   5.017  48.916  1.00  0.00     0.069 A 
ENDROOT
BRANCH   3  11
HETATM   11  O2  UNL     1      24.979   1.690  51.380  1.00  0.00    -0.345 OA
BRANCH  11  12
HETATM   12  C5  UNL     1      25.878   1.077  52.267  1.00  0.00     0.132 C 
HETATM   13  C6  UNL     1      25.531  -0.376  52.501  1.00  0.00     0.051 C 
HETATM   14  C7  UNL     1      25.206  -0.638  53.935  1.00  0.00     0.116 C 
HETATM   15  N1  UNL     1      26.209  -0.167  54.856  1.00  0.00    -0.421 N 
HETATM   16  C8  UNL     1      26.855   1.048  54.490  1.00  0.00     0.116 C 
HETATM   17  H10 UNL     1      26.777  -0.885  55.311  1.00  0.00     0.153 HD
HETATM   18  C9  UNL     1      25.894   1.826  53.595  1.00  0.00     0.051 C 
ENDBRANCH  11  12
ENDBRANCH   3  11
BRANCH   1  19
HETATM   19  O1  UNL     1      28.036   4.681  49.060  1.00  0.00    -0.356 OA
HETATM   20  C1  UNL     1      28.293   5.850  48.321  1.00  0.00     0.210 C 
ENDBRANCH   1  19
BRANCH   5  21
HETATM   21  N2  UNL     1      22.485   2.105  51.169  1.00  0.00    -0.330 N 
HETATM   22  C12 UNL     1      22.272   0.666  50.984  1.00  0.00     0.156 C 
HETATM   23  C13 UNL     1      20.782   0.507  50.972  1.00  0.00     0.012 C 
HETATM   24  C14 UNL     1      20.011   1.255  51.718  1.00  0.00     0.014 C 
HETATM   25 CL1  UNL     1      18.259   1.129  51.762  1.00  0.00    -0.089 Cl
HETATM   26  C15 UNL     1      20.553   2.290  52.607  1.00  0.00     0.110 C 
HETATM   27  C16 UNL     1      22.060   2.410  52.538  1.00  0.00     0.278 C 
HETATM   28  F1  UNL     1      22.582   1.506  53.443  1.00  0.00    -0.226 F 
ENDBRANCH   5  21
TORSDOF 4
ENDMDL
MODEL 6
REMARK VINA RESULT:      -7.1      2.409      2.896
REMARK  4 active torsions:
REMARK  status: ('A' for Active; 'I' for Inactive)
REMARK    1  A    between atoms: O1_2  and  C2_3 
REMARK    2  A    between atoms: C4_5  and  O2_6 
REMARK    3  A    between atoms: O2_6  and  C5_7 
REMARK    4  A    between atoms: C11_14  and  N2_15 
ROOT
HETATM    1  C2  UNL     1      18.574  -0.560  52.802  1.00  0.00     0.073 A 
HETATM    2  C3  UNL     1      19.145   0.425  52.014  1.00  0.00     0.074 A 
HETATM    3  C4  UNL     1      20.466   0.805  52.085  1.00  0.00     0.088 A 
HETATM    4  C10 UNL     1      21.170   0.096  53.033  1.00  0.00     0.072 A 
HETATM    5  C11 UNL     1      22.498   0.429  53.168  1.00  0.00     0.145 A 
HETATM    6  N3  UNL     1      23.268  -0.208  54.080  1.00  0.00    -0.223 NA
HETATM    7  C17 UNL     1      22.764  -1.188  54.886  1.00  0.00     0.236 A 
HETATM    8  N4  UNL     1      21.460  -1.518  54.756  1.00  0.00    -0.241 NA
HETATM    9  C18 UNL     1      20.677  -0.894  53.852  1.00  0.00     0.077 A 
HETATM   10  C19 UNL     1      19.344  -1.227  53.729  1.00  0.00     0.069 A 
ENDROOT
BRANCH   3  11
HETATM   11  O2  UNL     1      21.054   1.768  51.328  1.00  0.00    -0.345 OA
BRANCH  11  12
HETATM   12  C5  UNL     1      20.390   2.640  50.451  1.00  0.00     0.132 C 
HETATM   13  C6  UNL     1      21.222   2.945  49.226  1.00  0.00     0.051 C 
HETATM   14  C7  UNL     1      21.544   4.400  49.130  1.00  0.00     0.116 C 
HETATM   15  N1  UNL     1      20.392   5.259  49.227  1.00  0.00    -0.421 N 
HETATM   16  C8  UNL     1      19.372   4.820  50.119  1.00  0.00     0.116 C 
HETATM   17  H10 UNL     1      20.096   5.718  48.363  1.00  0.00     0.153 HD
HETATM   18  C9  UNL     1      20.036   3.935  51.171  1.00  0.00     0.051 C 
ENDBRANCH  11  12
ENDBRANCH   3  11
BRANCH   1  19
HETATM   19  O1  UNL     1      17.238  -0.919  52.705  1.00  0.00    -0.356 OA
HETATM   20  C1  UNL     1      16.785  -2.233  52.920  1.00  0.00     0.210 C 
ENDBRANCH   1  19
BRANCH   5  21
HETATM   21  N2  UNL     1      23.287   1.372  52.464  1.00  0.00    -0.330 N 
HETATM   22  C12 UNL     1      24.047   1.402  51.210  1.00  0.00     0.156 C 
HETATM   23  C13 UNL     1      25.480   1.460  51.643  1.00  0.00     0.012 C 
HETATM   24  C14 UNL     1      25.843   2.115  52.716  1.00  0.00     0.014 C 
HETATM   25 CL1  UNL     1      27.501   2.230  53.288  1.00  0.00    -0.089 Cl
HETATM   26  C15 UNL     1      24.874   2.828  53.557  1.00  0.00     0.110 C 
HETATM   27  C16 UNL     1      23.447   2.696  53.072  1.00  0.00     0.278 C 
HETATM   28  F1  UNL     1      23.235   3.705  52.152  1.00  0.00    -0.226 F 
ENDBRANCH   5  21
TORSDOF 4
ENDMDL
MODEL 7
REMARK VINA RESULT:      -6.9      3.883      6.798
REMARK  4 active torsions:
REMARK  status: ('A' for Active; 'I' for Inactive)
REMARK    1  A    between atoms: O1_2  and  C2_3 
REMARK    2  A    between atoms: C4_5  and  O2_6 
REMARK    3  A    between atoms: O2_6  and  C5_7 
REMARK    4  A    between atoms: C11_14  and  N2_15 
ROOT
HETATM    1  C2  UNL     1      26.359   5.045  48.991  1.00  0.00     0.073 A 
HETATM    2  C3  UNL     1      24.977   5.131  48.945  1.00  0.00     0.074 A 
HETATM    3  C4  UNL     1      24.125   4.268  49.596  1.00  0.00     0.088 A 
HETATM    4  C10 UNL     1      24.796   3.298  50.306  1.00  0.00     0.072 A 
HETATM    5  C11 UNL     1      24.009   2.392  50.977  1.00  0.00     0.145 A 
HETATM    6  N3  UNL     1      24.579   1.397  51.696  1.00  0.00    -0.223 NA
HETATM    7  C17 UNL     1      25.935   1.259  51.780  1.00  0.00     0.236 A 
HETATM    8  N4  UNL     1      26.712   2.148  51.123  1.00  0.00    -0.241 NA
HETATM    9  C18 UNL     1      26.162   3.146  50.402  1.00  0.00     0.077 A 
HETATM   10  C19 UNL     1      26.959   4.046  49.725  1.00  0.00     0.069 A 
ENDROOT
BRANCH   3  11
HETATM   11  O2  UNL     1      22.768   4.326  49.568  1.00  0.00    -0.345 OA
BRANCH  11  12
HETATM   12  C5  UNL     1      21.996   4.988  48.601  1.00  0.00     0.132 C 
HETATM   13  C6  UNL     1      20.652   5.411  49.150  1.00  0.00     0.051 C 
HETATM   14  C7  UNL     1      19.529   4.753  48.418  1.00  0.00     0.116 C 
HETATM   15  N1  UNL     1      19.599   4.904  46.987  1.00  0.00    -0.421 N 
HETATM   16  C8  UNL     1      20.910   4.884  46.431  1.00  0.00     0.116 C 
HETATM   17  H10 UNL     1      18.918   5.539  46.566  1.00  0.00     0.153 HD
HETATM   18  C9  UNL     1      21.799   4.091  47.385  1.00  0.00     0.051 C 
ENDBRANCH  11  12
ENDBRANCH   3  11
BRANCH   1  19
HETATM   19  O1  UNL     1      27.189   5.932  48.323  1.00  0.00    -0.356 OA
HETATM   20  C1  UNL     1      28.583   5.762  48.248  1.00  0.00     0.210 C 
ENDBRANCH   1  19
BRANCH   5  21
HETATM   21  N2  UNL     1      22.599   2.302  51.088  1.00  0.00    -0.330 N 
HETATM   22  C12 UNL     1      21.548   2.954  51.877  1.00  0.00     0.156 C 
HETATM   23  C13 UNL     1      21.065   1.886  52.811  1.00  0.00     0.012 C 
HETATM   24  C14 UNL     1      21.010   0.631  52.442  1.00  0.00     0.014 C 
HETATM   25 CL1  UNL     1      20.456  -0.677  53.476  1.00  0.00    -0.089 Cl
HETATM   26  C15 UNL     1      21.416   0.196  51.101  1.00  0.00     0.110 C 
HETATM   27  C16 UNL     1      21.921   1.326  50.230  1.00  0.00     0.278 C 
HETATM   28  F1  UNL     1      20.821   1.880  49.604  1.00  0.00    -0.226 F 
ENDBRANCH   5  21
TORSDOF 4
ENDMDL
MODEL 8
REMARK VINA RESULT:      -6.8      4.715      9.222
REMARK  4 active torsions:
REMARK  status: ('A' for Active; 'I' for Inactive)
REMARK    1  A    between atoms: O1_2  and  C2_3 
REMARK    2  A    between atoms: C4_5  and  O2_6 
REMARK    3  A    between atoms: O2_6  and  C5_7 
REMARK    4  A    between atoms: C11_14  and  N2_15 
ROOT
HETATM    1  C2  UNL     1      27.944   5.424  48.496  1.00  0.00     0.073 A 
HETATM    2  C3  UNL     1      26.841   4.692  48.905  1.00  0.00     0.074 A 
HETATM    3  C4  UNL     1      25.574   5.212  49.042  1.00  0.00     0.088 A 
HETATM    4  C10 UNL     1      25.514   6.551  48.726  1.00  0.00     0.072 A 
HETATM    5  C11 UNL     1      24.279   7.142  48.848  1.00  0.00     0.145 A 
HETATM    6  N3  UNL     1      24.124   8.457  48.568  1.00  0.00    -0.223 NA
HETATM    7  C17 UNL     1      25.172   9.232  48.161  1.00  0.00     0.236 A 
HETATM    8  N4  UNL     1      26.387   8.654  48.039  1.00  0.00    -0.241 NA
HETATM    9  C18 UNL     1      26.561   7.345  48.313  1.00  0.00     0.077 A 
HETATM   10  C19 UNL     1      27.805   6.761  48.197  1.00  0.00     0.069 A 
ENDROOT
BRANCH   3  11
HETATM   11  O2  UNL     1      24.475   4.521  49.442  1.00  0.00    -0.345 OA
BRANCH  11  12
HETATM   12  C5  UNL     1      24.458   3.181  49.862  1.00  0.00     0.132 C 
HETATM   13  C6  UNL     1      23.172   2.488  49.473  1.00  0.00     0.051 C 
HETATM   14  C7  UNL     1      22.413   2.024  50.673  1.00  0.00     0.116 C 
HETATM   15  N1  UNL     1      23.197   1.234  51.588  1.00  0.00    -0.421 N 
HETATM   16  C8  UNL     1      24.561   1.623  51.722  1.00  0.00     0.116 C 
HETATM   17  H10 UNL     1      22.988   0.234  51.615  1.00  0.00     0.153 HD
HETATM   18  C9  UNL     1      24.649   3.106  51.373  1.00  0.00     0.051 C 
ENDBRANCH  11  12
ENDBRANCH   3  11
BRANCH   1  19
HETATM   19  O1  UNL     1      29.208   4.870  48.369  1.00  0.00    -0.356 OA
HETATM   20  C1  UNL     1      30.326   5.610  47.945  1.00  0.00     0.210 C 
ENDBRANCH   1  19
BRANCH   5  21
HETATM   21  N2  UNL     1      23.027   6.591  49.221  1.00  0.00    -0.330 N 
HETATM   22  C12 UNL     1      21.926   5.894  48.548  1.00  0.00     0.156 C 
HETATM   23  C13 UNL     1      20.796   6.877  48.565  1.00  0.00     0.012 C 
HETATM   24  C14 UNL     1      20.617   7.694  49.572  1.00  0.00     0.014 C 
HETATM   25 CL1  UNL     1      19.317   8.872  49.667  1.00  0.00    -0.089 Cl
HETATM   26  C15 UNL     1      21.508   7.698  50.738  1.00  0.00     0.110 C 
HETATM   27  C16 UNL     1      22.642   6.702  50.631  1.00  0.00     0.278 C 
HETATM   28  F1  UNL     1      22.174   5.499  51.123  1.00  0.00    -0.226 F 
ENDBRANCH   5  21
TORSDOF 4
ENDMDL
MODEL 9
REMARK VINA RESULT:      -6.7      4.363      6.669
REMARK  4 active torsions:
REMARK  status: ('A' for Active; 'I' for Inactive)
REMARK    1  A    between atoms: O1_2  and  C2_3 
REMARK    2  A    between atoms: C4_5  and  O2_6 
REMARK    3  A    between atoms: O2_6  and  C5_7 
REMARK    4  A    between atoms: C11_14  and  N2_15 
ROOT
HETATM    1  C2  UNL     1      23.883   0.162  53.069  1.00  0.00     0.073 A 
HETATM    2  C3  UNL     1      23.366   1.082  52.172  1.00  0.00     0.074 A 
HETATM    3  C4  UNL     1      22.027   1.209  51.879  1.00  0.00     0.088 A 
HETATM    4  C10 UNL     1      21.246   0.316  52.577  1.00  0.00     0.072 A 
HETATM    5  C11 UNL     1      19.894   0.378  52.328  1.00  0.00     0.145 A 
HETATM    6  N3  UNL     1      19.047  -0.466  52.961  1.00  0.00    -0.223 NA
HETATM    7  C17 UNL     1      19.495  -1.395  53.856  1.00  0.00     0.236 A 
HETATM    8  N4  UNL     1      20.823  -1.459  54.104  1.00  0.00    -0.241 NA
HETATM    9  C18 UNL     1      21.682  -0.625  53.483  1.00  0.00     0.077 A 
HETATM   10  C19 UNL     1      23.037  -0.700  53.731  1.00  0.00     0.069 A 
ENDROOT
BRANCH   3  11
HETATM   11  O2  UNL     1      21.491   2.099  51.004  1.00  0.00    -0.345 OA
BRANCH  11  12
HETATM   12  C5  UNL     1      22.113   2.582  49.842  1.00  0.00     0.132 C 
HETATM   13  C6  UNL     1      21.563   3.930  49.431  1.00  0.00     0.051 C 
HETATM   14  C7  UNL     1      20.922   3.872  48.083  1.00  0.00     0.116 C 
HETATM   15  N1  UNL     1      21.760   3.297  47.063  1.00  0.00    -0.421 N 
HETATM   16  C8  UNL     1      22.602   2.230  47.490  1.00  0.00     0.116 C 
HETATM   17  H10 UNL     1      22.138   3.946  46.369  1.00  0.00     0.153 HD
HETATM   18  C9  UNL     1      21.940   1.584  48.704  1.00  0.00     0.051 C 
ENDBRANCH  11  12
ENDBRANCH   3  11
BRANCH   1  19
HETATM   19  O1  UNL     1      25.239   0.059  53.342  1.00  0.00    -0.356 OA
HETATM   20  C1  UNL     1      26.231   0.266  52.367  1.00  0.00     0.210 C 
ENDBRANCH   1  19
BRANCH   5  21
HETATM   21  N2  UNL     1      19.153   1.241  51.483  1.00  0.00    -0.330 N 
HETATM   22  C12 UNL     1      18.686   2.630  51.523  1.00  0.00     0.156 C 
HETATM   23  C13 UNL     1      17.199   2.520  51.674  1.00  0.00     0.012 C 
HETATM   24  C14 UNL     1      16.524   1.555  51.105  1.00  0.00     0.014 C 
HETATM   25 CL1  UNL     1      14.783   1.359  51.234  1.00  0.00    -0.089 Cl
HETATM   26  C15 UNL     1      17.179   0.525  50.289  1.00  0.00     0.110 C 
HETATM   27  C16 UNL     1      18.681   0.686  50.210  1.00  0.00     0.278 C 
HETATM   28  F1  UNL     1      18.945   1.541  49.158  1.00  0.00    -0.226 F 
ENDBRANCH   5  21
TORSDOF 4
ENDMDL
