MODEL 1
REMARK VINA RESULT:      -7.8      0.000      0.000
REMARK  4 active torsions:
REMARK  status: ('A' for Active; 'I' for Inactive)
REMARK    1  A    between atoms: C1_2  and  C2_3 
REMARK    2  A    between atoms: C2_3  and  C3_4 
REMARK    3  A    between atoms: C4_6  and  C5_7 
REMARK    4  A    between atoms: C8_10  and  C9_11 
ROOT
HETATM    1  C5  UNL     1      22.328  -1.655  54.796  1.00  0.00     0.028 C 
HETATM    2  C6  UNL     1      23.570  -1.255  54.993  1.00  0.00     0.033 A 
HETATM    3  C7  UNL     1      24.385  -0.425  54.066  1.00  0.00     0.120 A 
HETATM    4  C8  UNL     1      25.677  -0.304  54.820  1.00  0.00     0.070 A 
HETATM    5  N2  UNL     1      25.659  -0.924  55.962  1.00  0.00    -0.178 NA
HETATM    6  N3  UNL     1      24.402  -1.519  56.116  1.00  0.00    -0.282 N 
HETATM    7  H10 UNL     1      24.072  -2.097  56.941  1.00  0.00     0.189 HD
ENDROOT
BRANCH   1   8
HETATM    8  C4  UNL     1      21.636  -1.280  53.573  1.00  0.00     0.023 C 
HETATM    9  C3  UNL     1      20.833  -0.228  53.546  1.00  0.00     0.031 C 
HETATM   10 CL1  UNL     1      20.577   0.743  54.981  1.00  0.00    -0.087 Cl
BRANCH   9  11
HETATM   11  C2  UNL     1      20.086   0.226  52.338  1.00  0.00     0.071 A 
HETATM   12  C14 UNL     1      19.972   1.680  52.288  1.00  0.00    -0.008 A 
HETATM   13  C15 UNL     1      20.660   1.776  51.197  1.00  0.00    -0.027 A 
HETATM   14  C16 UNL     1      20.868   0.336  51.095  1.00  0.00     0.053 A 
BRANCH  11  15
HETATM   15  C1  UNL     1      18.732  -0.391  52.212  1.00  0.00     0.251 C 
HETATM   16  O1  UNL     1      18.125  -0.848  53.179  1.00  0.00    -0.305 OA
ENDBRANCH  11  15
ENDBRANCH   9  11
ENDBRANCH   1   8
BRANCH   4  17
HETATM   17  C9  UNL     1      26.816   0.449  54.283  1.00  0.00    -0.007 A 
HETATM   18  C10 UNL     1      28.119   0.226  54.652  1.00  0.00     0.032 A 
HETATM   19  C11 UNL     1      29.161   0.961  54.119  1.00  0.00     0.117 A 
HETATM   20  N1  UNL     1      28.907   1.920  53.215  1.00  0.00    -0.273 NA
HETATM   21  C12 UNL     1      27.643   2.185  52.811  1.00  0.00     0.117 A 
HETATM   22  C13 UNL     1      26.603   1.450  53.346  1.00  0.00     0.032 A 
ENDBRANCH   4  17
TORSDOF 4
ENDMDL
MODEL 2
REMARK VINA RESULT:      -7.5      2.789      4.057
REMARK  4 active torsions:
REMARK  status: ('A' for Active; 'I' for Inactive)
REMARK    1  A    between atoms: C1_2  and  C2_3 
REMARK    2  A    between atoms: C2_3  and  C3_4 
REMARK    3  A    between atoms: C4_6  and  C5_7 
REMARK    4  A    between atoms: C8_10  and  C9_11 
ROOT
HETATM    1  C5  UNL     1      23.809   3.643  51.752  1.00  0.00     0.028 C 
HETATM    2  C6  UNL     1      24.937   2.960  51.798  1.00  0.00     0.033 A 
HETATM    3  C7  UNL     1      25.120   1.601  52.374  1.00  0.00     0.120 A 
HETATM    4  C8  UNL     1      26.583   1.364  52.139  1.00  0.00     0.070 A 
HETATM    5  N2  UNL     1      27.170   2.360  51.547  1.00  0.00    -0.178 NA
HETATM    6  N3  UNL     1      26.216   3.356  51.317  1.00  0.00    -0.282 N 
HETATM    7  H10 UNL     1      26.378   4.294  50.851  1.00  0.00     0.189 HD
ENDROOT
BRANCH   1   8
HETATM    8  C4  UNL     1      22.593   3.064  52.301  1.00  0.00     0.023 C 
HETATM    9  C3  UNL     1      21.785   2.341  51.541  1.00  0.00     0.031 C 
HETATM   10 CL1  UNL     1      22.154   2.061  49.852  1.00  0.00    -0.087 Cl
BRANCH   9  11
HETATM   11  C2  UNL     1      20.521   1.713  52.022  1.00  0.00     0.071 A 
HETATM   12  C14 UNL     1      20.372   0.350  51.520  1.00  0.00    -0.008 A 
HETATM   13  C15 UNL     1      20.411  -0.174  52.702  1.00  0.00    -0.027 A 
HETATM   14  C16 UNL     1      20.565   1.115  53.367  1.00  0.00     0.053 A 
BRANCH  11  15
HETATM   15  C1  UNL     1      19.302   2.509  51.694  1.00  0.00     0.251 C 
HETATM   16  O1  UNL     1      19.153   3.670  52.071  1.00  0.00    -0.305 OA
ENDBRANCH  11  15
ENDBRANCH   9  11
ENDBRANCH   1   8
BRANCH   4  17
HETATM   17  C9  UNL     1      27.238   0.118  52.552  1.00  0.00    -0.007 A 
HETATM   18  C10 UNL     1      26.727  -1.132  52.303  1.00  0.00     0.032 A 
HETATM   19  C11 UNL     1      27.379  -2.279  52.712  1.00  0.00     0.117 A 
HETATM   20  N1  UNL     1      28.544  -2.185  53.371  1.00  0.00    -0.273 NA
HETATM   21  C12 UNL     1      29.099  -0.981  53.646  1.00  0.00     0.117 A 
HETATM   22  C13 UNL     1      28.445   0.164  53.237  1.00  0.00     0.032 A 
ENDBRANCH   4  17
TORSDOF 4
ENDMDL
MODEL 3
REMARK VINA RESULT:      -7.5      4.283      7.843
REMARK  4 active torsions:
REMARK  status: ('A' for Active; 'I' for Inactive)
REMARK    1  A    between atoms: C1_2  and  C2_3 
REMARK    2  A    between atoms: C2_3  and  C3_4 
REMARK    3  A    between atoms: C4_6  and  C5_7 
REMARK    4  A    between atoms: C8_10  and  C9_11 
ROOT
HETATM    1  C5  UNL     1      26.732   2.515  51.185  1.00  0.00     0.028 C 
HETATM    2  C6  UNL     1      25.535   3.051  51.032  1.00  0.00     0.033 A 
HETATM    3  C7  UNL     1      24.260   2.532  51.593  1.00  0.00     0.120 A 
HETATM    4  C8  UNL     1      23.271   3.543  51.090  1.00  0.00     0.070 A 
HETATM    5  N2  UNL     1      23.820   4.479  50.375  1.00  0.00    -0.178 NA
HETATM    6  N3  UNL     1      25.194   4.229  50.309  1.00  0.00    -0.282 N 
HETATM    7  H10 UNL     1      25.921   4.810  49.800  1.00  0.00     0.189 HD
ENDROOT
BRANCH   1   8
HETATM    8  C4  UNL     1      26.880   1.299  51.968  1.00  0.00     0.023 C 
HETATM    9  C3  UNL     1      27.709   1.256  53.000  1.00  0.00     0.031 C 
HETATM   10 CL1  UNL     1      28.650   2.661  53.454  1.00  0.00    -0.087 Cl
BRANCH   9  11
HETATM   11  C2  UNL     1      27.922   0.052  53.854  1.00  0.00     0.071 A 
HETATM   12  C14 UNL     1      27.928  -1.175  53.064  1.00  0.00    -0.008 A 
HETATM   13  C15 UNL     1      29.157  -1.453  53.359  1.00  0.00    -0.027 A 
HETATM   14  C16 UNL     1      29.321  -0.265  54.189  1.00  0.00     0.053 A 
BRANCH  11  15
HETATM   15  C1  UNL     1      26.934  -0.068  54.966  1.00  0.00     0.251 C 
HETATM   16  O1  UNL     1      25.987  -0.852  54.923  1.00  0.00    -0.305 OA
ENDBRANCH  11  15
ENDBRANCH   9  11
ENDBRANCH   1   8
BRANCH   4  17
HETATM   17  C9  UNL     1      21.840   3.442  51.399  1.00  0.00    -0.007 A 
HETATM   18  C10 UNL     1      20.889   4.293  50.894  1.00  0.00     0.032 A 
HETATM   19  C11 UNL     1      19.551   4.160  51.213  1.00  0.00     0.117 A 
HETATM   20  N1  UNL     1      19.157   3.178  52.038  1.00  0.00    -0.273 NA
HETATM   21  C12 UNL     1      20.048   2.308  52.568  1.00  0.00     0.117 A 
HETATM   22  C13 UNL     1      21.384   2.442  52.247  1.00  0.00     0.032 A 
ENDBRANCH   4  17
TORSDOF 4
ENDMDL
MODEL 4
REMARK VINA RESULT:      -7.4      2.435      3.623
REMARK  4 active torsions:
REMARK  status: ('A' for Active; 'I' for Inactive)
REMARK    1  A    between atoms: C1_2  and  C2_3 
REMARK    2  A    between atoms: C2_3  and  C3_4 
REMARK    3  A    between atoms: C4_6  and  C5_7 
REMARK    4  A    between atoms: C8_10  and  C9_11 
ROOT
HETATM    1  C5  UNL     1      23.808   2.830  52.358  1.00  0.00     0.028 C 
HETATM    2  C6  UNL     1      25.038   2.353  52.326  1.00  0.00     0.033 A 
HETATM    3  C7  UNL     1      25.489   1.043  52.867  1.00  0.00     0.120 A 
HETATM    4  C8  UNL     1      26.954   1.065  52.539  1.00  0.00     0.070 A 
HETATM    5  N2  UNL     1      27.322   2.152  51.930  1.00  0.00    -0.178 NA
HETATM    6  N3  UNL     1      26.196   2.968  51.774  1.00  0.00    -0.282 N 
HETATM    7  H10 UNL     1      26.164   3.923  51.315  1.00  0.00     0.189 HD
ENDROOT
BRANCH   1   8
HETATM    8  C4  UNL     1      22.748   2.044  52.970  1.00  0.00     0.023 C 
HETATM    9  C3  UNL     1      22.006   1.225  52.241  1.00  0.00     0.031 C 
HETATM   10 CL1  UNL     1      22.278   1.062  50.519  1.00  0.00    -0.087 Cl
BRANCH   9  11
HETATM   11  C2  UNL     1      20.901   0.386  52.786  1.00  0.00     0.071 A 
HETATM   12  C14 UNL     1      21.374  -0.936  53.187  1.00  0.00    -0.008 A 
HETATM   13  C15 UNL     1      21.080  -0.750  54.434  1.00  0.00    -0.027 A 
HETATM   14  C16 UNL     1      20.566   0.595  54.205  1.00  0.00     0.053 A 
BRANCH  11  15
HETATM   15  C1  UNL     1      19.746   0.246  51.851  1.00  0.00     0.251 C 
HETATM   16  O1  UNL     1      18.589   0.484  52.194  1.00  0.00    -0.305 OA
ENDBRANCH  11  15
ENDBRANCH   9  11
ENDBRANCH   1   8
BRANCH   4  17
HETATM   17  C9  UNL     1      27.839  -0.050  52.892  1.00  0.00    -0.007 A 
HETATM   18  C10 UNL     1      29.091   0.112  53.433  1.00  0.00     0.032 A 
HETATM   19  C11 UNL     1      29.892  -0.969  53.750  1.00  0.00     0.117 A 
HETATM   20  N1  UNL     1      29.447  -2.215  53.528  1.00  0.00    -0.273 NA
HETATM   21  C12 UNL     1      28.222  -2.439  52.997  1.00  0.00     0.117 A 
HETATM   22  C13 UNL     1      27.424  -1.357  52.681  1.00  0.00     0.032 A 
ENDBRANCH   4  17
TORSDOF 4
ENDMDL
MODEL 5
REMARK VINA RESULT:      -7.4      3.576      7.517
REMARK  4 active torsions:
REMARK  status: ('A' for Active; 'I' for Inactive)
REMARK    1  A    between atoms: C1_2  and  C2_3 
REMARK    2  A    between atoms: C2_3  and  C3_4 
REMARK    3  A    between atoms: C4_6  and  C5_7 
REMARK    4  A    between atoms: C8_10  and  C9_11 
ROOT
HETATM    1  C5  UNL     1      25.858   2.499  51.489  1.00  0.00     0.028 C 
HETATM    2  C6  UNL     1      24.599   2.115  51.394  1.00  0.00     0.033 A 
HETATM    3  C7  UNL     1      23.861   1.268  52.368  1.00  0.00     0.120 A 
HETATM    4  C8  UNL     1      22.506   1.178  51.731  1.00  0.00     0.070 A 
HETATM    5  N2  UNL     1      22.428   1.830  50.609  1.00  0.00    -0.178 NA
HETATM    6  N3  UNL     1      23.672   2.418  50.358  1.00  0.00    -0.282 N 
HETATM    7  H10 UNL     1      23.934   3.015  49.522  1.00  0.00     0.189 HD
ENDROOT
BRANCH   1   8
HETATM    8  C4  UNL     1      26.652   2.085  52.635  1.00  0.00     0.023 C 
HETATM    9  C3  UNL     1      27.116   0.848  52.724  1.00  0.00     0.031 C 
HETATM   10 CL1  UNL     1      26.787  -0.327  51.468  1.00  0.00    -0.087 Cl
BRANCH   9  11
HETATM   11  C2  UNL     1      27.936   0.340  53.862  1.00  0.00     0.071 A 
HETATM   12  C14 UNL     1      28.646  -0.885  53.510  1.00  0.00    -0.008 A 
HETATM   13  C15 UNL     1      29.813  -0.345  53.656  1.00  0.00    -0.027 A 
HETATM   14  C16 UNL     1      29.264   0.954  54.029  1.00  0.00     0.053 A 
BRANCH  11  15
HETATM   15  C1  UNL     1      27.147   0.126  55.111  1.00  0.00     0.251 C 
HETATM   16  O1  UNL     1      26.112  -0.540  55.130  1.00  0.00    -0.305 OA
ENDBRANCH  11  15
ENDBRANCH   9  11
ENDBRANCH   1   8
BRANCH   4  17
HETATM   17  C9  UNL     1      21.412   0.421  52.349  1.00  0.00    -0.007 A 
HETATM   18  C10 UNL     1      20.109   0.474  51.918  1.00  0.00     0.032 A 
HETATM   19  C11 UNL     1      19.110  -0.257  52.531  1.00  0.00     0.117 A 
HETATM   20  N1  UNL     1      19.405  -1.044  53.577  1.00  0.00    -0.273 NA
HETATM   21  C12 UNL     1      20.671  -1.139  54.047  1.00  0.00     0.117 A 
HETATM   22  C13 UNL     1      21.668  -0.407  53.433  1.00  0.00     0.032 A 
ENDBRANCH   4  17
TORSDOF 4
ENDMDL
MODEL 6
REMARK VINA RESULT:      -7.3      4.904      7.046
REMARK  4 active torsions:
REMARK  status: ('A' for Active; 'I' for Inactive)
REMARK    1  A    between atoms: C1_2  and  C2_3 
REMARK    2  A    between atoms: C2_3  and  C3_4 
REMARK    3  A    between atoms: C4_6  and  C5_7 
REMARK    4  A    between atoms: C8_10  and  C9_11 
ROOT
HETATM    1  C5  UNL     1      24.240   2.418  51.082  1.00  0.00     0.028 C 
HETATM    2  C6  UNL     1      24.665   3.404  50.315  1.00  0.00     0.033 A 
HETATM    3  C7  UNL     1      26.082   3.774  50.061  1.00  0.00     0.120 A 
HETATM    4  C8  UNL     1      25.932   4.943  49.133  1.00  0.00     0.070 A 
HETATM    5  N2  UNL     1      24.692   5.228  48.872  1.00  0.00    -0.178 NA
HETATM    6  N3  UNL     1      23.880   4.324  49.564  1.00  0.00    -0.282 N 
HETATM    7  H10 UNL     1      22.820   4.291  49.561  1.00  0.00     0.189 HD
ENDROOT
BRANCH   1   8
HETATM    8  C4  UNL     1      25.204   1.578  51.774  1.00  0.00     0.023 C 
HETATM    9  C3  UNL     1      24.826   0.798  52.775  1.00  0.00     0.031 C 
HETATM   10 CL1  UNL     1      23.156   0.755  53.298  1.00  0.00    -0.087 Cl
BRANCH   9  11
HETATM   11  C2  UNL     1      25.748  -0.092  53.538  1.00  0.00     0.071 A 
HETATM   12  C14 UNL     1      26.442  -1.029  52.660  1.00  0.00    -0.008 A 
HETATM   13  C15 UNL     1      27.609  -0.542  52.932  1.00  0.00    -0.027 A 
HETATM   14  C16 UNL     1      27.077   0.461  53.847  1.00  0.00     0.053 A 
BRANCH  11  15
HETATM   15  C1  UNL     1      25.072  -0.839  54.640  1.00  0.00     0.251 C 
HETATM   16  O1  UNL     1      25.561  -0.937  55.765  1.00  0.00    -0.305 OA
ENDBRANCH  11  15
ENDBRANCH   9  11
ENDBRANCH   1   8
BRANCH   4  17
HETATM   17  C9  UNL     1      27.096   5.659  48.599  1.00  0.00    -0.007 A 
HETATM   18  C10 UNL     1      28.351   5.110  48.504  1.00  0.00     0.032 A 
HETATM   19  C11 UNL     1      29.420   5.822  47.994  1.00  0.00     0.117 A 
HETATM   20  N1  UNL     1      29.241   7.085  47.577  1.00  0.00    -0.273 NA
HETATM   21  C12 UNL     1      28.028   7.681  47.645  1.00  0.00     0.117 A 
HETATM   22  C13 UNL     1      26.961   6.967  48.155  1.00  0.00     0.032 A 
ENDBRANCH   4  17
TORSDOF 4
ENDMDL
MODEL 7
REMARK VINA RESULT:      -7.2      4.370      7.329
REMARK  4 active torsions:
REMARK  status: ('A' for Active; 'I' for Inactive)
REMARK    1  A    between atoms: C1_2  and  C2_3 
REMARK    2  A    between atoms: C2_3  and  C3_4 
REMARK    3  A    between atoms: C4_6  and  C5_7 
REMARK    4  A    between atoms: C8_10  and  C9_11 
ROOT
HETATM    1  C5  UNL     1      24.196  -0.041  53.648  1.00  0.00     0.028 C 
HETATM    2  C6  UNL     1      23.448   0.376  52.644  1.00  0.00     0.033 A 
HETATM    3  C7  UNL     1      23.811   1.422  51.651  1.00  0.00     0.120 A 
HETATM    4  C8  UNL     1      22.590   1.454  50.780  1.00  0.00     0.070 A 
HETATM    5  N2  UNL     1      21.675   0.611  51.156  1.00  0.00    -0.178 NA
HETATM    6  N3  UNL     1      22.145  -0.069  52.284  1.00  0.00    -0.282 N 
HETATM    7  H10 UNL     1      21.635  -0.822  52.829  1.00  0.00     0.189 HD
ENDROOT
BRANCH   1   8
HETATM    8  C4  UNL     1      25.513   0.541  53.855  1.00  0.00     0.023 C 
HETATM    9  C3  UNL     1      26.597  -0.058  53.387  1.00  0.00     0.031 C 
HETATM   10 CL1  UNL     1      26.480  -1.567  52.506  1.00  0.00    -0.087 Cl
BRANCH   9  11
HETATM   11  C2  UNL     1      27.983   0.468  53.555  1.00  0.00     0.071 A 
HETATM   12  C14 UNL     1      28.542   0.109  54.854  1.00  0.00    -0.008 A 
HETATM   13  C15 UNL     1      29.489  -0.607  54.338  1.00  0.00    -0.027 A 
HETATM   14  C16 UNL     1      29.060  -0.347  52.968  1.00  0.00     0.053 A 
BRANCH  11  15
HETATM   15  C1  UNL     1      28.085   1.943  53.350  1.00  0.00     0.251 C 
HETATM   16  O1  UNL     1      28.617   2.686  54.174  1.00  0.00    -0.305 OA
ENDBRANCH  11  15
ENDBRANCH   9  11
ENDBRANCH   1   8
BRANCH   4  17
HETATM   17  C9  UNL     1      22.485   2.361  49.632  1.00  0.00    -0.007 A 
HETATM   18  C10 UNL     1      23.207   3.523  49.510  1.00  0.00     0.032 A 
HETATM   19  C11 UNL     1      23.075   4.349  48.409  1.00  0.00     0.117 A 
HETATM   20  N1  UNL     1      22.223   4.018  47.426  1.00  0.00    -0.273 NA
HETATM   21  C12 UNL     1      21.485   2.886  47.489  1.00  0.00     0.117 A 
HETATM   22  C13 UNL     1      21.618   2.063  48.590  1.00  0.00     0.032 A 
ENDBRANCH   4  17
TORSDOF 4
ENDMDL
MODEL 8
REMARK VINA RESULT:      -7.1      3.730      7.373
REMARK  4 active torsions:
REMARK  status: ('A' for Active; 'I' for Inactive)
REMARK    1  A    between atoms: C1_2  and  C2_3 
REMARK    2  A    between atoms: C2_3  and  C3_4 
REMARK    3  A    between atoms: C4_6  and  C5_7 
REMARK    4  A    between atoms: C8_10  and  C9_11 
ROOT
HETATM    1  C5  UNL     1      23.412  -0.840  54.323  1.00  0.00     0.028 C 
HETATM    2  C6  UNL     1      22.164  -0.701  53.917  1.00  0.00     0.033 A 
HETATM    3  C7  UNL     1      21.720  -0.132  52.617  1.00  0.00     0.120 A 
HETATM    4  C8  UNL     1      20.227  -0.237  52.731  1.00  0.00     0.070 A 
HETATM    5  N2  UNL     1      19.839  -0.758  53.856  1.00  0.00    -0.178 NA
HETATM    6  N3  UNL     1      20.976  -1.058  54.614  1.00  0.00    -0.282 N 
HETATM    7  H10 UNL     1      20.997  -1.493  55.581  1.00  0.00     0.189 HD
ENDROOT
BRANCH   1   8
HETATM    8  C4  UNL     1      24.502  -0.412  53.461  1.00  0.00     0.023 C 
HETATM    9  C3  UNL     1      25.700  -0.158  53.961  1.00  0.00     0.031 C 
HETATM   10 CL1  UNL     1      26.011  -0.326  55.677  1.00  0.00    -0.087 Cl
BRANCH   9  11
HETATM   11  C2  UNL     1      26.871   0.285  53.150  1.00  0.00     0.071 A 
HETATM   12  C14 UNL     1      26.510   0.495  51.752  1.00  0.00    -0.008 A 
HETATM   13  C15 UNL     1      26.782   1.760  51.789  1.00  0.00    -0.027 A 
HETATM   14  C16 UNL     1      27.181   1.724  53.191  1.00  0.00     0.053 A 
BRANCH  11  15
HETATM   15  C1  UNL     1      28.037  -0.644  53.237  1.00  0.00     0.251 C 
HETATM   16  O1  UNL     1      27.912  -1.865  53.161  1.00  0.00    -0.305 OA
ENDBRANCH  11  15
ENDBRANCH   9  11
ENDBRANCH   1   8
BRANCH   4  17
HETATM   17  C9  UNL     1      19.338   0.215  51.655  1.00  0.00    -0.007 A 
HETATM   18  C10 UNL     1      19.690   1.155  50.719  1.00  0.00     0.032 A 
HETATM   19  C11 UNL     1      18.819   1.551  49.723  1.00  0.00     0.117 A 
HETATM   20  N1  UNL     1      17.592   1.011  49.656  1.00  0.00    -0.273 NA
HETATM   21  C12 UNL     1      17.188   0.078  50.549  1.00  0.00     0.117 A 
HETATM   22  C13 UNL     1      18.060  -0.316  51.545  1.00  0.00     0.032 A 
ENDBRANCH   4  17
TORSDOF 4
ENDMDL
MODEL 9
REMARK VINA RESULT:      -7.1      5.522      7.943
REMARK  4 active torsions:
REMARK  status: ('A' for Active; 'I' for Inactive)
REMARK    1  A    between atoms: C1_2  and  C2_3 
REMARK    2  A    between atoms: C2_3  and  C3_4 
REMARK    3  A    between atoms: C4_6  and  C5_7 
REMARK    4  A    between atoms: C8_10  and  C9_11 
ROOT
HETATM    1  C5  UNL     1      24.910   3.151  50.490  1.00  0.00     0.028 C 
HETATM    2  C6  UNL     1      25.432   4.150  49.801  1.00  0.00     0.033 A 
HETATM    3  C7  UNL     1      26.868   4.330  49.463  1.00  0.00     0.120 A 
HETATM    4  C8  UNL     1      26.841   5.614  48.688  1.00  0.00     0.070 A 
HETATM    5  N2  UNL     1      25.648   6.114  48.574  1.00  0.00    -0.178 NA
HETATM    6  N3  UNL     1      24.753   5.263  49.232  1.00  0.00    -0.282 N 
HETATM    7  H10 UNL     1      23.705   5.392  49.321  1.00  0.00     0.189 HD
ENDROOT
BRANCH   1   8
HETATM    8  C4  UNL     1      25.774   2.096  50.993  1.00  0.00     0.023 C 
HETATM    9  C3  UNL     1      25.834   1.831  52.289  1.00  0.00     0.031 C 
HETATM   10 CL1  UNL     1      24.876   2.744  53.436  1.00  0.00    -0.087 Cl
BRANCH   9  11
HETATM   11  C2  UNL     1      26.691   0.769  52.889  1.00  0.00     0.071 A 
HETATM   12  C14 UNL     1      25.997   0.053  53.955  1.00  0.00    -0.008 A 
HETATM   13  C15 UNL     1      26.028  -1.077  53.325  1.00  0.00    -0.027 A 
HETATM   14  C16 UNL     1      26.727  -0.517  52.173  1.00  0.00     0.053 A 
BRANCH  11  15
HETATM   15  C1  UNL     1      28.001   1.279  53.394  1.00  0.00     0.251 C 
HETATM   16  O1  UNL     1      28.236   1.414  54.594  1.00  0.00    -0.305 OA
ENDBRANCH  11  15
ENDBRANCH   9  11
ENDBRANCH   1   8
BRANCH   4  17
HETATM   17  C9  UNL     1      28.064   6.207  48.134  1.00  0.00    -0.007 A 
HETATM   18  C10 UNL     1      28.105   7.432  47.515  1.00  0.00     0.032 A 
HETATM   19  C11 UNL     1      29.281   7.950  47.007  1.00  0.00     0.117 A 
HETATM   20  N1  UNL     1      30.420   7.250  47.115  1.00  0.00    -0.273 NA
HETATM   21  C12 UNL     1      30.443   6.037  47.715  1.00  0.00     0.117 A 
HETATM   22  C13 UNL     1      29.267   5.520  48.221  1.00  0.00     0.032 A 
ENDBRANCH   4  17
TORSDOF 4
ENDMDL
