MODEL 1
REMARK VINA RESULT:      -7.2      0.000      0.000
REMARK  9 active torsions:
REMARK  status: ('A' for Active; 'I' for Inactive)
REMARK    1  A    between atoms: C2_2  and  N1_3 
REMARK    2  A    between atoms: N1_3  and  C4_5 
REMARK    3  A    between atoms: C4_5  and  N2_6 
REMARK    4  A    between atoms: N2_6  and  C5_7 
REMARK    5  A    between atoms: N2_6  and  S1_15 
REMARK    6  A    between atoms: C5_7  and  C6_8 
REMARK    7  A    between atoms: C10_13  and  O1_14 
REMARK    8  A    between atoms: S1_15  and  C11_16 
REMARK    9  A    between atoms: C11_16  and  C12_17 
ROOT
HETATM    1  N2  UNL     1      26.561   0.400  53.385  1.00  0.00    -0.240 NA
ENDROOT
BRANCH   1   2
HETATM    2  C4  UNL     1      27.578   0.359  54.377  1.00  0.00     0.225 C 
BRANCH   2   3
HETATM    3  N1  UNL     1      28.891   0.743  54.063  1.00  0.00    -0.382 N 
HETATM    4  C3  UNL     1      29.312   2.149  54.241  1.00  0.00     0.150 C 
BRANCH   3   5
HETATM    5  C2  UNL     1      29.935  -0.073  53.570  1.00  0.00     0.076 C 
HETATM    6  C1  UNL     1      29.731  -1.380  53.641  1.00  0.00     0.029 C 
ENDBRANCH   3   5
ENDBRANCH   2   3
ENDBRANCH   1   2
BRANCH   1   7
HETATM    7  C5  UNL     1      27.026   0.543  52.032  1.00  0.00     0.119 C 
BRANCH   7   8
HETATM    8  C6  UNL     1      26.406   1.746  51.442  1.00  0.00     0.038 A 
HETATM    9  C7  UNL     1      26.512   2.806  50.670  1.00  0.00     0.058 A 
HETATM   10  C8  UNL     1      26.187   4.027  49.950  1.00  0.00     0.002 A 
HETATM   11  C10 UNL     1      25.194   2.610  51.402  1.00  0.00     0.102 A 
HETATM   12 BR1  UNL     1      27.233   5.082  48.774  1.00  0.00    -0.055 Br
HETATM   13  C9  UNL     1      25.037   3.854  50.554  1.00  0.00     0.028 A 
BRANCH  11  14
HETATM   14  O1  UNL     1      25.129   3.219  52.750  1.00  0.00    -0.384 OA
HETATM   15  H12 UNL     1      25.956   3.768  52.842  1.00  0.00     0.211 HD
ENDBRANCH  11  14
ENDBRANCH   7   8
ENDBRANCH   1   7
BRANCH   1  16
HETATM   16  S1  UNL     1      25.586  -1.091  53.517  1.00  0.00    -0.076 SA
BRANCH  16  17
HETATM   17  C11 UNL     1      24.288  -0.821  54.718  1.00  0.00     0.130 C 
BRANCH  17  18
HETATM   18  C12 UNL     1      22.929  -0.646  54.093  1.00  0.00    -0.048 A 
HETATM   19  C13 UNL     1      21.729  -1.122  54.589  1.00  0.00     0.011 A 
HETATM   20  C14 UNL     1      20.573  -0.866  53.870  1.00  0.00     0.043 A 
HETATM   21  C15 UNL     1      20.549  -0.155  52.676  1.00  0.00     0.116 A 
HETATM   22  F1  UNL     1      19.396   0.070  52.008  1.00  0.00    -0.206 F 
HETATM   23  C16 UNL     1      21.752   0.322  52.180  1.00  0.00     0.043 A 
HETATM   24  C17 UNL     1      22.880   0.066  52.890  1.00  0.00     0.011 A 
ENDBRANCH  17  18
ENDBRANCH  16  17
ENDBRANCH   1  16
TORSDOF 9
ENDMDL
MODEL 2
REMARK VINA RESULT:      -7.2      2.222      3.101
REMARK  9 active torsions:
REMARK  status: ('A' for Active; 'I' for Inactive)
REMARK    1  A    between atoms: C2_2  and  N1_3 
REMARK    2  A    between atoms: N1_3  and  C4_5 
REMARK    3  A    between atoms: C4_5  and  N2_6 
REMARK    4  A    between atoms: N2_6  and  C5_7 
REMARK    5  A    between atoms: N2_6  and  S1_15 
REMARK    6  A    between atoms: C5_7  and  C6_8 
REMARK    7  A    between atoms: C10_13  and  O1_14 
REMARK    8  A    between atoms: S1_15  and  C11_16 
REMARK    9  A    between atoms: C11_16  and  C12_17 
ROOT
HETATM    1  N2  UNL     1      26.083   2.789  51.255  1.00  0.00    -0.240 NA
ENDROOT
BRANCH   1   2
HETATM    2  C4  UNL     1      26.801   1.584  51.478  1.00  0.00     0.225 C 
BRANCH   2   3
HETATM    3  N1  UNL     1      27.368   1.317  52.734  1.00  0.00    -0.382 N 
HETATM    4  C3  UNL     1      28.260   2.311  53.368  1.00  0.00     0.150 C 
BRANCH   3   5
HETATM    5  C2  UNL     1      27.197   0.162  53.531  1.00  0.00     0.076 C 
HETATM    6  C1  UNL     1      27.056  -0.979  52.874  1.00  0.00     0.029 C 
ENDBRANCH   3   5
ENDBRANCH   2   3
ENDBRANCH   1   2
BRANCH   1   7
HETATM    7  C5  UNL     1      25.634   2.997  49.904  1.00  0.00     0.119 C 
BRANCH   7   8
HETATM    8  C6  UNL     1      26.328   4.177  49.350  1.00  0.00     0.038 A 
HETATM    9  C7  UNL     1      27.435   4.727  48.902  1.00  0.00     0.058 A 
HETATM   10  C8  UNL     1      28.372   5.695  48.356  1.00  0.00     0.002 A 
HETATM   11  C10 UNL     1      26.205   5.615  48.983  1.00  0.00     0.102 A 
HETATM   12 BR1  UNL     1      30.211   5.529  47.928  1.00  0.00    -0.055 Br
HETATM   13  C9  UNL     1      27.311   6.463  48.395  1.00  0.00     0.028 A 
BRANCH  11  14
HETATM   14  O1  UNL     1      26.018   6.312  50.277  1.00  0.00    -0.384 OA
HETATM   15  H12 UNL     1      26.777   6.954  50.352  1.00  0.00     0.211 HD
ENDBRANCH  11  14
ENDBRANCH   7   8
ENDBRANCH   1   7
BRANCH   1  16
HETATM   16  S1  UNL     1      24.673   2.816  52.352  1.00  0.00    -0.076 SA
BRANCH  16  17
HETATM   17  C11 UNL     1      23.297   2.018  51.534  1.00  0.00     0.130 C 
BRANCH  17  18
HETATM   18  C12 UNL     1      22.656   0.940  52.367  1.00  0.00    -0.048 A 
HETATM   19  C13 UNL     1      21.323   0.573  52.353  1.00  0.00     0.011 A 
HETATM   20  C14 UNL     1      20.912  -0.445  53.197  1.00  0.00     0.043 A 
HETATM   21  C15 UNL     1      21.766  -1.123  54.061  1.00  0.00     0.116 A 
HETATM   22  F1  UNL     1      21.320  -2.110  54.868  1.00  0.00    -0.206 F 
HETATM   23  C16 UNL     1      23.102  -0.754  54.074  1.00  0.00     0.043 A 
HETATM   24  C17 UNL     1      23.495   0.244  53.244  1.00  0.00     0.011 A 
ENDBRANCH  17  18
ENDBRANCH  16  17
ENDBRANCH   1  16
TORSDOF 9
ENDMDL
MODEL 3
REMARK VINA RESULT:      -7.1      3.031      4.821
REMARK  9 active torsions:
REMARK  status: ('A' for Active; 'I' for Inactive)
REMARK    1  A    between atoms: C2_2  and  N1_3 
REMARK    2  A    between atoms: N1_3  and  C4_5 
REMARK    3  A    between atoms: C4_5  and  N2_6 
REMARK    4  A    between atoms: N2_6  and  C5_7 
REMARK    5  A    between atoms: N2_6  and  S1_15 
REMARK    6  A    between atoms: C5_7  and  C6_8 
REMARK    7  A    between atoms: C10_13  and  O1_14 
REMARK    8  A    between atoms: S1_15  and  C11_16 
REMARK    9  A    between atoms: C11_16  and  C12_17 
ROOT
HETATM    1  N2  UNL     1      24.590   3.006  50.326  1.00  0.00    -0.240 NA
ENDROOT
BRANCH   1   2
HETATM    2  C4  UNL     1      24.638   4.157  49.495  1.00  0.00     0.225 C 
BRANCH   2   3
HETATM    3  N1  UNL     1      25.840   4.861  49.325  1.00  0.00    -0.382 N 
HETATM    4  C3  UNL     1      25.858   6.334  49.445  1.00  0.00     0.150 C 
BRANCH   3   5
HETATM    5  C2  UNL     1      27.118   4.329  49.037  1.00  0.00     0.076 C 
HETATM    6  C1  UNL     1      27.990   5.170  48.503  1.00  0.00     0.029 C 
ENDBRANCH   3   5
ENDBRANCH   2   3
ENDBRANCH   1   2
BRANCH   1   7
HETATM    7  C5  UNL     1      24.910   3.233  51.710  1.00  0.00     0.119 C 
BRANCH   7   8
HETATM    8  C6  UNL     1      25.978   2.295  52.110  1.00  0.00     0.038 A 
HETATM    9  C7  UNL     1      26.378   1.057  52.305  1.00  0.00     0.058 A 
HETATM   10  C8  UNL     1      27.209  -0.089  52.634  1.00  0.00     0.002 A 
HETATM   11  C10 UNL     1      27.362   2.164  52.645  1.00  0.00     0.102 A 
HETATM   12 BR1  UNL     1      26.835  -1.946  52.568  1.00  0.00    -0.055 Br
HETATM   13  C9  UNL     1      28.076   0.856  52.905  1.00  0.00     0.028 A 
BRANCH  11  14
HETATM   14  O1  UNL     1      27.273   2.678  54.031  1.00  0.00    -0.384 OA
HETATM   15  H12 UNL     1      27.002   1.901  54.593  1.00  0.00     0.211 HD
ENDBRANCH  11  14
ENDBRANCH   7   8
ENDBRANCH   1   7
BRANCH   1  16
HETATM   16  S1  UNL     1      22.956   2.294  50.210  1.00  0.00    -0.076 SA
BRANCH  16  17
HETATM   17  C11 UNL     1      22.120   2.523  51.775  1.00  0.00     0.130 C 
BRANCH  17  18
HETATM   18  C12 UNL     1      21.965   1.246  52.557  1.00  0.00    -0.048 A 
HETATM   19  C13 UNL     1      22.886   0.219  52.645  1.00  0.00     0.011 A 
HETATM   20  C14 UNL     1      22.565  -0.888  53.413  1.00  0.00     0.043 A 
HETATM   21  C15 UNL     1      21.367  -1.027  54.104  1.00  0.00     0.116 A 
HETATM   22  F1  UNL     1      21.096  -2.126  54.841  1.00  0.00    -0.206 F 
HETATM   23  C16 UNL     1      20.444   0.003  54.015  1.00  0.00     0.043 A 
HETATM   24  C17 UNL     1      20.766   1.084  53.260  1.00  0.00     0.011 A 
ENDBRANCH  17  18
ENDBRANCH  16  17
ENDBRANCH   1  16
TORSDOF 9
ENDMDL
MODEL 4
REMARK VINA RESULT:      -6.9      3.738      6.895
REMARK  9 active torsions:
REMARK  status: ('A' for Active; 'I' for Inactive)
REMARK    1  A    between atoms: C2_2  and  N1_3 
REMARK    2  A    between atoms: N1_3  and  C4_5 
REMARK    3  A    between atoms: C4_5  and  N2_6 
REMARK    4  A    between atoms: N2_6  and  C5_7 
REMARK    5  A    between atoms: N2_6  and  S1_15 
REMARK    6  A    between atoms: C5_7  and  C6_8 
REMARK    7  A    between atoms: C10_13  and  O1_14 
REMARK    8  A    between atoms: S1_15  and  C11_16 
REMARK    9  A    between atoms: C11_16  and  C12_17 
ROOT
HETATM    1  N2  UNL     1      23.905   1.824  52.774  1.00  0.00    -0.240 NA
ENDROOT
BRANCH   1   2
HETATM    2  C4  UNL     1      22.675   1.251  53.196  1.00  0.00     0.225 C 
BRANCH   2   3
HETATM    3  N1  UNL     1      21.591   1.163  52.309  1.00  0.00    -0.382 N 
HETATM    4  C3  UNL     1      20.384   1.985  52.534  1.00  0.00     0.150 C 
BRANCH   3   5
HETATM    5  C2  UNL     1      21.483   0.350  51.157  1.00  0.00     0.076 C 
HETATM    6  C1  UNL     1      20.902   0.909  50.106  1.00  0.00     0.029 C 
ENDBRANCH   3   5
ENDBRANCH   2   3
ENDBRANCH   1   2
BRANCH   1   7
HETATM    7  C5  UNL     1      24.764   0.951  52.020  1.00  0.00     0.119 C 
BRANCH   7   8
HETATM    8  C6  UNL     1      26.157   1.151  52.470  1.00  0.00     0.038 A 
HETATM    9  C7  UNL     1      27.304   0.634  52.850  1.00  0.00     0.058 A 
HETATM   10  C8  UNL     1      28.682   0.511  53.297  1.00  0.00     0.002 A 
HETATM   11  C10 UNL     1      27.189   2.149  52.864  1.00  0.00     0.102 A 
HETATM   12 BR1  UNL     1      29.742  -1.026  53.626  1.00  0.00    -0.055 Br
HETATM   13  C9  UNL     1      28.604   1.819  53.286  1.00  0.00     0.028 A 
BRANCH  11  14
HETATM   14  O1  UNL     1      26.681   2.728  54.128  1.00  0.00    -0.384 OA
HETATM   15  H12 UNL     1      25.803   2.288  54.297  1.00  0.00     0.211 HD
ENDBRANCH  11  14
ENDBRANCH   7   8
ENDBRANCH   1   7
BRANCH   1  16
HETATM   16  S1  UNL     1      23.545   3.278  51.800  1.00  0.00    -0.076 SA
BRANCH  16  17
HETATM   17  C11 UNL     1      23.983   2.947  50.097  1.00  0.00     0.130 C 
BRANCH  17  18
HETATM   18  C12 UNL     1      25.102   3.819  49.593  1.00  0.00    -0.048 A 
HETATM   19  C13 UNL     1      26.431   3.459  49.464  1.00  0.00     0.011 A 
HETATM   20  C14 UNL     1      27.323   4.403  48.983  1.00  0.00     0.043 A 
HETATM   21  C15 UNL     1      26.960   5.695  48.620  1.00  0.00     0.116 A 
HETATM   22  F1  UNL     1      27.867   6.582  48.157  1.00  0.00    -0.206 F 
HETATM   23  C16 UNL     1      25.628   6.055  48.750  1.00  0.00     0.043 A 
HETATM   24  C17 UNL     1      24.760   5.125  49.222  1.00  0.00     0.011 A 
ENDBRANCH  17  18
ENDBRANCH  16  17
ENDBRANCH   1  16
TORSDOF 9
ENDMDL
MODEL 5
REMARK VINA RESULT:      -6.9      3.634      5.760
REMARK  9 active torsions:
REMARK  status: ('A' for Active; 'I' for Inactive)
REMARK    1  A    between atoms: C2_2  and  N1_3 
REMARK    2  A    between atoms: N1_3  and  C4_5 
REMARK    3  A    between atoms: C4_5  and  N2_6 
REMARK    4  A    between atoms: N2_6  and  C5_7 
REMARK    5  A    between atoms: N2_6  and  S1_15 
REMARK    6  A    between atoms: C5_7  and  C6_8 
REMARK    7  A    between atoms: C10_13  and  O1_14 
REMARK    8  A    between atoms: S1_15  and  C11_16 
REMARK    9  A    between atoms: C11_16  and  C12_17 
ROOT
HETATM    1  N2  UNL     1      22.751   3.486  51.043  1.00  0.00    -0.240 NA
ENDROOT
BRANCH   1   2
HETATM    2  C4  UNL     1      22.553   4.222  49.844  1.00  0.00     0.225 C 
BRANCH   2   3
HETATM    3  N1  UNL     1      21.902   3.633  48.749  1.00  0.00    -0.382 N 
HETATM    4  C3  UNL     1      20.677   4.251  48.199  1.00  0.00     0.150 C 
BRANCH   3   5
HETATM    5  C2  UNL     1      22.274   2.461  48.051  1.00  0.00     0.076 C 
HETATM    6  C1  UNL     1      21.648   1.350  48.410  1.00  0.00     0.029 C 
ENDBRANCH   3   5
ENDBRANCH   2   3
ENDBRANCH   1   2
BRANCH   1   7
HETATM    7  C5  UNL     1      23.793   3.978  51.903  1.00  0.00     0.119 C 
BRANCH   7   8
HETATM    8  C6  UNL     1      24.828   2.933  52.041  1.00  0.00     0.038 A 
HETATM    9  C7  UNL     1      25.446   2.050  52.795  1.00  0.00     0.058 A 
HETATM   10  C8  UNL     1      26.356   1.004  53.232  1.00  0.00     0.002 A 
HETATM   11  C10 UNL     1      25.946   2.215  51.370  1.00  0.00     0.102 A 
HETATM   12 BR1  UNL     1      26.532   0.141  54.910  1.00  0.00    -0.055 Br
HETATM   13  C9  UNL     1      26.780   1.118  51.997  1.00  0.00     0.028 A 
BRANCH  11  14
HETATM   14  O1  UNL     1      26.993   3.247  51.189  1.00  0.00    -0.384 OA
HETATM   15  H12 UNL     1      26.507   4.103  51.029  1.00  0.00     0.211 HD
ENDBRANCH  11  14
ENDBRANCH   7   8
ENDBRANCH   1   7
BRANCH   1  16
HETATM   16  S1  UNL     1      21.210   3.456  51.947  1.00  0.00    -0.076 SA
BRANCH  16  17
HETATM   17  C11 UNL     1      20.540   1.798  51.879  1.00  0.00     0.130 C 
BRANCH  17  18
HETATM   18  C12 UNL     1      21.291   0.820  52.742  1.00  0.00    -0.048 A 
HETATM   19  C13 UNL     1      22.444   0.138  52.400  1.00  0.00     0.011 A 
HETATM   20  C14 UNL     1      22.995  -0.730  53.328  1.00  0.00     0.043 A 
HETATM   21  C15 UNL     1      22.454  -0.956  54.589  1.00  0.00     0.116 A 
HETATM   22  F1  UNL     1      23.025  -1.814  55.462  1.00  0.00    -0.206 F 
HETATM   23  C16 UNL     1      21.298  -0.273  54.931  1.00  0.00     0.043 A 
HETATM   24  C17 UNL     1      20.765   0.576  54.016  1.00  0.00     0.011 A 
ENDBRANCH  17  18
ENDBRANCH  16  17
ENDBRANCH   1  16
TORSDOF 9
ENDMDL
MODEL 6
REMARK VINA RESULT:      -6.8      3.874      6.873
REMARK  9 active torsions:
REMARK  status: ('A' for Active; 'I' for Inactive)
REMARK    1  A    between atoms: C2_2  and  N1_3 
REMARK    2  A    between atoms: N1_3  and  C4_5 
REMARK    3  A    between atoms: C4_5  and  N2_6 
REMARK    4  A    between atoms: N2_6  and  C5_7 
REMARK    5  A    between atoms: N2_6  and  S1_15 
REMARK    6  A    between atoms: C5_7  and  C6_8 
REMARK    7  A    between atoms: C10_13  and  O1_14 
REMARK    8  A    between atoms: S1_15  and  C11_16 
REMARK    9  A    between atoms: C11_16  and  C12_17 
ROOT
HETATM    1  N2  UNL     1      24.752   2.864  51.671  1.00  0.00    -0.240 NA
ENDROOT
BRANCH   1   2
HETATM    2  C4  UNL     1      23.855   2.350  50.696  1.00  0.00     0.225 C 
BRANCH   2   3
HETATM    3  N1  UNL     1      22.712   3.079  50.330  1.00  0.00    -0.382 N 
HETATM    4  C3  UNL     1      22.815   4.528  50.061  1.00  0.00     0.150 C 
BRANCH   3   5
HETATM    5  C2  UNL     1      21.394   2.593  50.170  1.00  0.00     0.076 C 
HETATM    6  C1  UNL     1      21.284   1.344  49.745  1.00  0.00     0.029 C 
ENDBRANCH   3   5
ENDBRANCH   2   3
ENDBRANCH   1   2
BRANCH   1   7
HETATM    7  C5  UNL     1      24.418   2.560  53.036  1.00  0.00     0.119 C 
BRANCH   7   8
HETATM    8  C6  UNL     1      23.678   1.282  53.071  1.00  0.00     0.038 A 
HETATM    9  C7  UNL     1      22.529   0.645  53.138  1.00  0.00     0.058 A 
HETATM   10  C8  UNL     1      21.544  -0.423  53.188  1.00  0.00     0.002 A 
HETATM   11  C10 UNL     1      23.791  -0.202  53.116  1.00  0.00     0.102 A 
HETATM   12 BR1  UNL     1      19.652  -0.355  53.277  1.00  0.00    -0.055 Br
HETATM   13  C9  UNL     1      22.623  -1.165  53.142  1.00  0.00     0.028 A 
BRANCH  11  14
HETATM   14  O1  UNL     1      24.377  -0.488  54.445  1.00  0.00    -0.384 OA
HETATM   15  H12 UNL     1      23.611  -0.727  55.036  1.00  0.00     0.211 HD
ENDBRANCH  11  14
ENDBRANCH   7   8
ENDBRANCH   1   7
BRANCH   1  16
HETATM   16  S1  UNL     1      26.388   2.240  51.314  1.00  0.00    -0.076 SA
BRANCH  16  17
HETATM   17  C11 UNL     1      27.326   2.194  52.837  1.00  0.00     0.130 C 
BRANCH  17  18
HETATM   18  C12 UNL     1      28.000   0.870  53.079  1.00  0.00    -0.048 A 
HETATM   19  C13 UNL     1      29.251   0.674  53.634  1.00  0.00     0.011 A 
HETATM   20  C14 UNL     1      29.711  -0.625  53.776  1.00  0.00     0.043 A 
HETATM   21  C15 UNL     1      28.985  -1.747  53.392  1.00  0.00     0.116 A 
HETATM   22  F1  UNL     1      29.475  -2.996  53.548  1.00  0.00    -0.206 F 
HETATM   23  C16 UNL     1      27.731  -1.549  52.835  1.00  0.00     0.043 A 
HETATM   24  C17 UNL     1      27.288  -0.274  52.700  1.00  0.00     0.011 A 
ENDBRANCH  17  18
ENDBRANCH  16  17
ENDBRANCH   1  16
TORSDOF 9
ENDMDL
MODEL 7
REMARK VINA RESULT:      -6.8      3.946      6.672
REMARK  9 active torsions:
REMARK  status: ('A' for Active; 'I' for Inactive)
REMARK    1  A    between atoms: C2_2  and  N1_3 
REMARK    2  A    between atoms: N1_3  and  C4_5 
REMARK    3  A    between atoms: C4_5  and  N2_6 
REMARK    4  A    between atoms: N2_6  and  C5_7 
REMARK    5  A    between atoms: N2_6  and  S1_15 
REMARK    6  A    between atoms: C5_7  and  C6_8 
REMARK    7  A    between atoms: C10_13  and  O1_14 
REMARK    8  A    between atoms: S1_15  and  C11_16 
REMARK    9  A    between atoms: C11_16  and  C12_17 
ROOT
HETATM    1  N2  UNL     1      25.632   1.991  52.612  1.00  0.00    -0.240 NA
ENDROOT
BRANCH   1   2
HETATM    2  C4  UNL     1      26.457   1.962  53.768  1.00  0.00     0.225 C 
BRANCH   2   3
HETATM    3  N1  UNL     1      26.836   0.738  54.340  1.00  0.00    -0.382 N 
HETATM    4  C3  UNL     1      25.816  -0.294  54.619  1.00  0.00     0.150 C 
BRANCH   3   5
HETATM    5  C2  UNL     1      28.137   0.324  54.709  1.00  0.00     0.076 C 
HETATM    6  C1  UNL     1      28.760  -0.465  53.847  1.00  0.00     0.029 C 
ENDBRANCH   3   5
ENDBRANCH   2   3
ENDBRANCH   1   2
BRANCH   1   7
HETATM    7  C5  UNL     1      24.456   2.813  52.715  1.00  0.00     0.119 C 
BRANCH   7   8
HETATM    8  C6  UNL     1      23.263   1.947  52.635  1.00  0.00     0.038 A 
HETATM    9  C7  UNL     1      22.608   0.887  53.058  1.00  0.00     0.058 A 
HETATM   10  C8  UNL     1      21.581  -0.130  53.211  1.00  0.00     0.002 A 
HETATM   11  C10 UNL     1      21.982   1.681  51.924  1.00  0.00     0.102 A 
HETATM   12 BR1  UNL     1      21.481  -1.617  54.382  1.00  0.00    -0.055 Br
HETATM   13  C9  UNL     1      21.018   0.562  52.251  1.00  0.00     0.028 A 
BRANCH  11  14
HETATM   14  O1  UNL     1      22.394   1.263  50.564  1.00  0.00    -0.384 OA
HETATM   15  H12 UNL     1      21.812   1.770  49.934  1.00  0.00     0.211 HD
ENDBRANCH  11  14
ENDBRANCH   7   8
ENDBRANCH   1   7
BRANCH   1  16
HETATM   16  S1  UNL     1      26.618   2.546  51.229  1.00  0.00    -0.076 SA
BRANCH  16  17
HETATM   17  C11 UNL     1      25.525   3.216  49.981  1.00  0.00     0.130 C 
BRANCH  17  18
HETATM   18  C12 UNL     1      26.048   4.481  49.354  1.00  0.00    -0.048 A 
HETATM   19  C13 UNL     1      25.334   5.644  49.132  1.00  0.00     0.011 A 
HETATM   20  C14 UNL     1      25.985   6.711  48.535  1.00  0.00     0.043 A 
HETATM   21  C15 UNL     1      27.319   6.681  48.145  1.00  0.00     0.116 A 
HETATM   22  F1  UNL     1      27.912   7.747  47.564  1.00  0.00    -0.206 F 
HETATM   23  C16 UNL     1      28.034   5.515  48.367  1.00  0.00     0.043 A 
HETATM   24  C17 UNL     1      27.388   4.474  48.952  1.00  0.00     0.011 A 
ENDBRANCH  17  18
ENDBRANCH  16  17
ENDBRANCH   1  16
TORSDOF 9
ENDMDL
MODEL 8
REMARK VINA RESULT:      -6.7      3.680      6.932
REMARK  9 active torsions:
REMARK  status: ('A' for Active; 'I' for Inactive)
REMARK    1  A    between atoms: C2_2  and  N1_3 
REMARK    2  A    between atoms: N1_3  and  C4_5 
REMARK    3  A    between atoms: C4_5  and  N2_6 
REMARK    4  A    between atoms: N2_6  and  C5_7 
REMARK    5  A    between atoms: N2_6  and  S1_15 
REMARK    6  A    between atoms: C5_7  and  C6_8 
REMARK    7  A    between atoms: C10_13  and  O1_14 
REMARK    8  A    between atoms: S1_15  and  C11_16 
REMARK    9  A    between atoms: C11_16  and  C12_17 
ROOT
HETATM    1  N2  UNL     1      23.868   1.382  52.514  1.00  0.00    -0.240 NA
ENDROOT
BRANCH   1   2
HETATM    2  C4  UNL     1      22.641   0.699  52.302  1.00  0.00     0.225 C 
BRANCH   2   3
HETATM    3  N1  UNL     1      21.769   0.454  53.375  1.00  0.00    -0.382 N 
HETATM    4  C3  UNL     1      20.459   1.134  53.432  1.00  0.00     0.150 C 
BRANCH   3   5
HETATM    5  C2  UNL     1      21.979  -0.405  54.478  1.00  0.00     0.076 C 
HETATM    6  C1  UNL     1      21.292  -1.538  54.469  1.00  0.00     0.029 C 
ENDBRANCH   3   5
ENDBRANCH   2   3
ENDBRANCH   1   2
BRANCH   1   7
HETATM    7  C5  UNL     1      25.025   0.767  51.921  1.00  0.00     0.119 C 
BRANCH   7   8
HETATM    8  C6  UNL     1      26.018   0.501  52.983  1.00  0.00     0.038 A 
HETATM    9  C7  UNL     1      27.241   0.158  53.322  1.00  0.00     0.058 A 
HETATM   10  C8  UNL     1      28.414  -0.160  54.121  1.00  0.00     0.002 A 
HETATM   11  C10 UNL     1      26.247   0.386  54.449  1.00  0.00     0.102 A 
HETATM   12 BR1  UNL     1      30.173  -0.632  53.597  1.00  0.00    -0.055 Br
HETATM   13  C9  UNL     1      27.573   0.061  55.102  1.00  0.00     0.028 A 
BRANCH  11  14
HETATM   14  O1  UNL     1      25.472  -0.809  54.853  1.00  0.00    -0.384 OA
HETATM   15  H12 UNL     1      24.682  -0.465  55.354  1.00  0.00     0.211 HD
ENDBRANCH  11  14
ENDBRANCH   7   8
ENDBRANCH   1   7
BRANCH   1  16
HETATM   16  S1  UNL     1      23.703   3.047  51.888  1.00  0.00    -0.076 SA
BRANCH  16  17
HETATM   17  C11 UNL     1      23.895   3.010  50.110  1.00  0.00     0.130 C 
BRANCH  17  18
HETATM   18  C12 UNL     1      24.905   4.004  49.603  1.00  0.00    -0.048 A 
HETATM   19  C13 UNL     1      24.663   5.324  49.267  1.00  0.00     0.011 A 
HETATM   20  C14 UNL     1      25.723   6.091  48.811  1.00  0.00     0.043 A 
HETATM   21  C15 UNL     1      27.020   5.610  48.671  1.00  0.00     0.116 A 
HETATM   22  F1  UNL     1      28.022   6.395  48.221  1.00  0.00    -0.206 F 
HETATM   23  C16 UNL     1      27.261   4.287  49.007  1.00  0.00     0.043 A 
HETATM   24  C17 UNL     1      26.218   3.543  49.453  1.00  0.00     0.011 A 
ENDBRANCH  17  18
ENDBRANCH  16  17
ENDBRANCH   1  16
TORSDOF 9
ENDMDL
MODEL 9
REMARK VINA RESULT:      -6.6      3.570      5.655
REMARK  9 active torsions:
REMARK  status: ('A' for Active; 'I' for Inactive)
REMARK    1  A    between atoms: C2_2  and  N1_3 
REMARK    2  A    between atoms: N1_3  and  C4_5 
REMARK    3  A    between atoms: C4_5  and  N2_6 
REMARK    4  A    between atoms: N2_6  and  C5_7 
REMARK    5  A    between atoms: N2_6  and  S1_15 
REMARK    6  A    between atoms: C5_7  and  C6_8 
REMARK    7  A    between atoms: C10_13  and  O1_14 
REMARK    8  A    between atoms: S1_15  and  C11_16 
REMARK    9  A    between atoms: C11_16  and  C12_17 
ROOT
HETATM    1  N2  UNL     1      22.768   3.651  50.972  1.00  0.00    -0.240 NA
ENDROOT
BRANCH   1   2
HETATM    2  C4  UNL     1      22.531   4.585  49.929  1.00  0.00     0.225 C 
BRANCH   2   3
HETATM    3  N1  UNL     1      22.711   5.960  50.152  1.00  0.00    -0.382 N 
HETATM    4  C3  UNL     1      21.671   6.735  50.859  1.00  0.00     0.150 C 
BRANCH   3   5
HETATM    5  C2  UNL     1      23.815   6.758  49.773  1.00  0.00     0.076 C 
HETATM    6  C1  UNL     1      24.380   7.462  50.742  1.00  0.00     0.029 C 
ENDBRANCH   3   5
ENDBRANCH   2   3
ENDBRANCH   1   2
BRANCH   1   7
HETATM    7  C5  UNL     1      23.743   4.054  51.950  1.00  0.00     0.119 C 
BRANCH   7   8
HETATM    8  C6  UNL     1      24.783   3.008  52.041  1.00  0.00     0.038 A 
HETATM    9  C7  UNL     1      25.425   2.116  52.763  1.00  0.00     0.058 A 
HETATM   10  C8  UNL     1      26.350   1.066  53.157  1.00  0.00     0.002 A 
HETATM   11  C10 UNL     1      25.882   2.303  51.326  1.00  0.00     0.102 A 
HETATM   12 BR1  UNL     1      26.577   0.178  54.816  1.00  0.00    -0.055 Br
HETATM   13  C9  UNL     1      26.735   1.198  51.912  1.00  0.00     0.028 A 
BRANCH  11  14
HETATM   14  O1  UNL     1      26.921   3.340  51.129  1.00  0.00    -0.384 OA
HETATM   15  H12 UNL     1      26.572   4.163  51.568  1.00  0.00     0.211 HD
ENDBRANCH  11  14
ENDBRANCH   7   8
ENDBRANCH   1   7
BRANCH   1  16
HETATM   16  S1  UNL     1      21.217   3.319  51.794  1.00  0.00    -0.076 SA
BRANCH  16  17
HETATM   17  C11 UNL     1      20.820   1.587  51.585  1.00  0.00     0.130 C 
BRANCH  17  18
HETATM   18  C12 UNL     1      21.314   0.725  52.716  1.00  0.00    -0.048 A 
HETATM   19  C13 UNL     1      20.690   0.531  53.935  1.00  0.00     0.011 A 
HETATM   20  C14 UNL     1      21.300  -0.300  54.861  1.00  0.00     0.043 A 
HETATM   21  C15 UNL     1      22.506  -0.953  54.635  1.00  0.00     0.116 A 
HETATM   22  F1  UNL     1      23.065  -1.753  55.569  1.00  0.00    -0.206 F 
HETATM   23  C16 UNL     1      23.131  -0.758  53.413  1.00  0.00     0.043 A 
HETATM   24  C17 UNL     1      22.527   0.057  52.512  1.00  0.00     0.011 A 
ENDBRANCH  17  18
ENDBRANCH  16  17
ENDBRANCH   1  16
TORSDOF 9
ENDMDL
