MODEL 1
REMARK VINA RESULT:      -7.7      0.000      0.000
REMARK  11 active torsions:
REMARK  status: ('A' for Active; 'I' for Inactive)
REMARK    1  A    between atoms: O1_2  and  C2_3 
REMARK    2  A    between atoms: C5_6  and  N1_7 
REMARK    3  A    between atoms: N1_7  and  C6_8 
REMARK    4  A    between atoms: N2_9  and  C7_10 
REMARK    5  A    between atoms: C7_10  and  N3_11 
REMARK    6  A    between atoms: N3_11  and  C8_12 
REMARK    7  A    between atoms: C9_13  and  C10_14 
REMARK    8  A    between atoms: C11_15  and  O2_16 
REMARK    9  A    between atoms: C12_17  and  C13_18 
REMARK   10  A    between atoms: C15_20  and  O3_21 
REMARK   11  A    between atoms: C17_23  and  O4_24 
ROOT
HETATM    1  N1  UNL     1      24.880   3.314  52.573  1.00  0.00    -0.354 N 
HETATM    2  H7  UNL     1      25.693   3.926  52.343  1.00  0.00     0.166 HD
ENDROOT
BRANCH   1   3
HETATM    3  C5  UNL     1      23.541   2.899  52.339  1.00  0.00     0.016 C 
HETATM    4  C4  UNL     1      22.816   3.824  51.462  1.00  0.00     0.087 C 
HETATM    5  C3  UNL     1      21.353   3.852  51.731  1.00  0.00     0.019 C 
HETATM    6  C2  UNL     1      20.463   2.995  52.191  1.00  0.00     0.101 C 
HETATM    7  C17 UNL     1      20.777   1.620  52.598  1.00  0.00     0.134 C 
HETATM    8  C15 UNL     1      21.940   1.082  52.931  1.00  0.00     0.106 C 
HETATM    9  C14 UNL     1      23.235   1.754  52.974  1.00  0.00     0.065 C 
BRANCH   6  10
HETATM   10  O1  UNL     1      19.149   3.337  52.324  1.00  0.00    -0.353 OA
HETATM   11  C1  UNL     1      18.256   3.775  51.352  1.00  0.00     0.210 C 
ENDBRANCH   6  10
BRANCH   7  12
HETATM   12  O4  UNL     1      19.665   0.762  52.632  1.00  0.00    -0.351 OA
HETATM   13  C18 UNL     1      19.136   0.116  51.507  1.00  0.00     0.210 C 
ENDBRANCH   7  12
BRANCH   8  14
HETATM   14  O3  UNL     1      21.944  -0.267  53.279  1.00  0.00    -0.353 OA
HETATM   15  C16 UNL     1      21.867  -0.706  54.618  1.00  0.00     0.210 C 
ENDBRANCH   8  14
ENDBRANCH   1   3
BRANCH   1  16
HETATM   16  C6  UNL     1      25.358   2.511  53.637  1.00  0.00     0.208 C 
HETATM   17  N2  UNL     1      26.425   2.054  54.173  1.00  0.00    -0.237 NA
BRANCH  17  18
HETATM   18  C7  UNL     1      27.676   2.392  53.596  1.00  0.00     0.234 C 
BRANCH  18  19
HETATM   19  N3  UNL     1      28.636   1.868  54.315  1.00  0.00    -0.245 NA
BRANCH  19  20
HETATM   20  C8  UNL     1      29.295   0.789  53.928  1.00  0.00     0.052 A 
HETATM   21  C9  UNL     1      28.796  -0.245  53.583  1.00  0.00    -0.016 A 
HETATM   22  C13 UNL     1      30.085  -0.415  53.494  1.00  0.00     0.085 A 
BRANCH  21  23
HETATM   23  C10 UNL     1      28.368  -1.180  53.269  1.00  0.00    -0.024 A 
HETATM   24  C11 UNL     1      27.930  -2.198  52.937  1.00  0.00     0.126 A 
HETATM   25  C12 UNL     1      29.440  -1.915  53.425  1.00  0.00     0.075 A 
BRANCH  24  26
HETATM   26  O2  UNL     1      28.368  -3.476  52.799  1.00  0.00    -0.381 OA
HETATM   27  H10 UNL     1      27.959  -4.254  53.331  1.00  0.00     0.211 HD
ENDBRANCH  24  26
ENDBRANCH  21  23
ENDBRANCH  19  20
ENDBRANCH  18  19
ENDBRANCH  17  18
ENDBRANCH   1  16
TORSDOF 11
ENDMDL
MODEL 2
REMARK VINA RESULT:      -7.5      1.735      2.962
REMARK  11 active torsions:
REMARK  status: ('A' for Active; 'I' for Inactive)
REMARK    1  A    between atoms: O1_2  and  C2_3 
REMARK    2  A    between atoms: C5_6  and  N1_7 
REMARK    3  A    between atoms: N1_7  and  C6_8 
REMARK    4  A    between atoms: N2_9  and  C7_10 
REMARK    5  A    between atoms: C7_10  and  N3_11 
REMARK    6  A    between atoms: N3_11  and  C8_12 
REMARK    7  A    between atoms: C9_13  and  C10_14 
REMARK    8  A    between atoms: C11_15  and  O2_16 
REMARK    9  A    between atoms: C12_17  and  C13_18 
REMARK   10  A    between atoms: C15_20  and  O3_21 
REMARK   11  A    between atoms: C17_23  and  O4_24 
ROOT
HETATM    1  N1  UNL     1      25.350   3.687  51.400  1.00  0.00    -0.354 N 
HETATM    2  H7  UNL     1      25.800   4.628  51.375  1.00  0.00     0.166 HD
ENDROOT
BRANCH   1   3
HETATM    3  C5  UNL     1      24.193   2.874  51.538  1.00  0.00     0.016 C 
HETATM    4  C4  UNL     1      23.893   2.563  52.939  1.00  0.00     0.087 C 
HETATM    5  C3  UNL     1      23.203   1.255  53.108  1.00  0.00     0.019 C 
HETATM    6  C2  UNL     1      22.390   0.517  52.376  1.00  0.00     0.101 C 
HETATM    7  C17 UNL     1      21.925   0.887  51.035  1.00  0.00     0.134 C 
HETATM    8  C15 UNL     1      22.437   1.750  50.171  1.00  0.00     0.106 C 
HETATM    9  C14 UNL     1      23.630   2.569  50.354  1.00  0.00     0.065 C 
BRANCH   6  10
HETATM   10  O1  UNL     1      21.913  -0.677  52.831  1.00  0.00    -0.353 OA
HETATM   11  C1  UNL     1      21.894  -1.176  54.129  1.00  0.00     0.210 C 
ENDBRANCH   6  10
BRANCH   7  12
HETATM   12  O4  UNL     1      20.761   0.215  50.624  1.00  0.00    -0.351 OA
HETATM   13  C18 UNL     1      19.464   0.591  50.999  1.00  0.00     0.210 C 
ENDBRANCH   7  12
BRANCH   8  14
HETATM   14  O3  UNL     1      21.776   1.904  48.954  1.00  0.00    -0.353 OA
HETATM   15  C16 UNL     1      22.461   2.154  47.745  1.00  0.00     0.210 C 
ENDBRANCH   8  14
ENDBRANCH   1   3
BRANCH   1  16
HETATM   16  C6  UNL     1      26.432   2.795  51.200  1.00  0.00     0.208 C 
HETATM   17  N2  UNL     1      27.333   2.127  51.814  1.00  0.00    -0.237 NA
BRANCH  17  18
HETATM   18  C7  UNL     1      27.397   2.209  53.229  1.00  0.00     0.234 C 
BRANCH  18  19
HETATM   19  N3  UNL     1      28.643   2.094  53.610  1.00  0.00    -0.245 NA
BRANCH  19  20
HETATM   20  C8  UNL     1      29.268   0.929  53.632  1.00  0.00     0.052 A 
HETATM   21  C9  UNL     1      28.768  -0.133  53.391  1.00  0.00    -0.016 A 
HETATM   22  C13 UNL     1      30.018  -0.373  53.668  1.00  0.00     0.085 A 
BRANCH  21  23
HETATM   23  C10 UNL     1      28.338  -1.095  53.177  1.00  0.00    -0.024 A 
HETATM   24  C11 UNL     1      27.898  -2.142  52.952  1.00  0.00     0.126 A 
HETATM   25  C12 UNL     1      29.425  -1.805  53.345  1.00  0.00     0.075 A 
BRANCH  24  26
HETATM   26  O2  UNL     1      28.347  -3.423  52.904  1.00  0.00    -0.381 OA
HETATM   27  H10 UNL     1      27.765  -4.217  53.198  1.00  0.00     0.211 HD
ENDBRANCH  24  26
ENDBRANCH  21  23
ENDBRANCH  19  20
ENDBRANCH  18  19
ENDBRANCH  17  18
ENDBRANCH   1  16
TORSDOF 11
ENDMDL
MODEL 3
REMARK VINA RESULT:      -7.4      2.648      4.054
REMARK  11 active torsions:
REMARK  status: ('A' for Active; 'I' for Inactive)
REMARK    1  A    between atoms: O1_2  and  C2_3 
REMARK    2  A    between atoms: C5_6  and  N1_7 
REMARK    3  A    between atoms: N1_7  and  C6_8 
REMARK    4  A    between atoms: N2_9  and  C7_10 
REMARK    5  A    between atoms: C7_10  and  N3_11 
REMARK    6  A    between atoms: N3_11  and  C8_12 
REMARK    7  A    between atoms: C9_13  and  C10_14 
REMARK    8  A    between atoms: C11_15  and  O2_16 
REMARK    9  A    between atoms: C12_17  and  C13_18 
REMARK   10  A    between atoms: C15_20  and  O3_21 
REMARK   11  A    between atoms: C17_23  and  O4_24 
ROOT
HETATM    1  N1  UNL     1      25.287   1.759  51.843  1.00  0.00    -0.354 N 
HETATM    2  H7  UNL     1      25.538   0.753  51.723  1.00  0.00     0.166 HD
ENDROOT
BRANCH   1   3
HETATM    3  C5  UNL     1      24.791   2.979  51.311  1.00  0.00     0.016 C 
HETATM    4  C4  UNL     1      25.550   3.426  50.139  1.00  0.00     0.087 C 
HETATM    5  C3  UNL     1      25.561   4.906  49.983  1.00  0.00     0.019 C 
HETATM    6  C2  UNL     1      24.744   5.892  50.300  1.00  0.00     0.101 C 
HETATM    7  C17 UNL     1      23.456   5.710  50.980  1.00  0.00     0.134 C 
HETATM    8  C15 UNL     1      23.018   4.688  51.700  1.00  0.00     0.106 C 
HETATM    9  C14 UNL     1      23.739   3.456  52.000  1.00  0.00     0.065 C 
BRANCH   6  10
HETATM   10  O1  UNL     1      25.051   7.189  50.011  1.00  0.00    -0.353 OA
HETATM   11  C1  UNL     1      26.295   7.811  49.993  1.00  0.00     0.210 C 
ENDBRANCH   6  10
BRANCH   7  12
HETATM   12  O4  UNL     1      22.570   6.790  50.832  1.00  0.00    -0.351 OA
HETATM   13  C18 UNL     1      21.705   6.951  49.742  1.00  0.00     0.210 C 
ENDBRANCH   7  12
BRANCH   8  14
HETATM   14  O3  UNL     1      21.734   4.787  52.233  1.00  0.00    -0.353 OA
HETATM   15  C16 UNL     1      20.770   3.766  52.084  1.00  0.00     0.210 C 
ENDBRANCH   8  14
ENDBRANCH   1   3
BRANCH   1  16
HETATM   16  C6  UNL     1      25.597   2.021  53.200  1.00  0.00     0.208 C 
HETATM   17  N2  UNL     1      26.557   2.322  53.988  1.00  0.00    -0.237 NA
BRANCH  17  18
HETATM   18  C7  UNL     1      27.857   2.493  53.447  1.00  0.00     0.234 C 
BRANCH  18  19
HETATM   19  N3  UNL     1      28.730   1.921  54.236  1.00  0.00    -0.245 NA
BRANCH  19  20
HETATM   20  C8  UNL     1      29.373   0.818  53.892  1.00  0.00     0.052 A 
HETATM   21  C9  UNL     1      28.857  -0.222  53.588  1.00  0.00    -0.016 A 
HETATM   22  C13 UNL     1      30.144  -0.414  53.505  1.00  0.00     0.085 A 
BRANCH  21  23
HETATM   23  C10 UNL     1      28.415  -1.162  53.312  1.00  0.00    -0.024 A 
HETATM   24  C11 UNL     1      27.961  -2.186  53.019  1.00  0.00     0.126 A 
HETATM   25  C12 UNL     1      29.501  -1.887  53.392  1.00  0.00     0.075 A 
BRANCH  24  26
HETATM   26  O2  UNL     1      28.399  -3.461  52.857  1.00  0.00    -0.381 OA
HETATM   27  H10 UNL     1      27.886  -4.267  53.236  1.00  0.00     0.211 HD
ENDBRANCH  24  26
ENDBRANCH  21  23
ENDBRANCH  19  20
ENDBRANCH  18  19
ENDBRANCH  17  18
ENDBRANCH   1  16
TORSDOF 11
ENDMDL
MODEL 4
REMARK VINA RESULT:      -7.2      3.721      6.361
REMARK  11 active torsions:
REMARK  status: ('A' for Active; 'I' for Inactive)
REMARK    1  A    between atoms: O1_2  and  C2_3 
REMARK    2  A    between atoms: C5_6  and  N1_7 
REMARK    3  A    between atoms: N1_7  and  C6_8 
REMARK    4  A    between atoms: N2_9  and  C7_10 
REMARK    5  A    between atoms: C7_10  and  N3_11 
REMARK    6  A    between atoms: N3_11  and  C8_12 
REMARK    7  A    between atoms: C9_13  and  C10_14 
REMARK    8  A    between atoms: C11_15  and  O2_16 
REMARK    9  A    between atoms: C12_17  and  C13_18 
REMARK   10  A    between atoms: C15_20  and  O3_21 
REMARK   11  A    between atoms: C17_23  and  O4_24 
ROOT
HETATM    1  N1  UNL     1      24.091   4.413  53.041  1.00  0.00    -0.354 N 
HETATM    2  H7  UNL     1      24.384   5.376  53.316  1.00  0.00     0.166 HD
ENDROOT
BRANCH   1   3
HETATM    3  C5  UNL     1      24.300   3.008  53.053  1.00  0.00     0.016 C 
HETATM    4  C4  UNL     1      23.131   2.266  52.570  1.00  0.00     0.087 C 
HETATM    5  C3  UNL     1      23.011   0.913  53.177  1.00  0.00     0.019 C 
HETATM    6  C2  UNL     1      23.853   0.017  53.656  1.00  0.00     0.101 C 
HETATM    7  C17 UNL     1      25.309   0.196  53.701  1.00  0.00     0.134 C 
HETATM    8  C15 UNL     1      26.026   1.307  53.638  1.00  0.00     0.106 C 
HETATM    9  C14 UNL     1      25.521   2.669  53.506  1.00  0.00     0.065 C 
BRANCH   6  10
HETATM   10  O1  UNL     1      23.414  -1.171  54.160  1.00  0.00    -0.353 OA
HETATM   11  C1  UNL     1      22.127  -1.543  54.533  1.00  0.00     0.210 C 
ENDBRANCH   6  10
BRANCH   7  12
HETATM   12  O4  UNL     1      26.032  -1.002  53.827  1.00  0.00    -0.351 OA
HETATM   13  C18 UNL     1      26.603  -1.692  52.750  1.00  0.00     0.210 C 
ENDBRANCH   7  12
BRANCH   8  14
HETATM   14  O3  UNL     1      27.412   1.177  53.703  1.00  0.00    -0.353 OA
HETATM   15  C16 UNL     1      28.287   2.264  53.488  1.00  0.00     0.210 C 
ENDBRANCH   8  14
ENDBRANCH   1   3
BRANCH   1  16
HETATM   16  C6  UNL     1      22.908   4.626  52.292  1.00  0.00     0.208 C 
HETATM   17  N2  UNL     1      22.477   5.000  51.148  1.00  0.00    -0.237 NA
BRANCH  17  18
HETATM   18  C7  UNL     1      23.417   5.368  50.151  1.00  0.00     0.234 C 
BRANCH  18  19
HETATM   19  N3  UNL     1      23.943   4.287  49.635  1.00  0.00    -0.245 NA
BRANCH  19  20
HETATM   20  C8  UNL     1      25.250   4.117  49.543  1.00  0.00     0.052 A 
HETATM   21  C9  UNL     1      26.031   4.930  49.133  1.00  0.00    -0.016 A 
HETATM   22  C13 UNL     1      26.733   3.880  49.456  1.00  0.00     0.085 A 
BRANCH  21  23
HETATM   23  C10 UNL     1      26.747   5.645  48.769  1.00  0.00    -0.024 A 
HETATM   24  C11 UNL     1      27.534   6.395  48.375  1.00  0.00     0.126 A 
HETATM   25  C12 UNL     1      27.750   4.817  48.622  1.00  0.00     0.075 A 
BRANCH  24  26
HETATM   26  O2  UNL     1      28.833   6.363  47.979  1.00  0.00    -0.381 OA
HETATM   27  H10 UNL     1      29.211   5.599  47.405  1.00  0.00     0.211 HD
ENDBRANCH  24  26
ENDBRANCH  21  23
ENDBRANCH  19  20
ENDBRANCH  18  19
ENDBRANCH  17  18
ENDBRANCH   1  16
TORSDOF 11
ENDMDL
MODEL 5
REMARK VINA RESULT:      -7.1      5.646      7.276
REMARK  11 active torsions:
REMARK  status: ('A' for Active; 'I' for Inactive)
REMARK    1  A    between atoms: O1_2  and  C2_3 
REMARK    2  A    between atoms: C5_6  and  N1_7 
REMARK    3  A    between atoms: N1_7  and  C6_8 
REMARK    4  A    between atoms: N2_9  and  C7_10 
REMARK    5  A    between atoms: C7_10  and  N3_11 
REMARK    6  A    between atoms: N3_11  and  C8_12 
REMARK    7  A    between atoms: C9_13  and  C10_14 
REMARK    8  A    between atoms: C11_15  and  O2_16 
REMARK    9  A    between atoms: C12_17  and  C13_18 
REMARK   10  A    between atoms: C15_20  and  O3_21 
REMARK   11  A    between atoms: C17_23  and  O4_24 
ROOT
HETATM    1  N1  UNL     1      25.892   4.606  50.451  1.00  0.00    -0.354 N 
HETATM    2  H7  UNL     1      25.423   4.468  51.372  1.00  0.00     0.166 HD
ENDROOT
BRANCH   1   3
HETATM    3  C5  UNL     1      26.239   5.441  49.355  1.00  0.00     0.016 C 
HETATM    4  C4  UNL     1      27.505   5.046  48.731  1.00  0.00     0.087 C 
HETATM    5  C3  UNL     1      28.229   6.189  48.112  1.00  0.00     0.019 C 
HETATM    6  C2  UNL     1      27.882   7.337  47.564  1.00  0.00     0.101 C 
HETATM    7  C17 UNL     1      26.497   7.802  47.430  1.00  0.00     0.134 C 
HETATM    8  C15 UNL     1      25.411   7.419  48.084  1.00  0.00     0.106 C 
HETATM    9  C14 UNL     1      25.331   6.409  49.133  1.00  0.00     0.065 C 
BRANCH   6  10
HETATM   10  O1  UNL     1      28.817   8.199  47.069  1.00  0.00    -0.353 OA
HETATM   11  C1  UNL     1      29.694   9.030  47.759  1.00  0.00     0.210 C 
ENDBRANCH   6  10
BRANCH   7  12
HETATM   12  O4  UNL     1      26.315   8.799  46.457  1.00  0.00    -0.351 OA
HETATM   13  C18 UNL     1      26.137   8.541  45.091  1.00  0.00     0.210 C 
ENDBRANCH   7  12
BRANCH   8  14
HETATM   14  O3  UNL     1      24.209   8.039  47.745  1.00  0.00    -0.353 OA
HETATM   15  C16 UNL     1      23.126   7.335  47.177  1.00  0.00     0.210 C 
ENDBRANCH   8  14
ENDBRANCH   1   3
BRANCH   1  16
HETATM   16  C6  UNL     1      26.451   3.336  50.167  1.00  0.00     0.208 C 
HETATM   17  N2  UNL     1      26.869   2.258  50.715  1.00  0.00    -0.237 NA
BRANCH  17  18
HETATM   18  C7  UNL     1      26.815   2.145  52.127  1.00  0.00     0.234 C 
BRANCH  18  19
HETATM   19  N3  UNL     1      28.033   2.133  52.605  1.00  0.00    -0.245 NA
BRANCH  19  20
HETATM   20  C8  UNL     1      28.469   1.167  53.395  1.00  0.00     0.052 A 
HETATM   21  C9  UNL     1      28.247  -0.003  53.252  1.00  0.00    -0.016 A 
HETATM   22  C13 UNL     1      28.987   0.100  54.320  1.00  0.00     0.085 A 
BRANCH  21  23
HETATM   23  C10 UNL     1      28.061  -1.056  53.140  1.00  0.00    -0.024 A 
HETATM   24  C11 UNL     1      27.884  -2.194  53.029  1.00  0.00     0.126 A 
HETATM   25  C12 UNL     1      29.251  -1.474  53.487  1.00  0.00     0.075 A 
BRANCH  24  26
HETATM   26  O2  UNL     1      28.601  -3.336  53.192  1.00  0.00    -0.381 OA
HETATM   27  H10 UNL     1      29.197  -3.494  54.014  1.00  0.00     0.211 HD
ENDBRANCH  24  26
ENDBRANCH  21  23
ENDBRANCH  19  20
ENDBRANCH  18  19
ENDBRANCH  17  18
ENDBRANCH   1  16
TORSDOF 11
ENDMDL
MODEL 6
REMARK VINA RESULT:      -7.0      3.402      6.676
REMARK  11 active torsions:
REMARK  status: ('A' for Active; 'I' for Inactive)
REMARK    1  A    between atoms: O1_2  and  C2_3 
REMARK    2  A    between atoms: C5_6  and  N1_7 
REMARK    3  A    between atoms: N1_7  and  C6_8 
REMARK    4  A    between atoms: N2_9  and  C7_10 
REMARK    5  A    between atoms: C7_10  and  N3_11 
REMARK    6  A    between atoms: N3_11  and  C8_12 
REMARK    7  A    between atoms: C9_13  and  C10_14 
REMARK    8  A    between atoms: C11_15  and  O2_16 
REMARK    9  A    between atoms: C12_17  and  C13_18 
REMARK   10  A    between atoms: C15_20  and  O3_21 
REMARK   11  A    between atoms: C17_23  and  O4_24 
ROOT
HETATM    1  N1  UNL     1      23.259   2.148  50.810  1.00  0.00    -0.354 N 
HETATM    2  H7  UNL     1      23.085   2.343  49.800  1.00  0.00     0.166 HD
ENDROOT
BRANCH   1   3
HETATM    3  C5  UNL     1      24.003   1.499  51.833  1.00  0.00     0.016 C 
HETATM    4  C4  UNL     1      25.393   1.963  51.891  1.00  0.00     0.087 C 
HETATM    5  C3  UNL     1      26.332   0.923  52.390  1.00  0.00     0.019 C 
HETATM    6  C2  UNL     1      26.246  -0.110  53.206  1.00  0.00     0.101 C 
HETATM    7  C17 UNL     1      25.016  -0.514  53.898  1.00  0.00     0.134 C 
HETATM    8  C15 UNL     1      23.755  -0.221  53.620  1.00  0.00     0.106 C 
HETATM    9  C14 UNL     1      23.270   0.603  52.518  1.00  0.00     0.065 C 
BRANCH   6  10
HETATM   10  O1  UNL     1      27.327  -0.899  53.470  1.00  0.00    -0.353 OA
HETATM   11  C1  UNL     1      28.552  -0.548  54.028  1.00  0.00     0.210 C 
ENDBRANCH   6  10
BRANCH   7  12
HETATM   12  O4  UNL     1      25.230  -1.332  55.021  1.00  0.00    -0.351 OA
HETATM   13  C18 UNL     1      25.343  -0.851  56.332  1.00  0.00     0.210 C 
ENDBRANCH   7  12
BRANCH   8  14
HETATM   14  O3  UNL     1      22.777  -0.748  54.460  1.00  0.00    -0.353 OA
HETATM   15  C16 UNL     1      21.481  -0.196  54.556  1.00  0.00     0.210 C 
ENDBRANCH   8  14
ENDBRANCH   1   3
BRANCH   1  16
HETATM   16  C6  UNL     1      22.261   2.903  51.473  1.00  0.00     0.208 C 
HETATM   17  N2  UNL     1      21.910   4.097  51.767  1.00  0.00    -0.237 NA
BRANCH  17  18
HETATM   18  C7  UNL     1      22.726   5.174  51.336  1.00  0.00     0.234 C 
BRANCH  18  19
HETATM   19  N3  UNL     1      22.786   5.173  50.029  1.00  0.00    -0.245 NA
BRANCH  19  20
HETATM   20  C8  UNL     1      23.827   5.654  49.372  1.00  0.00     0.052 A 
HETATM   21  C9  UNL     1      24.916   5.154  49.333  1.00  0.00    -0.016 A 
HETATM   22  C13 UNL     1      24.985   6.236  48.609  1.00  0.00     0.085 A 
BRANCH  21  23
HETATM   23  C10 UNL     1      25.900   4.722  49.285  1.00  0.00    -0.024 A 
HETATM   24  C11 UNL     1      26.968   4.280  49.226  1.00  0.00     0.126 A 
HETATM   25  C12 UNL     1      26.531   5.790  48.870  1.00  0.00     0.075 A 
BRANCH  24  26
HETATM   26  O2  UNL     1      28.209   4.712  48.885  1.00  0.00    -0.381 OA
HETATM   27  H10 UNL     1      28.992   4.064  48.736  1.00  0.00     0.211 HD
ENDBRANCH  24  26
ENDBRANCH  21  23
ENDBRANCH  19  20
ENDBRANCH  18  19
ENDBRANCH  17  18
ENDBRANCH   1  16
TORSDOF 11
ENDMDL
MODEL 7
REMARK VINA RESULT:      -7.0      3.032      5.657
REMARK  11 active torsions:
REMARK  status: ('A' for Active; 'I' for Inactive)
REMARK    1  A    between atoms: O1_2  and  C2_3 
REMARK    2  A    between atoms: C5_6  and  N1_7 
REMARK    3  A    between atoms: N1_7  and  C6_8 
REMARK    4  A    between atoms: N2_9  and  C7_10 
REMARK    5  A    between atoms: C7_10  and  N3_11 
REMARK    6  A    between atoms: N3_11  and  C8_12 
REMARK    7  A    between atoms: C9_13  and  C10_14 
REMARK    8  A    between atoms: C11_15  and  O2_16 
REMARK    9  A    between atoms: C12_17  and  C13_18 
REMARK   10  A    between atoms: C15_20  and  O3_21 
REMARK   11  A    between atoms: C17_23  and  O4_24 
ROOT
HETATM    1  N1  UNL     1      26.565   1.497  51.684  1.00  0.00    -0.354 N 
HETATM    2  H7  UNL     1      26.991   0.549  51.593  1.00  0.00     0.166 HD
ENDROOT
BRANCH   1   3
HETATM    3  C5  UNL     1      25.867   2.597  51.116  1.00  0.00     0.016 C 
HETATM    4  C4  UNL     1      26.463   3.044  49.853  1.00  0.00     0.087 C 
HETATM    5  C3  UNL     1      26.259   4.496  49.597  1.00  0.00     0.019 C 
HETATM    6  C2  UNL     1      25.344   5.389  49.918  1.00  0.00     0.101 C 
HETATM    7  C17 UNL     1      24.151   5.096  50.721  1.00  0.00     0.134 C 
HETATM    8  C15 UNL     1      23.915   4.087  51.545  1.00  0.00     0.106 C 
HETATM    9  C14 UNL     1      24.818   2.986  51.863  1.00  0.00     0.065 C 
BRANCH   6  10
HETATM   10  O1  UNL     1      25.447   6.688  49.514  1.00  0.00    -0.353 OA
HETATM   11  C1  UNL     1      26.102   7.748  50.133  1.00  0.00     0.210 C 
ENDBRANCH   6  10
BRANCH   7  12
HETATM   12  O4  UNL     1      23.116   6.036  50.579  1.00  0.00    -0.351 OA
HETATM   13  C18 UNL     1      22.165   6.007  49.552  1.00  0.00     0.210 C 
ENDBRANCH   7  12
BRANCH   8  14
HETATM   14  O3  UNL     1      22.676   4.059  52.183  1.00  0.00    -0.353 OA
HETATM   15  C16 UNL     1      21.782   2.974  52.058  1.00  0.00     0.210 C 
ENDBRANCH   8  14
ENDBRANCH   1   3
BRANCH   1  16
HETATM   16  C6  UNL     1      26.813   1.846  53.034  1.00  0.00     0.208 C 
HETATM   17  N2  UNL     1      26.764   1.397  54.231  1.00  0.00    -0.237 NA
BRANCH  17  18
HETATM   18  C7  UNL     1      26.316   0.068  54.443  1.00  0.00     0.234 C 
BRANCH  18  19
HETATM   19  N3  UNL     1      25.165  -0.099  53.844  1.00  0.00    -0.245 NA
BRANCH  19  20
HETATM   20  C8  UNL     1      24.133  -0.663  54.449  1.00  0.00     0.052 A 
HETATM   21  C9  UNL     1      22.985  -0.542  54.123  1.00  0.00    -0.016 A 
HETATM   22  C13 UNL     1      22.989  -1.324  55.166  1.00  0.00     0.085 A 
BRANCH  21  23
HETATM   23  C10 UNL     1      21.950  -0.448  53.847  1.00  0.00    -0.024 A 
HETATM   24  C11 UNL     1      20.831  -0.364  53.567  1.00  0.00     0.126 A 
HETATM   25  C12 UNL     1      21.487  -1.410  54.603  1.00  0.00     0.075 A 
BRANCH  24  26
HETATM   26  O2  UNL     1      19.670  -0.989  53.897  1.00  0.00    -0.381 OA
HETATM   27  H10 UNL     1      19.247  -1.707  53.297  1.00  0.00     0.211 HD
ENDBRANCH  24  26
ENDBRANCH  21  23
ENDBRANCH  19  20
ENDBRANCH  18  19
ENDBRANCH  17  18
ENDBRANCH   1  16
TORSDOF 11
ENDMDL
MODEL 8
REMARK VINA RESULT:      -7.0      2.092      3.766
REMARK  11 active torsions:
REMARK  status: ('A' for Active; 'I' for Inactive)
REMARK    1  A    between atoms: O1_2  and  C2_3 
REMARK    2  A    between atoms: C5_6  and  N1_7 
REMARK    3  A    between atoms: N1_7  and  C6_8 
REMARK    4  A    between atoms: N2_9  and  C7_10 
REMARK    5  A    between atoms: C7_10  and  N3_11 
REMARK    6  A    between atoms: N3_11  and  C8_12 
REMARK    7  A    between atoms: C9_13  and  C10_14 
REMARK    8  A    between atoms: C11_15  and  O2_16 
REMARK    9  A    between atoms: C12_17  and  C13_18 
REMARK   10  A    between atoms: C15_20  and  O3_21 
REMARK   11  A    between atoms: C17_23  and  O4_24 
ROOT
HETATM    1  N1  UNL     1      23.328   5.252  51.400  1.00  0.00    -0.354 N 
HETATM    2  H7  UNL     1      23.632   6.250  51.434  1.00  0.00     0.166 HD
ENDROOT
BRANCH   1   3
HETATM    3  C5  UNL     1      22.735   4.121  52.021  1.00  0.00     0.016 C 
HETATM    4  C4  UNL     1      23.703   3.341  52.799  1.00  0.00     0.087 C 
HETATM    5  C3  UNL     1      23.360   1.894  52.870  1.00  0.00     0.019 C 
HETATM    6  C2  UNL     1      22.248   1.187  52.837  1.00  0.00     0.101 C 
HETATM    7  C17 UNL     1      20.906   1.767  52.700  1.00  0.00     0.134 C 
HETATM    8  C15 UNL     1      20.542   2.957  52.247  1.00  0.00     0.106 C 
HETATM    9  C14 UNL     1      21.420   4.013  51.756  1.00  0.00     0.065 C 
BRANCH   6  10
HETATM   10  O1  UNL     1      22.268  -0.173  52.928  1.00  0.00    -0.353 OA
HETATM   11  C1  UNL     1      22.739  -0.974  53.964  1.00  0.00     0.210 C 
ENDBRANCH   6  10
BRANCH   7  12
HETATM   12  O4  UNL     1      19.867   0.919  53.120  1.00  0.00    -0.351 OA
HETATM   13  C18 UNL     1      19.183   0.038  52.273  1.00  0.00     0.210 C 
ENDBRANCH   7  12
BRANCH   8  14
HETATM   14  O3  UNL     1      19.179   3.245  52.232  1.00  0.00    -0.353 OA
HETATM   15  C16 UNL     1      18.540   3.834  51.119  1.00  0.00     0.210 C 
ENDBRANCH   8  14
ENDBRANCH   1   3
BRANCH   1  16
HETATM   16  C6  UNL     1      23.688   4.838  50.094  1.00  0.00     0.208 C 
HETATM   17  N2  UNL     1      24.674   4.444  49.382  1.00  0.00    -0.237 NA
BRANCH  17  18
HETATM   18  C7  UNL     1      25.950   4.327  49.990  1.00  0.00     0.234 C 
BRANCH  18  19
HETATM   19  N3  UNL     1      26.249   3.060  50.121  1.00  0.00    -0.245 NA
BRANCH  19  20
HETATM   20  C8  UNL     1      26.768   2.571  51.235  1.00  0.00     0.052 A 
HETATM   21  C9  UNL     1      26.692   1.430  51.596  1.00  0.00    -0.016 A 
HETATM   22  C13 UNL     1      27.376   2.057  52.511  1.00  0.00     0.085 A 
BRANCH  21  23
HETATM   23  C10 UNL     1      26.636   0.412  51.937  1.00  0.00    -0.024 A 
HETATM   24  C11 UNL     1      26.578  -0.676  52.327  1.00  0.00     0.126 A 
HETATM   25  C12 UNL     1      26.861   0.647  53.204  1.00  0.00     0.075 A 
BRANCH  24  26
HETATM   26  O2  UNL     1      26.698  -1.315  53.520  1.00  0.00    -0.381 OA
HETATM   27  H10 UNL     1      26.677  -0.811  54.415  1.00  0.00     0.211 HD
ENDBRANCH  24  26
ENDBRANCH  21  23
ENDBRANCH  19  20
ENDBRANCH  18  19
ENDBRANCH  17  18
ENDBRANCH   1  16
TORSDOF 11
ENDMDL
MODEL 9
REMARK VINA RESULT:      -6.9      4.843      6.713
REMARK  11 active torsions:
REMARK  status: ('A' for Active; 'I' for Inactive)
REMARK    1  A    between atoms: O1_2  and  C2_3 
REMARK    2  A    between atoms: C5_6  and  N1_7 
REMARK    3  A    between atoms: N1_7  and  C6_8 
REMARK    4  A    between atoms: N2_9  and  C7_10 
REMARK    5  A    between atoms: C7_10  and  N3_11 
REMARK    6  A    between atoms: N3_11  and  C8_12 
REMARK    7  A    between atoms: C9_13  and  C10_14 
REMARK    8  A    between atoms: C11_15  and  O2_16 
REMARK    9  A    between atoms: C12_17  and  C13_18 
REMARK   10  A    between atoms: C15_20  and  O3_21 
REMARK   11  A    between atoms: C17_23  and  O4_24 
ROOT
HETATM    1  N1  UNL     1      24.756   4.168  51.471  1.00  0.00    -0.354 N 
HETATM    2  H7  UNL     1      24.457   4.208  52.469  1.00  0.00     0.166 HD
ENDROOT
BRANCH   1   3
HETATM    3  C5  UNL     1      25.344   4.781  50.332  1.00  0.00     0.016 C 
HETATM    4  C4  UNL     1      26.245   3.876  49.613  1.00  0.00     0.087 C 
HETATM    5  C3  UNL     1      27.347   4.589  48.912  1.00  0.00     0.019 C 
HETATM    6  C2  UNL     1      27.503   5.781  48.371  1.00  0.00     0.101 C 
HETATM    7  C17 UNL     1      26.463   6.817  48.345  1.00  0.00     0.134 C 
HETATM    8  C15 UNL     1      25.380   6.945  49.095  1.00  0.00     0.106 C 
HETATM    9  C14 UNL     1      24.947   6.056  50.168  1.00  0.00     0.065 C 
BRANCH   6  10
HETATM   10  O1  UNL     1      28.678   6.146  47.783  1.00  0.00    -0.353 OA
HETATM   11  C1  UNL     1      29.942   5.585  47.929  1.00  0.00     0.210 C 
ENDBRANCH   6  10
BRANCH   7  12
HETATM   12  O4  UNL     1      26.664   7.809  47.370  1.00  0.00    -0.351 OA
HETATM   13  C18 UNL     1      27.323   9.022  47.609  1.00  0.00     0.210 C 
ENDBRANCH   7  12
BRANCH   8  14
HETATM   14  O3  UNL     1      24.556   8.042  48.845  1.00  0.00    -0.353 OA
HETATM   15  C16 UNL     1      23.497   8.406  49.704  1.00  0.00     0.210 C 
ENDBRANCH   8  14
ENDBRANCH   1   3
BRANCH   1  16
HETATM   16  C6  UNL     1      24.393   2.859  51.066  1.00  0.00     0.208 C 
HETATM   17  N2  UNL     1      24.415   1.634  51.432  1.00  0.00    -0.237 NA
BRANCH  17  18
HETATM   18  C7  UNL     1      24.982   1.307  52.690  1.00  0.00     0.234 C 
BRANCH  18  19
HETATM   19  N3  UNL     1      26.220   1.730  52.726  1.00  0.00    -0.245 NA
BRANCH  19  20
HETATM   20  C8  UNL     1      27.218   0.951  53.108  1.00  0.00     0.052 A 
HETATM   21  C9  UNL     1      27.276  -0.235  52.945  1.00  0.00    -0.016 A 
HETATM   22  C13 UNL     1      28.375   0.104  53.558  1.00  0.00     0.085 A 
BRANCH  21  23
HETATM   23  C10 UNL     1      27.348  -1.299  52.808  1.00  0.00    -0.024 A 
HETATM   24  C11 UNL     1      27.449  -2.444  52.670  1.00  0.00     0.126 A 
HETATM   25  C12 UNL     1      28.572  -1.442  53.248  1.00  0.00     0.075 A 
BRANCH  24  26
HETATM   26  O2  UNL     1      28.397  -3.394  52.881  1.00  0.00    -0.381 OA
HETATM   27  H10 UNL     1      28.696  -3.668  53.824  1.00  0.00     0.211 HD
ENDBRANCH  24  26
ENDBRANCH  21  23
ENDBRANCH  19  20
ENDBRANCH  18  19
ENDBRANCH  17  18
ENDBRANCH   1  16
TORSDOF 11
ENDMDL
