MODEL 1
REMARK VINA RESULT:      -9.1      0.000      0.000
REMARK  3 active torsions:
REMARK  status: ('A' for Active; 'I' for Inactive)
REMARK    1  A    between atoms: C2_2  and  O1_3 
REMARK    2  A    between atoms: O1_3  and  C3_4 
REMARK    3  A    between atoms: C7_10  and  N3_11 
ROOT
HETATM    1  C3  UNL     1      20.717  -0.336  53.058  1.00  0.00     0.107 A 
HETATM    2  C4  UNL     1      21.139  -1.016  54.177  1.00  0.00     0.072 A 
HETATM    3  C5  UNL     1      22.456  -1.041  54.609  1.00  0.00     0.077 A 
HETATM    4  N1  UNL     1      22.876  -1.699  55.700  1.00  0.00    -0.241 NA
HETATM    5  C6  UNL     1      24.206  -1.622  55.992  1.00  0.00     0.236 A 
HETATM    6  N2  UNL     1      25.092  -0.917  55.230  1.00  0.00    -0.223 NA
HETATM    7  C7  UNL     1      24.651  -0.251  54.123  1.00  0.00     0.150 A 
HETATM    8  C14 UNL     1      23.311  -0.315  53.810  1.00  0.00     0.075 A 
HETATM    9  C15 UNL     1      22.988   0.388  52.689  1.00  0.00     0.121 A 
HETATM   10  C16 UNL     1      21.655   0.373  52.309  1.00  0.00     0.136 A 
HETATM   11  O2  UNL     1      21.269   1.084  51.157  1.00  0.00    -0.344 OA
HETATM   12  C17 UNL     1      22.232   1.562  50.238  1.00  0.00     0.202 C 
HETATM   13  C18 UNL     1      23.511   1.978  50.897  1.00  0.00     0.202 C 
HETATM   14  O3  UNL     1      23.902   1.098  51.933  1.00  0.00    -0.345 OA
ENDROOT
BRANCH   7  15
HETATM   15  N3  UNL     1      25.753   0.404  53.496  1.00  0.00    -0.285 N 
HETATM   16  C8  UNL     1      25.942   1.768  53.874  1.00  0.00     0.131 C 
HETATM   17  C9  UNL     1      27.066   2.438  53.895  1.00  0.00     0.102 C 
HETATM   18  N4  UNL     1      28.175   1.895  54.149  1.00  0.00    -0.257 NA
HETATM   19  C10 UNL     1      28.539   0.528  53.861  1.00  0.00     0.126 C 
HETATM   20  C11 UNL     1      27.989  -0.479  53.201  1.00  0.00     0.010 C 
HETATM   21  C12 UNL     1      28.688  -1.788  53.117  1.00  0.00     0.052 C 
HETATM   22  C13 UNL     1      26.656  -0.237  52.557  1.00  0.00     0.287 C 
HETATM   23  F1  UNL     1      26.188  -1.461  52.141  1.00  0.00    -0.195 F 
HETATM   24 CL1  UNL     1      27.013   0.748  51.123  1.00  0.00    -0.054 Cl
ENDBRANCH   7  15
BRANCH   1  25
HETATM   25  O1  UNL     1      19.424  -0.301  52.618  1.00  0.00    -0.348 OA
BRANCH  25  26
HETATM   26  C2  UNL     1      18.337  -1.031  53.094  1.00  0.00     0.171 C 
HETATM   27  C1  UNL     1      17.192  -0.915  52.127  1.00  0.00     0.034 C 
ENDBRANCH  25  26
ENDBRANCH   1  25
TORSDOF 3
ENDMDL
MODEL 2
REMARK VINA RESULT:      -8.3      3.265      6.886
REMARK  3 active torsions:
REMARK  status: ('A' for Active; 'I' for Inactive)
REMARK    1  A    between atoms: C2_2  and  O1_3 
REMARK    2  A    between atoms: O1_3  and  C3_4 
REMARK    3  A    between atoms: C7_10  and  N3_11 
ROOT
HETATM    1  C3  UNL     1      26.612   0.374  53.185  1.00  0.00     0.107 A 
HETATM    2  C4  UNL     1      27.127   1.284  52.291  1.00  0.00     0.072 A 
HETATM    3  C5  UNL     1      26.345   2.130  51.520  1.00  0.00     0.077 A 
HETATM    4  N1  UNL     1      26.840   3.023  50.648  1.00  0.00    -0.241 NA
HETATM    5  C6  UNL     1      25.936   3.784  49.967  1.00  0.00     0.236 A 
HETATM    6  N2  UNL     1      24.587   3.667  50.141  1.00  0.00    -0.223 NA
HETATM    7  C7  UNL     1      24.098   2.754  51.031  1.00  0.00     0.150 A 
HETATM    8  C14 UNL     1      24.994   1.976  51.731  1.00  0.00     0.075 A 
HETATM    9  C15 UNL     1      24.392   1.107  52.590  1.00  0.00     0.121 A 
HETATM   10  C16 UNL     1      25.228   0.287  53.332  1.00  0.00     0.136 A 
HETATM   11  O2  UNL     1      24.656  -0.630  54.234  1.00  0.00    -0.344 OA
HETATM   12  C17 UNL     1      23.275  -0.930  54.190  1.00  0.00     0.202 C 
HETATM   13  C18 UNL     1      22.435   0.244  53.788  1.00  0.00     0.202 C 
HETATM   14  O3  UNL     1      23.023   1.006  52.752  1.00  0.00    -0.345 OA
ENDROOT
BRANCH   7  15
HETATM   15  N3  UNL     1      22.673   2.817  51.035  1.00  0.00    -0.285 N 
HETATM   16  C8  UNL     1      22.106   3.686  52.016  1.00  0.00     0.131 C 
HETATM   17  C9  UNL     1      20.967   4.327  51.947  1.00  0.00     0.102 C 
HETATM   18  N4  UNL     1      20.486   4.741  50.858  1.00  0.00    -0.257 NA
HETATM   19  C10 UNL     1      20.677   4.139  49.560  1.00  0.00     0.126 C 
HETATM   20  C11 UNL     1      21.224   3.023  49.105  1.00  0.00     0.010 C 
HETATM   21  C12 UNL     1      21.232   2.735  47.647  1.00  0.00     0.052 C 
HETATM   22  C13 UNL     1      21.822   2.086  50.112  1.00  0.00     0.287 C 
HETATM   23  F1  UNL     1      22.520   1.136  49.406  1.00  0.00    -0.195 F 
HETATM   24 CL1  UNL     1      20.430   1.303  50.891  1.00  0.00    -0.054 Cl
ENDBRANCH   7  15
BRANCH   1  25
HETATM   25  O1  UNL     1      27.367  -0.467  53.952  1.00  0.00    -0.348 OA
BRANCH  25  26
HETATM   26  C2  UNL     1      28.603  -0.211  54.541  1.00  0.00     0.171 C 
HETATM   27  C1  UNL     1      29.681  -0.927  53.778  1.00  0.00     0.034 C 
ENDBRANCH  25  26
ENDBRANCH   1  25
TORSDOF 3
ENDMDL
MODEL 3
REMARK VINA RESULT:      -7.8      3.344      6.681
REMARK  3 active torsions:
REMARK  status: ('A' for Active; 'I' for Inactive)
REMARK    1  A    between atoms: C2_2  and  O1_3 
REMARK    2  A    between atoms: O1_3  and  C3_4 
REMARK    3  A    between atoms: C7_10  and  N3_11 
ROOT
HETATM    1  C3  UNL     1      26.617   0.835  52.985  1.00  0.00     0.107 A 
HETATM    2  C4  UNL     1      25.660   0.076  53.620  1.00  0.00     0.072 A 
HETATM    3  C5  UNL     1      24.314   0.108  53.292  1.00  0.00     0.077 A 
HETATM    4  N1  UNL     1      23.374  -0.631  53.903  1.00  0.00    -0.241 NA
HETATM    5  C6  UNL     1      22.093  -0.486  53.460  1.00  0.00     0.236 A 
HETATM    6  N2  UNL     1      21.750   0.362  52.447  1.00  0.00    -0.223 NA
HETATM    7  C7  UNL     1      22.716   1.108  51.834  1.00  0.00     0.150 A 
HETATM    8  C14 UNL     1      24.017   0.976  52.265  1.00  0.00     0.075 A 
HETATM    9  C15 UNL     1      24.891   1.764  51.580  1.00  0.00     0.121 A 
HETATM   10  C16 UNL     1      26.223   1.688  51.955  1.00  0.00     0.136 A 
HETATM   11  O2  UNL     1      27.167   2.483  51.278  1.00  0.00    -0.344 OA
HETATM   12  C17 UNL     1      26.758   3.547  50.441  1.00  0.00     0.202 C 
HETATM   13  C18 UNL     1      25.469   3.267  49.731  1.00  0.00     0.202 C 
HETATM   14  O3  UNL     1      24.523   2.615  50.554  1.00  0.00    -0.345 OA
ENDROOT
BRANCH   7  15
HETATM   15  N3  UNL     1      22.117   1.911  50.818  1.00  0.00    -0.285 N 
HETATM   16  C8  UNL     1      22.163   1.357  49.502  1.00  0.00     0.131 C 
HETATM   17  C9  UNL     1      21.317   1.562  48.524  1.00  0.00     0.102 C 
HETATM   18  N4  UNL     1      20.091   1.779  48.722  1.00  0.00    -0.257 NA
HETATM   19  C10 UNL     1      19.517   2.424  49.878  1.00  0.00     0.126 C 
HETATM   20  C11 UNL     1      19.988   3.058  50.940  1.00  0.00     0.010 C 
HETATM   21  C12 UNL     1      19.054   3.607  51.958  1.00  0.00     0.052 C 
HETATM   22  C13 UNL     1      21.477   3.191  51.061  1.00  0.00     0.287 C 
HETATM   23  F1  UNL     1      21.732   3.666  52.326  1.00  0.00    -0.195 F 
HETATM   24 CL1  UNL     1      21.920   4.448  49.886  1.00  0.00    -0.054 Cl
ENDBRANCH   7  15
BRANCH   1  25
HETATM   25  O1  UNL     1      27.948   0.816  53.295  1.00  0.00    -0.348 OA
BRANCH  25  26
HETATM   26  C2  UNL     1      28.570   0.169  54.361  1.00  0.00     0.171 C 
HETATM   27  C1  UNL     1      29.559  -0.830  53.832  1.00  0.00     0.034 C 
ENDBRANCH  25  26
ENDBRANCH   1  25
TORSDOF 3
ENDMDL
MODEL 4
REMARK VINA RESULT:      -7.1      9.383     11.669
REMARK  3 active torsions:
REMARK  status: ('A' for Active; 'I' for Inactive)
REMARK    1  A    between atoms: C2_2  and  O1_3 
REMARK    2  A    between atoms: O1_3  and  C3_4 
REMARK    3  A    between atoms: C7_10  and  N3_11 
ROOT
HETATM    1  C3  UNL     1      27.553   5.267  48.675  1.00  0.00     0.107 A 
HETATM    2  C4  UNL     1      26.559   6.206  48.829  1.00  0.00     0.072 A 
HETATM    3  C5  UNL     1      26.719   7.550  48.530  1.00  0.00     0.077 A 
HETATM    4  N1  UNL     1      25.753   8.471  48.674  1.00  0.00    -0.241 NA
HETATM    5  C6  UNL     1      26.070   9.753  48.333  1.00  0.00     0.236 A 
HETATM    6  N2  UNL     1      27.301  10.113  47.864  1.00  0.00    -0.223 NA
HETATM    7  C7  UNL     1      28.273   9.165  47.723  1.00  0.00     0.150 A 
HETATM    8  C14 UNL     1      27.975   7.864  48.061  1.00  0.00     0.075 A 
HETATM    9  C15 UNL     1      29.018   7.009  47.875  1.00  0.00     0.121 A 
HETATM   10  C16 UNL     1      28.795   5.678  48.193  1.00  0.00     0.136 A 
HETATM   11  O2  UNL     1      29.842   4.753  48.019  1.00  0.00    -0.344 OA
HETATM   12  C17 UNL     1      31.172   5.187  47.809  1.00  0.00     0.202 C 
HETATM   13  C18 UNL     1      31.252   6.461  47.025  1.00  0.00     0.202 C 
HETATM   14  O3  UNL     1      30.257   7.394  47.397  1.00  0.00    -0.345 OA
ENDROOT
BRANCH   7  15
HETATM   15  N3  UNL     1      29.460   9.779  47.224  1.00  0.00    -0.285 N 
HETATM   16  C8  UNL     1      29.571   9.819  45.800  1.00  0.00     0.131 C 
HETATM   17  C9  UNL     1      30.212  10.702  45.077  1.00  0.00     0.102 C 
HETATM   18  N4  UNL     1      30.331  11.908  45.426  1.00  0.00    -0.257 NA
HETATM   19  C10 UNL     1      30.382  12.399  46.782  1.00  0.00     0.126 C 
HETATM   20  C11 UNL     1      30.453  11.853  47.986  1.00  0.00     0.010 C 
HETATM   21  C12 UNL     1      30.488  12.715  49.196  1.00  0.00     0.052 C 
HETATM   22  C13 UNL     1      30.496  10.356  48.063  1.00  0.00     0.287 C 
HETATM   23  F1  UNL     1      30.335  10.021  49.387  1.00  0.00    -0.195 F 
HETATM   24 CL1  UNL     1      32.145   9.920  47.567  1.00  0.00    -0.054 Cl
ENDBRANCH   7  15
BRANCH   1  25
HETATM   25  O1  UNL     1      27.413   3.939  48.965  1.00  0.00    -0.348 OA
BRANCH  25  26
HETATM   26  C2  UNL     1      26.305   3.294  49.509  1.00  0.00     0.171 C 
HETATM   27  C1  UNL     1      26.625   2.837  50.904  1.00  0.00     0.034 C 
ENDBRANCH  25  26
ENDBRANCH   1  25
TORSDOF 3
ENDMDL
MODEL 5
REMARK VINA RESULT:      -7.0      5.190      7.959
REMARK  3 active torsions:
REMARK  status: ('A' for Active; 'I' for Inactive)
REMARK    1  A    between atoms: C2_2  and  O1_3 
REMARK    2  A    between atoms: O1_3  and  C3_4 
REMARK    3  A    between atoms: C7_10  and  N3_11 
ROOT
HETATM    1  C3  UNL     1      25.515   1.929  51.383  1.00  0.00     0.107 A 
HETATM    2  C4  UNL     1      26.539   2.541  50.698  1.00  0.00     0.072 A 
HETATM    3  C5  UNL     1      26.385   3.716  49.979  1.00  0.00     0.077 A 
HETATM    4  N1  UNL     1      27.379   4.322  49.310  1.00  0.00    -0.241 NA
HETATM    5  C6  UNL     1      27.065   5.476  48.653  1.00  0.00     0.236 A 
HETATM    6  N2  UNL     1      25.810   6.013  48.656  1.00  0.00    -0.223 NA
HETATM    7  C7  UNL     1      24.809   5.386  49.341  1.00  0.00     0.150 A 
HETATM    8  C14 UNL     1      25.105   4.220  50.013  1.00  0.00     0.075 A 
HETATM    9  C15 UNL     1      24.031   3.688  50.661  1.00  0.00     0.121 A 
HETATM   10  C16 UNL     1      24.249   2.512  51.361  1.00  0.00     0.136 A 
HETATM   11  O2  UNL     1      23.171   1.920  52.048  1.00  0.00    -0.344 OA
HETATM   12  C17 UNL     1      21.840   2.330  51.807  1.00  0.00     0.202 C 
HETATM   13  C18 UNL     1      21.727   3.791  51.492  1.00  0.00     0.202 C 
HETATM   14  O3  UNL     1      22.768   4.250  50.653  1.00  0.00    -0.345 OA
ENDROOT
BRANCH   7  15
HETATM   15  N3  UNL     1      23.601   6.130  49.196  1.00  0.00    -0.285 N 
HETATM   16  C8  UNL     1      23.376   7.124  50.197  1.00  0.00     0.131 C 
HETATM   17  C9  UNL     1      22.700   8.238  50.073  1.00  0.00     0.102 C 
HETATM   18  N4  UNL     1      22.639   8.878  48.988  1.00  0.00    -0.257 NA
HETATM   19  C10 UNL     1      22.712   8.313  47.662  1.00  0.00     0.126 C 
HETATM   20  C11 UNL     1      22.726   7.092  47.152  1.00  0.00     0.010 C 
HETATM   21  C12 UNL     1      22.811   6.897  45.681  1.00  0.00     0.052 C 
HETATM   22  C13 UNL     1      22.652   5.942  48.112  1.00  0.00     0.287 C 
HETATM   23  F1  UNL     1      22.912   4.803  47.388  1.00  0.00    -0.195 F 
HETATM   24 CL1  UNL     1      20.958   5.898  48.644  1.00  0.00    -0.054 Cl
ENDBRANCH   7  15
BRANCH   1  25
HETATM   25  O1  UNL     1      25.648   0.771  52.097  1.00  0.00    -0.348 OA
BRANCH  25  26
HETATM   26  C2  UNL     1      26.823   0.106  52.438  1.00  0.00     0.171 C 
HETATM   27  C1  UNL     1      26.487  -1.170  53.156  1.00  0.00     0.034 C 
ENDBRANCH  25  26
ENDBRANCH   1  25
TORSDOF 3
ENDMDL
MODEL 6
REMARK VINA RESULT:      -6.9      6.851     10.001
REMARK  3 active torsions:
REMARK  status: ('A' for Active; 'I' for Inactive)
REMARK    1  A    between atoms: C2_2  and  O1_3 
REMARK    2  A    between atoms: O1_3  and  C3_4 
REMARK    3  A    between atoms: C7_10  and  N3_11 
ROOT
HETATM    1  C3  UNL     1      28.253   7.556  47.862  1.00  0.00     0.107 A 
HETATM    2  C4  UNL     1      28.425   6.233  48.198  1.00  0.00     0.072 A 
HETATM    3  C5  UNL     1      27.400   5.416  48.649  1.00  0.00     0.077 A 
HETATM    4  N1  UNL     1      27.559   4.123  48.976  1.00  0.00    -0.241 NA
HETATM    5  C6  UNL     1      26.448   3.455  49.400  1.00  0.00     0.236 A 
HETATM    6  N2  UNL     1      25.221   4.044  49.497  1.00  0.00    -0.223 NA
HETATM    7  C7  UNL     1      25.074   5.359  49.160  1.00  0.00     0.150 A 
HETATM    8  C14 UNL     1      26.182   6.053  48.729  1.00  0.00     0.075 A 
HETATM    9  C15 UNL     1      25.915   7.352  48.418  1.00  0.00     0.121 A 
HETATM   10  C16 UNL     1      26.981   8.117  47.975  1.00  0.00     0.136 A 
HETATM   11  O2  UNL     1      26.758   9.467  47.642  1.00  0.00    -0.344 OA
HETATM   12  C17 UNL     1      25.561  10.122  48.016  1.00  0.00     0.202 C 
HETATM   13  C18 UNL     1      24.371   9.212  48.006  1.00  0.00     0.202 C 
HETATM   14  O3  UNL     1      24.662   7.928  48.522  1.00  0.00    -0.345 OA
ENDROOT
BRANCH   7  15
HETATM   15  N3  UNL     1      23.712   5.743  49.345  1.00  0.00    -0.285 N 
HETATM   16  C8  UNL     1      22.889   5.637  48.183  1.00  0.00     0.131 C 
HETATM   17  C9  UNL     1      21.599   5.418  48.140  1.00  0.00     0.102 C 
HETATM   18  N4  UNL     1      21.000   4.722  49.003  1.00  0.00    -0.257 NA
HETATM   19  C10 UNL     1      21.377   4.574  50.388  1.00  0.00     0.126 C 
HETATM   20  C11 UNL     1      22.269   5.132  51.192  1.00  0.00     0.010 C 
HETATM   21  C12 UNL     1      22.366   4.704  52.612  1.00  0.00     0.052 C 
HETATM   22  C13 UNL     1      23.155   6.192  50.609  1.00  0.00     0.287 C 
HETATM   23  F1  UNL     1      24.132   6.451  51.542  1.00  0.00    -0.195 F 
HETATM   24 CL1  UNL     1      22.118   7.627  50.464  1.00  0.00    -0.054 Cl
ENDBRANCH   7  15
BRANCH   1  25
HETATM   25  O1  UNL     1      29.251   8.376  47.417  1.00  0.00    -0.348 OA
BRANCH  25  26
HETATM   26  C2  UNL     1      30.489   8.617  48.008  1.00  0.00     0.171 C 
HETATM   27  C1  UNL     1      30.297   9.407  49.272  1.00  0.00     0.034 C 
ENDBRANCH  25  26
ENDBRANCH   1  25
TORSDOF 3
ENDMDL
MODEL 7
REMARK VINA RESULT:      -6.8      8.777     10.874
REMARK  3 active torsions:
REMARK  status: ('A' for Active; 'I' for Inactive)
REMARK    1  A    between atoms: C2_2  and  O1_3 
REMARK    2  A    between atoms: O1_3  and  C3_4 
REMARK    3  A    between atoms: C7_10  and  N3_11 
ROOT
HETATM    1  C3  UNL     1      26.602   5.274  48.934  1.00  0.00     0.107 A 
HETATM    2  C4  UNL     1      27.851   4.777  48.639  1.00  0.00     0.072 A 
HETATM    3  C5  UNL     1      28.930   5.574  48.288  1.00  0.00     0.077 A 
HETATM    4  N1  UNL     1      30.152   5.098  48.002  1.00  0.00    -0.241 NA
HETATM    5  C6  UNL     1      31.108   6.015  47.676  1.00  0.00     0.236 A 
HETATM    6  N2  UNL     1      30.865   7.357  47.634  1.00  0.00    -0.223 NA
HETATM    7  C7  UNL     1      29.617   7.827  47.927  1.00  0.00     0.150 A 
HETATM    8  C14 UNL     1      28.636   6.919  48.260  1.00  0.00     0.075 A 
HETATM    9  C15 UNL     1      27.437   7.501  48.535  1.00  0.00     0.121 A 
HETATM   10  C16 UNL     1      26.397   6.652  48.880  1.00  0.00     0.136 A 
HETATM   11  O2  UNL     1      25.136   7.205  49.173  1.00  0.00    -0.344 OA
HETATM   12  C17 UNL     1      24.836   8.548  48.850  1.00  0.00     0.202 C 
HETATM   13  C18 UNL     1      26.022   9.456  48.971  1.00  0.00     0.202 C 
HETATM   14  O3  UNL     1      27.212   8.865  48.489  1.00  0.00    -0.345 OA
ENDROOT
BRANCH   7  15
HETATM   15  N3  UNL     1      29.610   9.249  47.814  1.00  0.00    -0.285 N 
HETATM   16  C8  UNL     1      29.963   9.954  49.005  1.00  0.00     0.131 C 
HETATM   17  C9  UNL     1      30.523  11.134  49.094  1.00  0.00     0.102 C 
HETATM   18  N4  UNL     1      31.334  11.566  48.231  1.00  0.00    -0.257 NA
HETATM   19  C10 UNL     1      31.340  11.234  46.827  1.00  0.00     0.126 C 
HETATM   20  C11 UNL     1      30.543  10.566  46.008  1.00  0.00     0.010 C 
HETATM   21  C12 UNL     1      30.893  10.429  44.570  1.00  0.00     0.052 C 
HETATM   22  C13 UNL     1      29.297   9.969  46.593  1.00  0.00     0.287 C 
HETATM   23  F1  UNL     1      28.762   9.146  45.630  1.00  0.00    -0.195 F 
HETATM   24 CL1  UNL     1      28.200  11.345  46.834  1.00  0.00    -0.054 Cl
ENDBRANCH   7  15
BRANCH   1  25
HETATM   25  O1  UNL     1      25.528   4.504  49.282  1.00  0.00    -0.348 OA
BRANCH  25  26
HETATM   26  C2  UNL     1      25.375   3.711  50.417  1.00  0.00     0.171 C 
HETATM   27  C1  UNL     1      24.050   3.004  50.360  1.00  0.00     0.034 C 
ENDBRANCH  25  26
ENDBRANCH   1  25
TORSDOF 3
ENDMDL
MODEL 8
REMARK VINA RESULT:      -6.7      4.101      7.463
REMARK  3 active torsions:
REMARK  status: ('A' for Active; 'I' for Inactive)
REMARK    1  A    between atoms: C2_2  and  O1_3 
REMARK    2  A    between atoms: O1_3  and  C3_4 
REMARK    3  A    between atoms: C7_10  and  N3_11 
ROOT
HETATM    1  C3  UNL     1      24.729   1.592  53.086  1.00  0.00     0.107 A 
HETATM    2  C4  UNL     1      24.983   2.779  52.439  1.00  0.00     0.072 A 
HETATM    3  C5  UNL     1      24.040   3.458  51.683  1.00  0.00     0.077 A 
HETATM    4  N1  UNL     1      24.278   4.619  51.052  1.00  0.00    -0.241 NA
HETATM    5  C6  UNL     1      23.242   5.161  50.351  1.00  0.00     0.236 A 
HETATM    6  N2  UNL     1      22.010   4.577  50.275  1.00  0.00    -0.223 NA
HETATM    7  C7  UNL     1      21.783   3.396  50.922  1.00  0.00     0.150 A 
HETATM    8  C14 UNL     1      22.815   2.831  51.638  1.00  0.00     0.075 A 
HETATM    9  C15 UNL     1      22.471   1.660  52.242  1.00  0.00     0.121 A 
HETATM   10  C16 UNL     1      23.457   1.029  52.983  1.00  0.00     0.136 A 
HETATM   11  O2  UNL     1      23.153  -0.185  53.628  1.00  0.00    -0.344 OA
HETATM   12  C17 UNL     1      21.979  -0.906  53.307  1.00  0.00     0.202 C 
HETATM   13  C18 UNL     1      20.827  -0.016  52.950  1.00  0.00     0.202 C 
HETATM   14  O3  UNL     1      21.216   1.086  52.155  1.00  0.00    -0.345 OA
ENDROOT
BRANCH   7  15
HETATM   15  N3  UNL     1      20.435   2.987  50.695  1.00  0.00    -0.285 N 
HETATM   16  C8  UNL     1      19.494   3.422  51.678  1.00  0.00     0.131 C 
HETATM   17  C9  UNL     1      18.218   3.655  51.508  1.00  0.00     0.102 C 
HETATM   18  N4  UNL     1      17.745   4.085  50.421  1.00  0.00    -0.257 NA
HETATM   19  C10 UNL     1      18.277   3.834  49.103  1.00  0.00     0.126 C 
HETATM   20  C11 UNL     1      19.228   3.066  48.596  1.00  0.00     0.010 C 
HETATM   21  C12 UNL     1      19.497   3.076  47.135  1.00  0.00     0.052 C 
HETATM   22  C13 UNL     1      20.002   2.205  49.550  1.00  0.00     0.287 C 
HETATM   23  F1  UNL     1      21.063   1.686  48.847  1.00  0.00    -0.195 F 
HETATM   24 CL1  UNL     1      18.897   0.878  49.967  1.00  0.00    -0.054 Cl
ENDBRANCH   7  15
BRANCH   1  25
HETATM   25  O1  UNL     1      25.646   0.909  53.835  1.00  0.00    -0.348 OA
BRANCH  25  26
HETATM   26  C2  UNL     1      26.984   1.231  54.052  1.00  0.00     0.171 C 
HETATM   27  C1  UNL     1      27.696   0.045  54.640  1.00  0.00     0.034 C 
ENDBRANCH  25  26
ENDBRANCH   1  25
TORSDOF 3
ENDMDL
MODEL 9
REMARK VINA RESULT:      -6.7      4.229      7.208
REMARK  3 active torsions:
REMARK  status: ('A' for Active; 'I' for Inactive)
REMARK    1  A    between atoms: C2_2  and  O1_3 
REMARK    2  A    between atoms: O1_3  and  C3_4 
REMARK    3  A    between atoms: C7_10  and  N3_11 
ROOT
HETATM    1  C3  UNL     1      23.607   0.417  53.238  1.00  0.00     0.107 A 
HETATM    2  C4  UNL     1      22.473  -0.300  53.542  1.00  0.00     0.072 A 
HETATM    3  C5  UNL     1      21.228  -0.038  52.992  1.00  0.00     0.077 A 
HETATM    4  N1  UNL     1      20.117  -0.734  53.281  1.00  0.00    -0.241 NA
HETATM    5  C6  UNL     1      18.970  -0.352  52.651  1.00  0.00     0.236 A 
HETATM    6  N2  UNL     1      18.921   0.685  51.764  1.00  0.00    -0.223 NA
HETATM    7  C7  UNL     1      20.058   1.384  51.479  1.00  0.00     0.150 A 
HETATM    8  C14 UNL     1      21.229   1.014  52.104  1.00  0.00     0.075 A 
HETATM    9  C15 UNL     1      22.296   1.779  51.740  1.00  0.00     0.121 A 
HETATM   10  C16 UNL     1      23.512   1.468  52.326  1.00  0.00     0.136 A 
HETATM   11  O2  UNL     1      24.646   2.229  51.984  1.00  0.00    -0.344 OA
HETATM   12  C17 UNL     1      24.519   3.457  51.295  1.00  0.00     0.202 C 
HETATM   13  C18 UNL     1      23.375   3.468  50.328  1.00  0.00     0.202 C 
HETATM   14  O3  UNL     1      22.224   2.824  50.837  1.00  0.00    -0.345 OA
ENDROOT
BRANCH   7  15
HETATM   15  N3  UNL     1      19.756   2.411  50.536  1.00  0.00    -0.285 N 
HETATM   16  C8  UNL     1      20.016   2.077  49.171  1.00  0.00     0.131 C 
HETATM   17  C9  UNL     1      19.409   2.543  48.110  1.00  0.00     0.102 C 
HETATM   18  N4  UNL     1      18.194   2.880  48.115  1.00  0.00    -0.257 NA
HETATM   19  C10 UNL     1      17.460   3.397  49.246  1.00  0.00     0.126 C 
HETATM   20  C11 UNL     1      17.763   3.785  50.474  1.00  0.00     0.010 C 
HETATM   21  C12 UNL     1      16.697   4.276  51.386  1.00  0.00     0.052 C 
HETATM   22  C13 UNL     1      19.202   3.706  50.889  1.00  0.00     0.287 C 
HETATM   23  F1  UNL     1      19.238   3.933  52.244  1.00  0.00    -0.195 F 
HETATM   24 CL1  UNL     1      19.990   5.069  50.067  1.00  0.00    -0.054 Cl
ENDBRANCH   7  15
BRANCH   1  25
HETATM   25  O1  UNL     1      24.841   0.173  53.771  1.00  0.00    -0.348 OA
BRANCH  25  26
HETATM   26  C2  UNL     1      25.679  -0.913  53.528  1.00  0.00     0.171 C 
HETATM   27  C1  UNL     1      26.735  -0.520  52.534  1.00  0.00     0.034 C 
ENDBRANCH  25  26
ENDBRANCH   1  25
TORSDOF 3
ENDMDL
