MODEL 1
REMARK VINA RESULT:      -7.7      0.000      0.000
REMARK  3 active torsions:
REMARK  status: ('A' for Active; 'I' for Inactive)
REMARK    1  A    between atoms: O1_2  and  C2_3 
REMARK    2  A    between atoms: C6_9  and  N3_10 
REMARK    3  A    between atoms: C15_19  and  O2_20 
ROOT
HETATM    1  C2  UNL     1      21.661   0.530  52.280  1.00  0.00     0.103 A 
HETATM    2  C3  UNL     1      21.698  -0.203  53.448  1.00  0.00     0.072 A 
HETATM    3  C4  UNL     1      22.876  -0.508  54.088  1.00  0.00     0.075 A 
HETATM    4  N1  UNL     1      22.983  -1.228  55.219  1.00  0.00    -0.241 NA
HETATM    5  C5  UNL     1      24.163  -1.506  55.795  1.00  0.00     0.236 A 
HETATM    6  N2  UNL     1      25.301  -1.062  55.246  1.00  0.00    -0.224 NA
HETATM    7  C6  UNL     1      25.316  -0.320  54.099  1.00  0.00     0.140 A 
HETATM    8  C13 UNL     1      24.072  -0.078  53.567  1.00  0.00     0.041 A 
HETATM    9  C14 UNL     1      24.048   0.643  52.419  1.00  0.00     0.057 A 
HETATM   10  C15 UNL     1      22.871   0.952  51.772  1.00  0.00     0.102 A 
ENDROOT
BRANCH   7  11
HETATM   11  N3  UNL     1      26.595   0.142  53.665  1.00  0.00    -0.357 N 
HETATM   12  C7  UNL     1      27.197  -0.668  52.587  1.00  0.00     0.129 C 
HETATM   13  C8  UNL     1      28.278  -1.564  53.197  1.00  0.00     0.047 C 
HETATM   14  C9  UNL     1      29.336  -0.681  53.741  1.00  0.00    -0.027 C 
HETATM   15  C10 UNL     1      28.940   0.540  54.070  1.00  0.00    -0.006 C 
HETATM   16  C11 UNL     1      27.560   1.171  53.976  1.00  0.00     0.104 C 
HETATM   17  C12 UNL     1      27.672   2.144  52.833  1.00  0.00     0.037 C 
ENDBRANCH   7  11
BRANCH  10  18
HETATM   18  O2  UNL     1      22.840   1.692  50.597  1.00  0.00    -0.353 OA
HETATM   19  C16 UNL     1      23.399   2.990  50.638  1.00  0.00     0.210 C 
ENDBRANCH  10  18
BRANCH   1  20
HETATM   20  O1  UNL     1      20.486   0.842  51.630  1.00  0.00    -0.353 OA
HETATM   21  C1  UNL     1      19.298   0.124  51.771  1.00  0.00     0.210 C 
ENDBRANCH   1  20
TORSDOF 3
ENDMDL
MODEL 2
REMARK VINA RESULT:      -7.5      1.193      2.112
REMARK  3 active torsions:
REMARK  status: ('A' for Active; 'I' for Inactive)
REMARK    1  A    between atoms: O1_2  and  C2_3 
REMARK    2  A    between atoms: C6_9  and  N3_10 
REMARK    3  A    between atoms: C15_19  and  O2_20 
ROOT
HETATM    1  C2  UNL     1      20.490   0.233  52.220  1.00  0.00     0.103 A 
HETATM    2  C3  UNL     1      20.581  -0.452  53.414  1.00  0.00     0.072 A 
HETATM    3  C4  UNL     1      21.787  -0.723  54.016  1.00  0.00     0.075 A 
HETATM    4  N1  UNL     1      21.946  -1.396  55.170  1.00  0.00    -0.241 NA
HETATM    5  C5  UNL     1      23.151  -1.642  55.707  1.00  0.00     0.236 A 
HETATM    6  N2  UNL     1      24.262  -1.213  55.094  1.00  0.00    -0.224 NA
HETATM    7  C6  UNL     1      24.223  -0.519  53.919  1.00  0.00     0.140 A 
HETATM    8  C13 UNL     1      22.957  -0.306  53.430  1.00  0.00     0.041 A 
HETATM    9  C14 UNL     1      22.880   0.367  52.255  1.00  0.00     0.057 A 
HETATM   10  C15 UNL     1      21.675   0.642  51.646  1.00  0.00     0.102 A 
ENDROOT
BRANCH   7  11
HETATM   11  N3  UNL     1      25.480  -0.066  53.415  1.00  0.00    -0.357 N 
HETATM   12  C7  UNL     1      26.039   1.095  54.137  1.00  0.00     0.129 C 
HETATM   13  C8  UNL     1      25.807   2.351  53.293  1.00  0.00     0.047 C 
HETATM   14  C9  UNL     1      26.574   2.192  52.035  1.00  0.00    -0.027 C 
HETATM   15  C10 UNL     1      26.811   0.941  51.672  1.00  0.00    -0.006 C 
HETATM   16  C11 UNL     1      26.413  -0.360  52.353  1.00  0.00     0.104 C 
HETATM   17  C12 UNL     1      27.700  -0.893  52.921  1.00  0.00     0.037 C 
ENDBRANCH   7  11
BRANCH  10  18
HETATM   18  O2  UNL     1      21.589   1.333  50.444  1.00  0.00    -0.353 OA
HETATM   19  C16 UNL     1      22.705   2.119  50.072  1.00  0.00     0.210 C 
ENDBRANCH  10  18
BRANCH   1  20
HETATM   20  O1  UNL     1      19.287   0.510  51.606  1.00  0.00    -0.353 OA
HETATM   21  C1  UNL     1      18.128  -0.248  51.775  1.00  0.00     0.210 C 
ENDBRANCH   1  20
TORSDOF 3
ENDMDL
MODEL 3
REMARK VINA RESULT:      -7.4      2.679      5.537
REMARK  3 active torsions:
REMARK  status: ('A' for Active; 'I' for Inactive)
REMARK    1  A    between atoms: O1_2  and  C2_3 
REMARK    2  A    between atoms: C6_9  and  N3_10 
REMARK    3  A    between atoms: C15_19  and  O2_20 
ROOT
HETATM    1  C2  UNL     1      26.974  -0.218  53.569  1.00  0.00     0.103 A 
HETATM    2  C3  UNL     1      25.748  -0.798  53.818  1.00  0.00     0.072 A 
HETATM    3  C4  UNL     1      24.563  -0.194  53.468  1.00  0.00     0.075 A 
HETATM    4  N1  UNL     1      23.337  -0.698  53.693  1.00  0.00    -0.241 NA
HETATM    5  C5  UNL     1      22.211  -0.057  53.341  1.00  0.00     0.236 A 
HETATM    6  N2  UNL     1      22.278   1.136  52.736  1.00  0.00    -0.224 NA
HETATM    7  C6  UNL     1      23.467   1.745  52.454  1.00  0.00     0.140 A 
HETATM    8  C13 UNL     1      24.574   1.031  52.846  1.00  0.00     0.041 A 
HETATM    9  C14 UNL     1      25.774   1.612  52.597  1.00  0.00     0.057 A 
HETATM   10  C15 UNL     1      26.965   1.012  52.945  1.00  0.00     0.102 A 
ENDROOT
BRANCH   7  11
HETATM   11  N3  UNL     1      23.389   2.983  51.746  1.00  0.00    -0.357 N 
HETATM   12  C7  UNL     1      22.964   2.849  50.338  1.00  0.00     0.129 C 
HETATM   13  C8  UNL     1      24.199   2.983  49.443  1.00  0.00     0.047 C 
HETATM   14  C9  UNL     1      24.734   4.353  49.623  1.00  0.00    -0.027 C 
HETATM   15  C10 UNL     1      24.440   4.927  50.780  1.00  0.00    -0.006 C 
HETATM   16  C11 UNL     1      23.637   4.390  51.955  1.00  0.00     0.104 C 
HETATM   17  C12 UNL     1      22.345   5.161  51.907  1.00  0.00     0.037 C 
ENDBRANCH   7  11
BRANCH  10  18
HETATM   18  O2  UNL     1      28.197   1.601  52.691  1.00  0.00    -0.353 OA
HETATM   19  C16 UNL     1      28.676   2.529  53.644  1.00  0.00     0.210 C 
ENDBRANCH  10  18
BRANCH   1  20
HETATM   20  O1  UNL     1      28.168  -0.813  53.915  1.00  0.00    -0.353 OA
HETATM   21  C1  UNL     1      28.800  -1.799  53.156  1.00  0.00     0.210 C 
ENDBRANCH   1  20
TORSDOF 3
ENDMDL
MODEL 4
REMARK VINA RESULT:      -7.3      2.417      5.570
REMARK  3 active torsions:
REMARK  status: ('A' for Active; 'I' for Inactive)
REMARK    1  A    between atoms: O1_2  and  C2_3 
REMARK    2  A    between atoms: C6_9  and  N3_10 
REMARK    3  A    between atoms: C15_19  and  O2_20 
ROOT
HETATM    1  C2  UNL     1      26.104  -0.430  53.498  1.00  0.00     0.103 A 
HETATM    2  C3  UNL     1      25.124  -0.944  54.322  1.00  0.00     0.072 A 
HETATM    3  C4  UNL     1      23.802  -0.582  54.208  1.00  0.00     0.075 A 
HETATM    4  N1  UNL     1      22.802  -1.034  54.985  1.00  0.00    -0.241 NA
HETATM    5  C5  UNL     1      21.529  -0.635  54.837  1.00  0.00     0.236 A 
HETATM    6  N2  UNL     1      21.207   0.248  53.882  1.00  0.00    -0.224 NA
HETATM    7  C6  UNL     1      22.138   0.774  53.033  1.00  0.00     0.140 A 
HETATM    8  C13 UNL     1      23.418   0.321  53.247  1.00  0.00     0.041 A 
HETATM    9  C14 UNL     1      24.373   0.834  52.431  1.00  0.00     0.057 A 
HETATM   10  C15 UNL     1      25.699   0.475  52.541  1.00  0.00     0.102 A 
ENDROOT
BRANCH   7  11
HETATM   11  N3  UNL     1      21.642   1.652  52.021  1.00  0.00    -0.357 N 
HETATM   12  C7  UNL     1      20.733   1.006  51.053  1.00  0.00     0.129 C 
HETATM   13  C8  UNL     1      21.506   0.750  49.756  1.00  0.00     0.047 C 
HETATM   14  C9  UNL     1      21.894   2.068  49.200  1.00  0.00    -0.027 C 
HETATM   15  C10 UNL     1      21.995   3.048  50.086  1.00  0.00    -0.006 C 
HETATM   16  C11 UNL     1      21.774   3.024  51.591  1.00  0.00     0.104 C 
HETATM   17  C12 UNL     1      20.477   3.760  51.789  1.00  0.00     0.037 C 
ENDBRANCH   7  11
BRANCH  10  18
HETATM   18  O2  UNL     1      26.681   0.996  51.707  1.00  0.00    -0.353 OA
HETATM   19  C16 UNL     1      26.740   2.403  51.582  1.00  0.00     0.210 C 
ENDBRANCH  10  18
BRANCH   1  20
HETATM   20  O1  UNL     1      27.432  -0.785  53.603  1.00  0.00    -0.353 OA
HETATM   21  C1  UNL     1      28.335  -0.187  54.481  1.00  0.00     0.210 C 
ENDBRANCH   1  20
TORSDOF 3
ENDMDL
MODEL 5
REMARK VINA RESULT:      -7.3      2.936      6.541
REMARK  3 active torsions:
REMARK  status: ('A' for Active; 'I' for Inactive)
REMARK    1  A    between atoms: O1_2  and  C2_3 
REMARK    2  A    between atoms: C6_9  and  N3_10 
REMARK    3  A    between atoms: C15_19  and  O2_20 
ROOT
HETATM    1  C2  UNL     1      26.548   0.449  53.610  1.00  0.00     0.103 A 
HETATM    2  C3  UNL     1      27.114   1.377  52.760  1.00  0.00     0.072 A 
HETATM    3  C4  UNL     1      26.389   2.019  51.784  1.00  0.00     0.075 A 
HETATM    4  N1  UNL     1      26.881   2.921  50.916  1.00  0.00    -0.241 NA
HETATM    5  C5  UNL     1      26.127   3.509  49.973  1.00  0.00     0.236 A 
HETATM    6  N2  UNL     1      24.827   3.208  49.867  1.00  0.00    -0.224 NA
HETATM    7  C6  UNL     1      24.217   2.308  50.694  1.00  0.00     0.140 A 
HETATM    8  C13 UNL     1      25.051   1.746  51.631  1.00  0.00     0.041 A 
HETATM    9  C14 UNL     1      24.484   0.836  52.461  1.00  0.00     0.057 A 
HETATM   10  C15 UNL     1      25.205   0.189  53.441  1.00  0.00     0.102 A 
ENDROOT
BRANCH   7  11
HETATM   11  N3  UNL     1      22.811   2.136  50.510  1.00  0.00    -0.357 N 
HETATM   12  C7  UNL     1      22.004   3.319  50.870  1.00  0.00     0.129 C 
HETATM   13  C8  UNL     1      21.355   3.068  52.234  1.00  0.00     0.047 C 
HETATM   14  C9  UNL     1      20.430   1.921  52.084  1.00  0.00    -0.027 C 
HETATM   15  C10 UNL     1      20.723   1.083  51.101  1.00  0.00    -0.006 C 
HETATM   16  C11 UNL     1      21.869   1.120  50.102  1.00  0.00     0.104 C 
HETATM   17  C12 UNL     1      21.218   1.505  48.801  1.00  0.00     0.037 C 
ENDBRANCH   7  11
BRANCH  10  18
HETATM   18  O2  UNL     1      24.629  -0.743  54.295  1.00  0.00    -0.353 OA
HETATM   19  C16 UNL     1      23.218  -0.831  54.296  1.00  0.00     0.210 C 
ENDBRANCH  10  18
BRANCH   1  20
HETATM   20  O1  UNL     1      27.265  -0.201  54.592  1.00  0.00    -0.353 OA
HETATM   21  C1  UNL     1      28.598   0.072  54.899  1.00  0.00     0.210 C 
ENDBRANCH   1  20
TORSDOF 3
ENDMDL
MODEL 6
REMARK VINA RESULT:      -7.1      1.977      3.303
REMARK  3 active torsions:
REMARK  status: ('A' for Active; 'I' for Inactive)
REMARK    1  A    between atoms: O1_2  and  C2_3 
REMARK    2  A    between atoms: C6_9  and  N3_10 
REMARK    3  A    between atoms: C15_19  and  O2_20 
ROOT
HETATM    1  C2  UNL     1      19.875  -0.589  53.296  1.00  0.00     0.103 A 
HETATM    2  C3  UNL     1      20.619  -1.228  54.266  1.00  0.00     0.072 A 
HETATM    3  C4  UNL     1      21.967  -1.009  54.422  1.00  0.00     0.075 A 
HETATM    4  N1  UNL     1      22.751  -1.608  55.336  1.00  0.00    -0.241 NA
HETATM    5  C5  UNL     1      24.068  -1.366  55.435  1.00  0.00     0.236 A 
HETATM    6  N2  UNL     1      24.657  -0.497  54.603  1.00  0.00    -0.224 NA
HETATM    7  C6  UNL     1      23.962   0.172  53.636  1.00  0.00     0.140 A 
HETATM    8  C13 UNL     1      22.621  -0.129  53.595  1.00  0.00     0.041 A 
HETATM    9  C14 UNL     1      21.901   0.504  52.636  1.00  0.00     0.057 A 
HETATM   10  C15 UNL     1      20.549   0.291  52.475  1.00  0.00     0.102 A 
ENDROOT
BRANCH   7  11
HETATM   11  N3  UNL     1      24.705   1.117  52.867  1.00  0.00    -0.357 N 
HETATM   12  C7  UNL     1      24.960   2.395  53.562  1.00  0.00     0.129 C 
HETATM   13  C8  UNL     1      23.995   3.450  53.011  1.00  0.00     0.047 C 
HETATM   14  C9  UNL     1      24.317   3.644  51.579  1.00  0.00    -0.027 C 
HETATM   15  C10 UNL     1      24.899   2.614  50.984  1.00  0.00    -0.006 C 
HETATM   16  C11 UNL     1      25.286   1.256  51.552  1.00  0.00     0.104 C 
HETATM   17  C12 UNL     1      26.787   1.306  51.647  1.00  0.00     0.037 C 
ENDBRANCH   7  11
BRANCH  10  18
HETATM   18  O2  UNL     1      19.805   0.938  51.496  1.00  0.00    -0.353 OA
HETATM   19  C16 UNL     1      19.475   2.294  51.729  1.00  0.00     0.210 C 
ENDBRANCH  10  18
BRANCH   1  20
HETATM   20  O1  UNL     1      18.523  -0.798  53.130  1.00  0.00    -0.353 OA
HETATM   21  C1  UNL     1      17.857  -1.960  53.521  1.00  0.00     0.210 C 
ENDBRANCH   1  20
TORSDOF 3
ENDMDL
MODEL 7
REMARK VINA RESULT:      -7.1      2.058      3.497
REMARK  3 active torsions:
REMARK  status: ('A' for Active; 'I' for Inactive)
REMARK    1  A    between atoms: O1_2  and  C2_3 
REMARK    2  A    between atoms: C6_9  and  N3_10 
REMARK    3  A    between atoms: C15_19  and  O2_20 
ROOT
HETATM    1  C2  UNL     1      20.871   0.303  52.281  1.00  0.00     0.103 A 
HETATM    2  C3  UNL     1      21.139   1.177  51.248  1.00  0.00     0.072 A 
HETATM    3  C4  UNL     1      22.396   1.687  51.024  1.00  0.00     0.075 A 
HETATM    4  N1  UNL     1      22.721   2.551  50.046  1.00  0.00    -0.241 NA
HETATM    5  C5  UNL     1      23.965   3.028  49.881  1.00  0.00     0.236 A 
HETATM    6  N2  UNL     1      24.947   2.646  50.708  1.00  0.00    -0.224 NA
HETATM    7  C6  UNL     1      24.736   1.772  51.735  1.00  0.00     0.140 A 
HETATM    8  C13 UNL     1      23.439   1.329  51.843  1.00  0.00     0.041 A 
HETATM    9  C14 UNL     1      23.187   0.471  52.862  1.00  0.00     0.057 A 
HETATM   10  C15 UNL     1      21.930  -0.044  53.092  1.00  0.00     0.102 A 
ENDROOT
BRANCH   7  11
HETATM   11  N3  UNL     1      25.887   1.402  52.494  1.00  0.00    -0.357 N 
HETATM   12  C7  UNL     1      26.718   0.357  51.861  1.00  0.00     0.129 C 
HETATM   13  C8  UNL     1      26.440  -0.976  52.561  1.00  0.00     0.047 C 
HETATM   14  C9  UNL     1      26.880  -0.842  53.969  1.00  0.00    -0.027 C 
HETATM   15  C10 UNL     1      26.892   0.395  54.443  1.00  0.00    -0.006 C 
HETATM   16  C11 UNL     1      26.518   1.701  53.758  1.00  0.00     0.104 C 
HETATM   17  C12 UNL     1      27.835   2.394  53.533  1.00  0.00     0.037 C 
ENDBRANCH   7  11
BRANCH  10  18
HETATM   18  O2  UNL     1      21.667  -0.925  54.134  1.00  0.00    -0.353 OA
HETATM   19  C16 UNL     1      22.727  -1.203  55.027  1.00  0.00     0.210 C 
ENDBRANCH  10  18
BRANCH   1  20
HETATM   20  O1  UNL     1      19.615  -0.216  52.516  1.00  0.00    -0.353 OA
HETATM   21  C1  UNL     1      18.551  -0.128  51.618  1.00  0.00     0.210 C 
ENDBRANCH   1  20
TORSDOF 3
ENDMDL
MODEL 8
REMARK VINA RESULT:      -7.1      2.466      5.958
REMARK  3 active torsions:
REMARK  status: ('A' for Active; 'I' for Inactive)
REMARK    1  A    between atoms: O1_2  and  C2_3 
REMARK    2  A    between atoms: C6_9  and  N3_10 
REMARK    3  A    between atoms: C15_19  and  O2_20 
ROOT
HETATM    1  C2  UNL     1      27.263   1.297  52.959  1.00  0.00     0.103 A 
HETATM    2  C3  UNL     1      26.616   0.394  53.777  1.00  0.00     0.072 A 
HETATM    3  C4  UNL     1      25.267   0.146  53.676  1.00  0.00     0.075 A 
HETATM    4  N1  UNL     1      24.574  -0.709  54.449  1.00  0.00    -0.241 NA
HETATM    5  C5  UNL     1      23.253  -0.903  54.315  1.00  0.00     0.236 A 
HETATM    6  N2  UNL     1      22.565  -0.232  53.381  1.00  0.00    -0.224 NA
HETATM    7  C6  UNL     1      23.163   0.661  52.538  1.00  0.00     0.140 A 
HETATM    8  C13 UNL     1      24.515   0.808  52.736  1.00  0.00     0.041 A 
HETATM    9  C14 UNL     1      25.140   1.698  51.927  1.00  0.00     0.057 A 
HETATM   10  C15 UNL     1      26.491   1.951  52.022  1.00  0.00     0.102 A 
ENDROOT
BRANCH   7  11
HETATM   11  N3  UNL     1      22.321   1.252  51.547  1.00  0.00    -0.357 N 
HETATM   12  C7  UNL     1      21.552   2.419  52.026  1.00  0.00     0.129 C 
HETATM   13  C8  UNL     1      20.108   1.978  52.280  1.00  0.00     0.047 C 
HETATM   14  C9  UNL     1      19.532   1.562  50.981  1.00  0.00    -0.027 C 
HETATM   15  C10 UNL     1      20.411   1.155  50.077  1.00  0.00    -0.006 C 
HETATM   16  C11 UNL     1      21.925   1.050  50.173  1.00  0.00     0.104 C 
HETATM   17  C12 UNL     1      22.433   2.176  49.313  1.00  0.00     0.037 C 
ENDBRANCH   7  11
BRANCH  10  18
HETATM   18  O2  UNL     1      27.138   2.861  51.195  1.00  0.00    -0.353 OA
HETATM   19  C16 UNL     1      26.440   3.294  50.043  1.00  0.00     0.210 C 
ENDBRANCH  10  18
BRANCH   1  20
HETATM   20  O1  UNL     1      28.614   1.554  53.049  1.00  0.00    -0.353 OA
HETATM   21  C1  UNL     1      29.369   1.377  54.209  1.00  0.00     0.210 C 
ENDBRANCH   1  20
TORSDOF 3
ENDMDL
MODEL 9
REMARK VINA RESULT:      -6.9      2.842      6.551
REMARK  3 active torsions:
REMARK  status: ('A' for Active; 'I' for Inactive)
REMARK    1  A    between atoms: O1_2  and  C2_3 
REMARK    2  A    between atoms: C6_9  and  N3_10 
REMARK    3  A    between atoms: C15_19  and  O2_20 
ROOT
HETATM    1  C2  UNL     1      26.313   1.494  53.865  1.00  0.00     0.103 A 
HETATM    2  C3  UNL     1      25.769   2.721  53.547  1.00  0.00     0.072 A 
HETATM    3  C4  UNL     1      24.462   2.864  53.145  1.00  0.00     0.075 A 
HETATM    4  N1  UNL     1      23.875   4.026  52.808  1.00  0.00    -0.241 NA
HETATM    5  C5  UNL     1      22.596   4.105  52.408  1.00  0.00     0.236 A 
HETATM    6  N2  UNL     1      21.844   2.999  52.333  1.00  0.00    -0.224 NA
HETATM    7  C6  UNL     1      22.332   1.764  52.651  1.00  0.00     0.140 A 
HETATM    8  C13 UNL     1      23.648   1.761  53.048  1.00  0.00     0.041 A 
HETATM    9  C14 UNL     1      24.172   0.549  53.358  1.00  0.00     0.057 A 
HETATM   10  C15 UNL     1      25.481   0.399  53.762  1.00  0.00     0.102 A 
ENDROOT
BRANCH   7  11
HETATM   11  N3  UNL     1      21.400   0.684  52.589  1.00  0.00    -0.357 N 
HETATM   12  C7  UNL     1      21.277   0.068  51.252  1.00  0.00     0.129 C 
HETATM   13  C8  UNL     1      19.985   0.570  50.602  1.00  0.00     0.047 C 
HETATM   14  C9  UNL     1      18.853   0.085  51.427  1.00  0.00    -0.027 C 
HETATM   15  C10 UNL     1      19.142  -0.159  52.696  1.00  0.00    -0.006 C 
HETATM   16  C11 UNL     1      20.463  -0.015  53.437  1.00  0.00     0.104 C 
HETATM   17  C12 UNL     1      20.920  -1.431  53.664  1.00  0.00     0.037 C 
ENDBRANCH   7  11
BRANCH  10  18
HETATM   18  O2  UNL     1      26.023  -0.839  54.082  1.00  0.00    -0.353 OA
HETATM   19  C16 UNL     1      26.531  -1.615  53.015  1.00  0.00     0.210 C 
ENDBRANCH  10  18
BRANCH   1  20
HETATM   20  O1  UNL     1      27.621   1.337  54.271  1.00  0.00    -0.353 OA
HETATM   21  C1  UNL     1      28.727   1.542  53.444  1.00  0.00     0.210 C 
ENDBRANCH   1  20
TORSDOF 3
ENDMDL
