MODEL 1
REMARK VINA RESULT:      -7.6      0.000      0.000
REMARK  5 active torsions:
REMARK  status: ('A' for Active; 'I' for Inactive)
REMARK    1  A    between atoms: C7_8  and  N1_9 
REMARK    2  A    between atoms: C8_10  and  N2_11 
REMARK    3  A    between atoms: C9_12  and  N3_13 
REMARK    4  A    between atoms: N3_13  and  C10_14 
REMARK    5  A    between atoms: C10_14  and  C12_16 
ROOT
HETATM    1  C1  UNL     1      24.439  -0.869  54.660  1.00  0.00     0.021 C 
HETATM    2  C2  UNL     1      23.359  -0.542  53.970  1.00  0.00    -0.038 C 
HETATM    3  C3  UNL     1      22.104  -1.158  54.511  1.00  0.00     0.040 C 
HETATM    4  C4  UNL     1      21.139  -0.035  54.786  1.00  0.00     0.005 C 
HETATM    5  C5  UNL     1      20.019   0.055  53.786  1.00  0.00     0.011 C 
HETATM    6  C6  UNL     1      20.215   1.148  52.766  1.00  0.00     0.081 C 
HETATM    7  S1  UNL     1      21.274   0.662  51.394  1.00  0.00    -0.108 SA
HETATM    8  C7  UNL     1      22.983   0.800  51.893  1.00  0.00     0.121 C 
HETATM    9  C9  UNL     1      23.770   0.344  52.868  1.00  0.00     0.070 C 
ENDROOT
BRANCH   9  10
HETATM   10  N3  UNL     1      25.132   0.731  52.851  1.00  0.00    -0.379 N 
HETATM   11  H14 UNL     1      25.093   0.260  53.809  1.00  0.00     0.160 HD
BRANCH  10  12
HETATM   12  C10 UNL     1      26.508   1.122  52.834  1.00  0.00     0.111 C 
HETATM   13  C11 UNL     1      26.871   2.122  53.925  1.00  0.00     0.037 C 
BRANCH  12  14
HETATM   14  C12 UNL     1      27.363  -0.097  52.948  1.00  0.00    -0.036 A 
HETATM   15  C13 UNL     1      28.630  -0.079  53.501  1.00  0.00     0.009 A 
HETATM   16  C14 UNL     1      29.423  -1.204  53.609  1.00  0.00     0.001 A 
HETATM   17  C15 UNL     1      28.959  -2.421  53.152  1.00  0.00     0.000 A 
HETATM   18  C16 UNL     1      27.696  -2.440  52.601  1.00  0.00     0.001 A 
HETATM   19  C17 UNL     1      26.917  -1.320  52.497  1.00  0.00     0.009 A 
ENDBRANCH  12  14
ENDBRANCH  10  12
ENDBRANCH   9  10
BRANCH   8  20
HETATM   20  N1  UNL     1      23.814   1.625  51.051  1.00  0.00    -0.235 NA
HETATM   21  C8  UNL     1      23.286   2.413  50.177  1.00  0.00     0.201 C 
BRANCH  21  22
HETATM   22  N2  UNL     1      23.590   3.366  49.168  1.00  0.00    -0.394 N 
HETATM   23  H12 UNL     1      24.531   3.840  49.043  1.00  0.00     0.156 HD
HETATM   24  H13 UNL     1      22.877   3.670  48.461  1.00  0.00     0.156 HD
ENDBRANCH  21  22
ENDBRANCH   8  20
TORSDOF 5
ENDMDL
MODEL 2
REMARK VINA RESULT:      -6.8      2.690      4.660
REMARK  5 active torsions:
REMARK  status: ('A' for Active; 'I' for Inactive)
REMARK    1  A    between atoms: C7_8  and  N1_9 
REMARK    2  A    between atoms: C8_10  and  N2_11 
REMARK    3  A    between atoms: C9_12  and  N3_13 
REMARK    4  A    between atoms: N3_13  and  C10_14 
REMARK    5  A    between atoms: C10_14  and  C12_16 
ROOT
HETATM    1  C1  UNL     1      21.555   0.642  50.099  1.00  0.00     0.021 C 
HETATM    2  C2  UNL     1      21.698   1.809  49.493  1.00  0.00    -0.038 C 
HETATM    3  C3  UNL     1      20.984   1.882  48.177  1.00  0.00     0.040 C 
HETATM    4  C4  UNL     1      20.061   3.071  48.236  1.00  0.00     0.005 C 
HETATM    5  C5  UNL     1      20.540   4.245  47.427  1.00  0.00     0.011 C 
HETATM    6  C6  UNL     1      21.171   5.330  48.263  1.00  0.00     0.081 C 
HETATM    7  S1  UNL     1      22.900   5.016  48.653  1.00  0.00    -0.108 SA
HETATM    8  C7  UNL     1      22.994   3.880  50.028  1.00  0.00     0.121 C 
HETATM    9  C9  UNL     1      22.538   2.667  50.344  1.00  0.00     0.070 C 
ENDROOT
BRANCH   9  10
HETATM   10  N3  UNL     1      22.896   2.137  51.608  1.00  0.00    -0.379 N 
HETATM   11  H14 UNL     1      23.860   2.167  51.148  1.00  0.00     0.160 HD
BRANCH  10  12
HETATM   12  C10 UNL     1      23.257   1.603  52.884  1.00  0.00     0.111 C 
HETATM   13  C11 UNL     1      22.182   0.717  53.502  1.00  0.00     0.037 C 
BRANCH  12  14
HETATM   14  C12 UNL     1      24.536   0.843  52.752  1.00  0.00    -0.036 A 
HETATM   15  C13 UNL     1      25.579   1.258  51.945  1.00  0.00     0.009 A 
HETATM   16  C14 UNL     1      26.763   0.560  51.822  1.00  0.00     0.001 A 
HETATM   17  C15 UNL     1      26.947  -0.614  52.523  1.00  0.00     0.000 A 
HETATM   18  C16 UNL     1      25.908  -1.030  53.328  1.00  0.00     0.001 A 
HETATM   19  C17 UNL     1      24.738  -0.331  53.445  1.00  0.00     0.009 A 
ENDBRANCH  12  14
ENDBRANCH  10  12
ENDBRANCH   9  10
BRANCH   8  20
HETATM   20  N1  UNL     1      23.766   4.332  51.160  1.00  0.00    -0.235 NA
HETATM   21  C8  UNL     1      23.770   5.578  51.496  1.00  0.00     0.201 C 
BRANCH  21  22
HETATM   22  N2  UNL     1      24.299   6.505  52.433  1.00  0.00    -0.394 N 
HETATM   23  H12 UNL     1      24.441   6.311  53.466  1.00  0.00     0.156 HD
HETATM   24  H13 UNL     1      24.591   7.473  52.150  1.00  0.00     0.156 HD
ENDBRANCH  21  22
ENDBRANCH   8  20
TORSDOF 5
ENDMDL
MODEL 3
REMARK VINA RESULT:      -6.8      2.449      6.513
REMARK  5 active torsions:
REMARK  status: ('A' for Active; 'I' for Inactive)
REMARK    1  A    between atoms: C7_8  and  N1_9 
REMARK    2  A    between atoms: C8_10  and  N2_11 
REMARK    3  A    between atoms: C9_12  and  N3_13 
REMARK    4  A    between atoms: N3_13  and  C10_14 
REMARK    5  A    between atoms: C10_14  and  C12_16 
ROOT
HETATM    1  C1  UNL     1      25.402   2.942  50.940  1.00  0.00     0.021 C 
HETATM    2  C2  UNL     1      25.639   2.008  51.846  1.00  0.00    -0.038 C 
HETATM    3  C3  UNL     1      27.098   1.722  52.032  1.00  0.00     0.040 C 
HETATM    4  C4  UNL     1      27.409   1.914  53.493  1.00  0.00     0.005 C 
HETATM    5  C5  UNL     1      27.616   0.624  54.238  1.00  0.00     0.011 C 
HETATM    6  C6  UNL     1      26.422   0.212  55.063  1.00  0.00     0.081 C 
HETATM    7  S1  UNL     1      25.161  -0.650  54.113  1.00  0.00    -0.108 SA
HETATM    8  C7  UNL     1      24.163   0.546  53.240  1.00  0.00     0.121 C 
HETATM    9  C9  UNL     1      24.346   1.552  52.382  1.00  0.00     0.070 C 
ENDROOT
BRANCH   9  10
HETATM   10  N3  UNL     1      23.199   2.248  51.929  1.00  0.00    -0.379 N 
HETATM   11  H14 UNL     1      23.576   2.962  52.629  1.00  0.00     0.160 HD
BRANCH  10  12
HETATM   12  C10 UNL     1      22.041   2.952  51.472  1.00  0.00     0.111 C 
HETATM   13  C11 UNL     1      21.926   4.365  52.031  1.00  0.00     0.037 C 
BRANCH  12  14
HETATM   14  C12 UNL     1      22.048   2.987  49.979  1.00  0.00    -0.036 A 
HETATM   15  C13 UNL     1      21.887   4.152  49.252  1.00  0.00     0.009 A 
HETATM   16  C14 UNL     1      21.895   4.189  47.873  1.00  0.00     0.001 A 
HETATM   17  C15 UNL     1      22.069   3.024  47.153  1.00  0.00     0.000 A 
HETATM   18  C16 UNL     1      22.231   1.861  47.877  1.00  0.00     0.001 A 
HETATM   19  C17 UNL     1      22.222   1.835  49.244  1.00  0.00     0.009 A 
ENDBRANCH  12  14
ENDBRANCH  10  12
ENDBRANCH   9  10
BRANCH   8  20
HETATM   20  N1  UNL     1      22.743   0.468  53.478  1.00  0.00    -0.235 NA
HETATM   21  C8  UNL     1      22.252  -0.469  54.217  1.00  0.00     0.201 C 
BRANCH  21  22
HETATM   22  N2  UNL     1      21.040  -0.988  54.746  1.00  0.00    -0.394 N 
HETATM   23  H12 UNL     1      20.477  -1.777  54.314  1.00  0.00     0.156 HD
HETATM   24  H13 UNL     1      20.614  -0.611  55.628  1.00  0.00     0.156 HD
ENDBRANCH  21  22
ENDBRANCH   8  20
TORSDOF 5
ENDMDL
MODEL 4
REMARK VINA RESULT:      -6.7      2.093      3.891
REMARK  5 active torsions:
REMARK  status: ('A' for Active; 'I' for Inactive)
REMARK    1  A    between atoms: C7_8  and  N1_9 
REMARK    2  A    between atoms: C8_10  and  N2_11 
REMARK    3  A    between atoms: C9_12  and  N3_13 
REMARK    4  A    between atoms: N3_13  and  C10_14 
REMARK    5  A    between atoms: C10_14  and  C12_16 
ROOT
HETATM    1  C1  UNL     1      21.337  -0.065  51.339  1.00  0.00     0.021 C 
HETATM    2  C2  UNL     1      21.744   0.962  50.612  1.00  0.00    -0.038 C 
HETATM    3  C3  UNL     1      20.865   1.232  49.428  1.00  0.00     0.040 C 
HETATM    4  C4  UNL     1      20.413   2.665  49.524  1.00  0.00     0.005 C 
HETATM    5  C5  UNL     1      21.095   3.578  48.543  1.00  0.00     0.011 C 
HETATM    6  C6  UNL     1      22.190   4.410  49.162  1.00  0.00     0.081 C 
HETATM    7  S1  UNL     1      23.759   3.539  49.295  1.00  0.00    -0.108 SA
HETATM    8  C7  UNL     1      23.725   2.484  50.736  1.00  0.00     0.121 C 
HETATM    9  C9  UNL     1      22.961   1.510  51.233  1.00  0.00     0.070 C 
ENDROOT
BRANCH   9  10
HETATM   10  N3  UNL     1      23.349   0.932  52.466  1.00  0.00    -0.379 N 
HETATM   11  H14 UNL     1      22.381   0.492  52.360  1.00  0.00     0.160 HD
BRANCH  10  12
HETATM   12  C10 UNL     1      23.740   0.348  53.711  1.00  0.00     0.111 C 
HETATM   13  C11 UNL     1      22.948  -0.903  54.074  1.00  0.00     0.037 C 
BRANCH  12  14
HETATM   14  C12 UNL     1      25.200   0.038  53.669  1.00  0.00    -0.036 A 
HETATM   15  C13 UNL     1      25.769  -0.781  52.712  1.00  0.00     0.009 A 
HETATM   16  C14 UNL     1      27.119  -1.068  52.668  1.00  0.00     0.001 A 
HETATM   17  C15 UNL     1      27.969  -0.528  53.612  1.00  0.00     0.000 A 
HETATM   18  C16 UNL     1      27.403   0.289  54.567  1.00  0.00     0.001 A 
HETATM   19  C17 UNL     1      26.065   0.568  54.602  1.00  0.00     0.009 A 
ENDBRANCH  12  14
ENDBRANCH  10  12
ENDBRANCH   9  10
BRANCH   8  20
HETATM   20  N1  UNL     1      24.796   2.683  51.681  1.00  0.00    -0.235 NA
HETATM   21  C8  UNL     1      26.025   2.699  51.287  1.00  0.00     0.201 C 
BRANCH  21  22
HETATM   22  N2  UNL     1      27.365   2.841  51.735  1.00  0.00    -0.394 N 
HETATM   23  H12 UNL     1      27.665   2.875  52.752  1.00  0.00     0.156 HD
HETATM   24  H13 UNL     1      28.167   2.924  51.064  1.00  0.00     0.156 HD
ENDBRANCH  21  22
ENDBRANCH   8  20
TORSDOF 5
ENDMDL
MODEL 5
REMARK VINA RESULT:      -6.7      1.624      3.554
REMARK  5 active torsions:
REMARK  status: ('A' for Active; 'I' for Inactive)
REMARK    1  A    between atoms: C7_8  and  N1_9 
REMARK    2  A    between atoms: C8_10  and  N2_11 
REMARK    3  A    between atoms: C9_12  and  N3_13 
REMARK    4  A    between atoms: N3_13  and  C10_14 
REMARK    5  A    between atoms: C10_14  and  C12_16 
ROOT
HETATM    1  C1  UNL     1      22.330   2.377  50.692  1.00  0.00     0.021 C 
HETATM    2  C2  UNL     1      21.776   1.638  51.639  1.00  0.00    -0.038 C 
HETATM    3  C3  UNL     1      20.278   1.710  51.644  1.00  0.00     0.040 C 
HETATM    4  C4  UNL     1      19.763   0.300  51.529  1.00  0.00     0.005 C 
HETATM    5  C5  UNL     1      19.201  -0.242  52.815  1.00  0.00     0.011 C 
HETATM    6  C6  UNL     1      20.141  -1.180  53.530  1.00  0.00     0.081 C 
HETATM    7  S1  UNL     1      21.368  -0.331  54.536  1.00  0.00    -0.108 SA
HETATM    8  C7  UNL     1      22.701   0.230  53.488  1.00  0.00     0.121 C 
HETATM    9  C9  UNL     1      22.853   0.974  52.391  1.00  0.00     0.070 C 
ENDROOT
BRANCH   9  10
HETATM   10  N3  UNL     1      24.168   1.161  51.899  1.00  0.00    -0.379 N 
HETATM   11  H14 UNL     1      23.970   2.148  52.258  1.00  0.00     0.160 HD
BRANCH  10  12
HETATM   12  C10 UNL     1      25.495   1.351  51.402  1.00  0.00     0.111 C 
HETATM   13  C11 UNL     1      25.860   2.814  51.180  1.00  0.00     0.037 C 
BRANCH  12  14
HETATM   14  C12 UNL     1      26.465   0.716  52.344  1.00  0.00    -0.036 A 
HETATM   15  C13 UNL     1      26.873  -0.600  52.231  1.00  0.00     0.009 A 
HETATM   16  C14 UNL     1      27.771  -1.190  53.098  1.00  0.00     0.001 A 
HETATM   17  C15 UNL     1      28.304  -0.459  54.140  1.00  0.00     0.000 A 
HETATM   18  C16 UNL     1      27.897   0.854  54.255  1.00  0.00     0.001 A 
HETATM   19  C17 UNL     1      27.007   1.430  53.390  1.00  0.00     0.009 A 
ENDBRANCH  12  14
ENDBRANCH  10  12
ENDBRANCH   9  10
BRANCH   8  20
HETATM   20  N1  UNL     1      24.021  -0.207  53.869  1.00  0.00    -0.235 NA
HETATM   21  C8  UNL     1      24.221  -0.776  55.010  1.00  0.00     0.201 C 
BRANCH  21  22
HETATM   22  N2  UNL     1      25.219  -1.356  55.837  1.00  0.00    -0.394 N 
HETATM   23  H12 UNL     1      26.014  -0.822  56.295  1.00  0.00     0.156 HD
HETATM   24  H13 UNL     1      25.231  -2.382  56.054  1.00  0.00     0.156 HD
ENDBRANCH  21  22
ENDBRANCH   8  20
TORSDOF 5
ENDMDL
MODEL 6
REMARK VINA RESULT:      -6.6      3.085      5.489
REMARK  5 active torsions:
REMARK  status: ('A' for Active; 'I' for Inactive)
REMARK    1  A    between atoms: C7_8  and  N1_9 
REMARK    2  A    between atoms: C8_10  and  N2_11 
REMARK    3  A    between atoms: C9_12  and  N3_13 
REMARK    4  A    between atoms: N3_13  and  C10_14 
REMARK    5  A    between atoms: C10_14  and  C12_16 
ROOT
HETATM    1  C1  UNL     1      21.515   0.880  49.427  1.00  0.00     0.021 C 
HETATM    2  C2  UNL     1      21.245   2.166  49.274  1.00  0.00    -0.038 C 
HETATM    3  C3  UNL     1      20.132   2.423  48.304  1.00  0.00     0.040 C 
HETATM    4  C4  UNL     1      19.091   3.239  49.025  1.00  0.00     0.005 C 
HETATM    5  C5  UNL     1      19.063   4.683  48.607  1.00  0.00     0.011 C 
HETATM    6  C6  UNL     1      19.741   5.604  49.591  1.00  0.00     0.081 C 
HETATM    7  S1  UNL     1      21.527   5.679  49.385  1.00  0.00    -0.108 SA
HETATM    8  C7  UNL     1      22.269   4.261  50.178  1.00  0.00     0.121 C 
HETATM    9  C9  UNL     1      22.161   2.932  50.135  1.00  0.00     0.070 C 
ENDROOT
BRANCH   9  10
HETATM   10  N3  UNL     1      23.005   2.174  50.983  1.00  0.00    -0.379 N 
HETATM   11  H14 UNL     1      22.985   3.094  51.527  1.00  0.00     0.160 HD
BRANCH  10  12
HETATM   12  C10 UNL     1      23.857   1.410  51.839  1.00  0.00     0.111 C 
HETATM   13  C11 UNL     1      24.927   2.242  52.536  1.00  0.00     0.037 C 
BRANCH  12  14
HETATM   14  C12 UNL     1      23.021   0.696  52.850  1.00  0.00    -0.036 A 
HETATM   15  C13 UNL     1      21.704   1.027  53.109  1.00  0.00     0.009 A 
HETATM   16  C14 UNL     1      20.928   0.368  54.041  1.00  0.00     0.001 A 
HETATM   17  C15 UNL     1      21.462  -0.676  54.768  1.00  0.00     0.000 A 
HETATM   18  C16 UNL     1      22.775  -1.008  54.511  1.00  0.00     0.001 A 
HETATM   19  C17 UNL     1      23.537  -0.350  53.585  1.00  0.00     0.009 A 
ENDBRANCH  12  14
ENDBRANCH  10  12
ENDBRANCH   9  10
BRANCH   8  20
HETATM   20  N1  UNL     1      23.284   4.554  51.160  1.00  0.00    -0.235 NA
HETATM   21  C8  UNL     1      23.555   5.775  51.479  1.00  0.00     0.201 C 
BRANCH  21  22
HETATM   22  N2  UNL     1      24.382   6.582  52.306  1.00  0.00    -0.394 N 
HETATM   23  H12 UNL     1      25.436   6.659  52.220  1.00  0.00     0.156 HD
HETATM   24  H13 UNL     1      23.985   7.172  53.078  1.00  0.00     0.156 HD
ENDBRANCH  21  22
ENDBRANCH   8  20
TORSDOF 5
ENDMDL
MODEL 7
REMARK VINA RESULT:      -6.4      4.868      7.474
REMARK  5 active torsions:
REMARK  status: ('A' for Active; 'I' for Inactive)
REMARK    1  A    between atoms: C7_8  and  N1_9 
REMARK    2  A    between atoms: C8_10  and  N2_11 
REMARK    3  A    between atoms: C9_12  and  N3_13 
REMARK    4  A    between atoms: N3_13  and  C10_14 
REMARK    5  A    between atoms: C10_14  and  C12_16 
ROOT
HETATM    1  C1  UNL     1      27.187   4.433  48.837  1.00  0.00     0.021 C 
HETATM    2  C2  UNL     1      27.024   5.741  48.945  1.00  0.00    -0.038 C 
HETATM    3  C3  UNL     1      28.062   6.528  48.203  1.00  0.00     0.040 C 
HETATM    4  C4  UNL     1      27.334   7.448  47.258  1.00  0.00     0.005 C 
HETATM    5  C5  UNL     1      27.336   8.886  47.698  1.00  0.00     0.011 C 
HETATM    6  C6  UNL     1      26.035   9.322  48.323  1.00  0.00     0.081 C 
HETATM    7  S1  UNL     1      25.901   8.890  50.065  1.00  0.00    -0.108 SA
HETATM    8  C7  UNL     1      25.415   7.178  50.210  1.00  0.00     0.121 C 
HETATM    9  C9  UNL     1      25.841   5.988  49.785  1.00  0.00     0.070 C 
ENDROOT
BRANCH   9  10
HETATM   10  N3  UNL     1      25.102   4.845  50.177  1.00  0.00    -0.379 N 
HETATM   11  H14 UNL     1      24.798   4.911  49.155  1.00  0.00     0.160 HD
BRANCH  10  12
HETATM   12  C10 UNL     1      24.357   3.691  50.573  1.00  0.00     0.111 C 
HETATM   13  C11 UNL     1      23.936   2.806  49.406  1.00  0.00     0.037 C 
BRANCH  12  14
HETATM   14  C12 UNL     1      25.160   2.902  51.554  1.00  0.00    -0.036 A 
HETATM   15  C13 UNL     1      26.276   2.168  51.197  1.00  0.00     0.009 A 
HETATM   16  C14 UNL     1      27.022   1.439  52.101  1.00  0.00     0.001 A 
HETATM   17  C15 UNL     1      26.664   1.420  53.434  1.00  0.00     0.000 A 
HETATM   18  C16 UNL     1      25.551   2.152  53.792  1.00  0.00     0.001 A 
HETATM   19  C17 UNL     1      24.818   2.871  52.889  1.00  0.00     0.009 A 
ENDBRANCH  12  14
ENDBRANCH  10  12
ENDBRANCH   9  10
BRANCH   8  20
HETATM   20  N1  UNL     1      24.231   6.930  50.995  1.00  0.00    -0.235 NA
HETATM   21  C8  UNL     1      23.107   7.483  50.682  1.00  0.00     0.201 C 
BRANCH  21  22
HETATM   22  N2  UNL     1      21.743   7.590  51.061  1.00  0.00    -0.394 N 
HETATM   23  H12 UNL     1      21.264   8.489  51.359  1.00  0.00     0.156 HD
HETATM   24  H13 UNL     1      21.104   6.758  51.070  1.00  0.00     0.156 HD
ENDBRANCH  21  22
ENDBRANCH   8  20
TORSDOF 5
ENDMDL
MODEL 8
REMARK VINA RESULT:      -6.4      2.228      4.051
REMARK  5 active torsions:
REMARK  status: ('A' for Active; 'I' for Inactive)
REMARK    1  A    between atoms: C7_8  and  N1_9 
REMARK    2  A    between atoms: C8_10  and  N2_11 
REMARK    3  A    between atoms: C9_12  and  N3_13 
REMARK    4  A    between atoms: N3_13  and  C10_14 
REMARK    5  A    between atoms: C10_14  and  C12_16 
ROOT
HETATM    1  C1  UNL     1      24.538   2.116  51.650  1.00  0.00     0.021 C 
HETATM    2  C2  UNL     1      23.296   2.150  51.195  1.00  0.00    -0.038 C 
HETATM    3  C3  UNL     1      23.160   2.906  49.908  1.00  0.00     0.040 C 
HETATM    4  C4  UNL     1      22.517   1.978  48.910  1.00  0.00     0.005 C 
HETATM    5  C5  UNL     1      21.077   2.305  48.626  1.00  0.00     0.011 C 
HETATM    6  C6  UNL     1      20.106   1.398  49.339  1.00  0.00     0.081 C 
HETATM    7  S1  UNL     1      19.783   1.892  51.039  1.00  0.00    -0.108 SA
HETATM    8  C7  UNL     1      21.112   1.313  52.081  1.00  0.00     0.121 C 
HETATM    9  C9  UNL     1      22.441   1.412  52.138  1.00  0.00     0.070 C 
ENDROOT
BRANCH   9  10
HETATM   10  N3  UNL     1      23.105   0.759  53.206  1.00  0.00    -0.379 N 
HETATM   11  H14 UNL     1      23.440   1.760  53.373  1.00  0.00     0.160 HD
BRANCH  10  12
HETATM   12  C10 UNL     1      23.776   0.100  54.283  1.00  0.00     0.111 C 
HETATM   13  C11 UNL     1      23.106  -1.198  54.716  1.00  0.00     0.037 C 
BRANCH  12  14
HETATM   14  C12 UNL     1      25.194  -0.157  53.893  1.00  0.00    -0.036 A 
HETATM   15  C13 UNL     1      26.269   0.439  54.524  1.00  0.00     0.009 A 
HETATM   16  C14 UNL     1      27.581   0.201  54.166  1.00  0.00     0.001 A 
HETATM   17  C15 UNL     1      27.868  -0.667  53.132  1.00  0.00     0.000 A 
HETATM   18  C16 UNL     1      26.796  -1.262  52.502  1.00  0.00     0.001 A 
HETATM   19  C17 UNL     1      25.499  -1.021  52.863  1.00  0.00     0.009 A 
ENDBRANCH  12  14
ENDBRANCH  10  12
ENDBRANCH   9  10
BRANCH   8  20
HETATM   20  N1  UNL     1      20.716   0.499  53.204  1.00  0.00    -0.235 NA
HETATM   21  C8  UNL     1      19.690  -0.280  53.120  1.00  0.00     0.201 C 
BRANCH  21  22
HETATM   22  N2  UNL     1      18.910  -1.221  53.843  1.00  0.00    -0.394 N 
HETATM   23  H12 UNL     1      18.711  -2.215  53.529  1.00  0.00     0.156 HD
HETATM   24  H13 UNL     1      18.468  -0.983  54.765  1.00  0.00     0.156 HD
ENDBRANCH  21  22
ENDBRANCH   8  20
TORSDOF 5
ENDMDL
MODEL 9
REMARK VINA RESULT:      -6.3      3.796      6.865
REMARK  5 active torsions:
REMARK  status: ('A' for Active; 'I' for Inactive)
REMARK    1  A    between atoms: C7_8  and  N1_9 
REMARK    2  A    between atoms: C8_10  and  N2_11 
REMARK    3  A    between atoms: C9_12  and  N3_13 
REMARK    4  A    between atoms: N3_13  and  C10_14 
REMARK    5  A    between atoms: C10_14  and  C12_16 
ROOT
HETATM    1  C1  UNL     1      26.798   4.330  49.303  1.00  0.00     0.021 C 
HETATM    2  C2  UNL     1      26.013   5.384  49.453  1.00  0.00    -0.038 C 
HETATM    3  C3  UNL     1      26.378   6.524  48.550  1.00  0.00     0.040 C 
HETATM    4  C4  UNL     1      25.146   6.878  47.758  1.00  0.00     0.005 C 
HETATM    5  C5  UNL     1      24.489   8.153  48.208  1.00  0.00     0.011 C 
HETATM    6  C6  UNL     1      23.263   7.927  49.057  1.00  0.00     0.081 C 
HETATM    7  S1  UNL     1      23.642   7.625  50.791  1.00  0.00    -0.108 SA
HETATM    8  C7  UNL     1      24.120   5.917  50.998  1.00  0.00     0.121 C 
HETATM    9  C9  UNL     1      25.018   5.071  50.491  1.00  0.00     0.070 C 
ENDROOT
BRANCH   9  10
HETATM   10  N3  UNL     1      25.033   3.747  50.993  1.00  0.00    -0.379 N 
HETATM   11  H14 UNL     1      24.481   3.589  50.092  1.00  0.00     0.160 HD
BRANCH  10  12
HETATM   12  C10 UNL     1      25.048   2.410  51.500  1.00  0.00     0.111 C 
HETATM   13  C11 UNL     1      25.390   2.323  52.983  1.00  0.00     0.037 C 
BRANCH  12  14
HETATM   14  C12 UNL     1      23.722   1.773  51.240  1.00  0.00    -0.036 A 
HETATM   15  C13 UNL     1      23.073   0.979  52.165  1.00  0.00     0.009 A 
HETATM   16  C14 UNL     1      21.847   0.390  51.929  1.00  0.00     0.001 A 
HETATM   17  C15 UNL     1      21.212   0.583  50.719  1.00  0.00     0.000 A 
HETATM   18  C16 UNL     1      21.858   1.376  49.794  1.00  0.00     0.001 A 
HETATM   19  C17 UNL     1      23.073   1.955  50.037  1.00  0.00     0.009 A 
ENDBRANCH  12  14
ENDBRANCH  10  12
ENDBRANCH   9  10
BRANCH   8  20
HETATM   20  N1  UNL     1      23.366   5.172  51.976  1.00  0.00    -0.235 NA
HETATM   21  C8  UNL     1      22.119   4.903  51.777  1.00  0.00     0.201 C 
BRANCH  21  22
HETATM   22  N2  UNL     1      20.986   4.262  52.344  1.00  0.00    -0.394 N 
HETATM   23  H12 UNL     1      20.041   4.722  52.496  1.00  0.00     0.156 HD
HETATM   24  H13 UNL     1      21.014   3.261  52.658  1.00  0.00     0.156 HD
ENDBRANCH  21  22
ENDBRANCH   8  20
TORSDOF 5
ENDMDL
