MODEL 1
REMARK VINA RESULT:     -10.0      0.000      0.000
REMARK  5 active torsions:
REMARK  status: ('A' for Active; 'I' for Inactive)
REMARK    1  A    between atoms: C4_4  and  O1_5 
REMARK    2  A    between atoms: C9_10  and  O2_11 
REMARK    3  A    between atoms: N1_15  and  C13_16 
REMARK    4  A    between atoms: C13_16  and  C14_17 
REMARK       I    between atoms: C14_17  and  N2_19 
REMARK    5  A    between atoms: N2_19  and  C15_20 
ROOT
HETATM    1  C1  UNL     1      20.796  -1.625  54.435  1.00  0.00     0.047 C 
HETATM    2  C2  UNL     1      22.243  -1.235  54.432  1.00  0.00    -0.066 C 
HETATM    3  C3  UNL     1      23.179  -1.413  55.319  1.00  0.00     0.021 C 
HETATM    4  C4  UNL     1      24.419  -0.869  54.786  1.00  0.00     0.116 C 
HETATM    5  C5  UNL     1      25.654  -0.462  54.576  1.00  0.00     0.050 C 
HETATM    6  C6  UNL     1      26.332   0.210  53.369  1.00  0.00     0.014 A 
HETATM    7  C7  UNL     1      27.342  -0.906  53.020  1.00  0.00    -0.012 A 
HETATM    8  C8  UNL     1      28.643  -1.069  53.083  1.00  0.00     0.033 A 
HETATM    9  C9  UNL     1      29.445   0.041  53.600  1.00  0.00     0.061 A 
HETATM   10  C10 UNL     1      28.606   1.039  53.897  1.00  0.00     0.011 A 
HETATM   11  C11 UNL     1      27.127   1.366  53.860  1.00  0.00     0.045 A 
HETATM   12  C12 UNL     1      25.501   0.353  52.186  1.00  0.00     0.287 C 
HETATM   13  N1  UNL     1      24.809   1.538  51.781  1.00  0.00     0.099 NA
HETATM   14  C21 UNL     1      23.834   1.856  52.844  1.00  0.00     0.282 C 
HETATM   15  C22 UNL     1      22.743   0.910  52.787  1.00  0.00     0.046 C 
HETATM   16  C23 UNL     1      22.151  -0.187  53.339  1.00  0.00    -0.013 C 
ENDROOT
BRANCH  13  17
HETATM   17  C13 UNL     1      25.479   2.666  51.318  1.00  0.00     0.375 C 
BRANCH  17  18
HETATM   18  C14 UNL     1      24.624   3.919  51.325  1.00  0.00     0.250 C 
HETATM   19  O3  UNL     1      24.171   4.098  50.136  1.00  0.00    -0.271 OA
HETATM   20  N2  UNL     1      24.228   4.875  52.259  1.00  0.00    -0.326 N 
HETATM   21  H17 UNL     1      24.639   4.659  53.204  1.00  0.00     0.169 HD
BRANCH  20  22
HETATM   22  C15 UNL     1      23.385   5.821  51.568  1.00  0.00     0.034 A 
HETATM   23  C16 UNL     1      24.145   6.902  51.106  1.00  0.00     0.029 A 
HETATM   24  C17 UNL     1      23.387   7.836  50.413  1.00  0.00     0.002 A 
HETATM   25  C18 UNL     1      22.033   7.703  50.211  1.00  0.00     0.000 A 
HETATM   26  C19 UNL     1      21.368   6.605  50.704  1.00  0.00     0.002 A 
HETATM   27  C20 UNL     1      22.032   5.592  51.418  1.00  0.00     0.029 A 
ENDBRANCH  20  22
ENDBRANCH  17  18
ENDBRANCH  13  17
BRANCH   4  28
HETATM   28  O1  UNL     1      24.853  -1.327  56.091  1.00  0.00    -0.382 OA
HETATM   29  H5  UNL     1      24.260  -2.092  56.473  1.00  0.00     0.211 HD
ENDBRANCH   4  28
BRANCH   9  30
HETATM   30  O2  UNL     1      30.791   0.141  53.785  1.00  0.00    -0.361 OA
HETATM   31  H9  UNL     1      31.401  -0.337  53.087  1.00  0.00     0.217 HD
ENDBRANCH   9  30
TORSDOF 5
ENDMDL
MODEL 2
REMARK VINA RESULT:      -9.7      0.991      1.140
REMARK  5 active torsions:
REMARK  status: ('A' for Active; 'I' for Inactive)
REMARK    1  A    between atoms: C4_4  and  O1_5 
REMARK    2  A    between atoms: C9_10  and  O2_11 
REMARK    3  A    between atoms: N1_15  and  C13_16 
REMARK    4  A    between atoms: C13_16  and  C14_17 
REMARK       I    between atoms: C14_17  and  N2_19 
REMARK    5  A    between atoms: N2_19  and  C15_20 
ROOT
HETATM    1  C1  UNL     1      19.449  -0.903  53.453  1.00  0.00     0.047 C 
HETATM    2  C2  UNL     1      20.925  -0.726  53.651  1.00  0.00    -0.066 C 
HETATM    3  C3  UNL     1      21.724  -1.175  54.575  1.00  0.00     0.021 C 
HETATM    4  C4  UNL     1      23.074  -0.734  54.262  1.00  0.00     0.116 C 
HETATM    5  C5  UNL     1      24.366  -0.478  54.240  1.00  0.00     0.050 C 
HETATM    6  C6  UNL     1      25.256   0.276  53.236  1.00  0.00     0.014 A 
HETATM    7  C7  UNL     1      26.152  -0.901  52.792  1.00  0.00    -0.012 A 
HETATM    8  C8  UNL     1      27.407  -1.255  52.945  1.00  0.00     0.033 A 
HETATM    9  C9  UNL     1      28.277  -0.368  53.719  1.00  0.00     0.061 A 
HETATM   10  C10 UNL     1      27.540   0.678  54.107  1.00  0.00     0.011 A 
HETATM   11  C11 UNL     1      26.128   1.214  53.992  1.00  0.00     0.045 A 
HETATM   12  C12 UNL     1      24.590   0.723  52.025  1.00  0.00     0.287 C 
HETATM   13  N1  UNL     1      24.102   2.044  51.771  1.00  0.00     0.099 NA
HETATM   14  C21 UNL     1      23.058   2.322  52.779  1.00  0.00     0.282 C 
HETATM   15  C22 UNL     1      21.872   1.562  52.458  1.00  0.00     0.046 C 
HETATM   16  C23 UNL     1      21.090   0.485  52.754  1.00  0.00    -0.013 C 
ENDROOT
BRANCH  13  17
HETATM   17  C13 UNL     1      24.955   3.125  51.575  1.00  0.00     0.375 C 
BRANCH  17  18
HETATM   18  C14 UNL     1      24.225   4.439  51.369  1.00  0.00     0.250 C 
HETATM   19  O3  UNL     1      23.842   4.492  50.144  1.00  0.00    -0.271 OA
HETATM   20  N2  UNL     1      23.884   5.545  52.145  1.00  0.00    -0.326 N 
HETATM   21  H17 UNL     1      24.231   5.424  53.131  1.00  0.00     0.169 HD
BRANCH  20  22
HETATM   22  C15 UNL     1      23.165   6.459  51.289  1.00  0.00     0.034 A 
HETATM   23  C16 UNL     1      24.040   7.410  50.751  1.00  0.00     0.029 A 
HETATM   24  C17 UNL     1      23.405   8.305  49.900  1.00  0.00     0.002 A 
HETATM   25  C18 UNL     1      22.059   8.254  49.626  1.00  0.00     0.000 A 
HETATM   26  C19 UNL     1      21.275   7.282  50.204  1.00  0.00     0.002 A 
HETATM   27  C20 UNL     1      21.808   6.320  51.079  1.00  0.00     0.029 A 
ENDBRANCH  20  22
ENDBRANCH  17  18
ENDBRANCH  13  17
BRANCH   4  28
HETATM   28  O1  UNL     1      23.296  -1.452  55.501  1.00  0.00    -0.382 OA
HETATM   29  H5  UNL     1      22.476  -2.023  55.794  1.00  0.00     0.211 HD
ENDBRANCH   4  28
BRANCH   9  30
HETATM   30  O2  UNL     1      29.594  -0.490  54.041  1.00  0.00    -0.361 OA
HETATM   31  H9  UNL     1      29.857  -0.304  55.033  1.00  0.00     0.217 HD
ENDBRANCH   9  30
TORSDOF 5
ENDMDL
MODEL 3
REMARK VINA RESULT:      -9.4      2.257      3.320
REMARK  5 active torsions:
REMARK  status: ('A' for Active; 'I' for Inactive)
REMARK    1  A    between atoms: C4_4  and  O1_5 
REMARK    2  A    between atoms: C9_10  and  O2_11 
REMARK    3  A    between atoms: N1_15  and  C13_16 
REMARK    4  A    between atoms: C13_16  and  C14_17 
REMARK       I    between atoms: C14_17  and  N2_19 
REMARK    5  A    between atoms: N2_19  and  C15_20 
ROOT
HETATM    1  C1  UNL     1      18.963  -1.818  53.479  1.00  0.00     0.047 C 
HETATM    2  C2  UNL     1      20.291  -1.120  53.502  1.00  0.00    -0.066 C 
HETATM    3  C3  UNL     1      21.366  -1.351  54.198  1.00  0.00     0.021 C 
HETATM    4  C4  UNL     1      22.382  -0.390  53.797  1.00  0.00     0.116 C 
HETATM    5  C5  UNL     1      23.468   0.339  53.648  1.00  0.00     0.050 C 
HETATM    6  C6  UNL     1      23.813   1.504  52.703  1.00  0.00     0.014 A 
HETATM    7  C7  UNL     1      24.956   0.829  51.912  1.00  0.00    -0.012 A 
HETATM    8  C8  UNL     1      26.258   0.964  51.816  1.00  0.00     0.033 A 
HETATM    9  C9  UNL     1      26.899   2.002  52.625  1.00  0.00     0.061 A 
HETATM   10  C10 UNL     1      25.936   2.625  53.313  1.00  0.00     0.011 A 
HETATM   11  C11 UNL     1      24.434   2.592  53.504  1.00  0.00     0.045 A 
HETATM   12  C12 UNL     1      22.802   1.822  51.711  1.00  0.00     0.287 C 
HETATM   13  N1  UNL     1      21.840   2.879  51.797  1.00  0.00     0.099 NA
HETATM   14  C21 UNL     1      20.993   2.599  52.975  1.00  0.00     0.282 C 
HETATM   15  C22 UNL     1      20.111   1.494  52.675  1.00  0.00     0.046 C 
HETATM   16  C23 UNL     1      19.834   0.172  52.853  1.00  0.00    -0.013 C 
ENDROOT
BRANCH  13  17
HETATM   17  C13 UNL     1      22.201   4.219  51.707  1.00  0.00     0.375 C 
BRANCH  17  18
HETATM   18  C14 UNL     1      23.342   4.472  50.740  1.00  0.00     0.250 C 
HETATM   19  O3  UNL     1      24.194   5.238  51.323  1.00  0.00    -0.271 OA
HETATM   20  N2  UNL     1      23.677   4.094  49.441  1.00  0.00    -0.326 N 
HETATM   21  H17 UNL     1      22.932   3.470  49.036  1.00  0.00     0.169 HD
BRANCH  20  22
HETATM   22  C15 UNL     1      24.946   4.711  49.133  1.00  0.00     0.034 A 
HETATM   23  C16 UNL     1      25.991   3.805  49.349  1.00  0.00     0.029 A 
HETATM   24  C17 UNL     1      27.237   4.338  49.048  1.00  0.00     0.002 A 
HETATM   25  C18 UNL     1      27.412   5.623  48.591  1.00  0.00     0.000 A 
HETATM   26  C19 UNL     1      26.324   6.444  48.411  1.00  0.00     0.002 A 
HETATM   27  C20 UNL     1      25.014   6.012  48.679  1.00  0.00     0.029 A 
ENDBRANCH  20  22
ENDBRANCH  17  18
ENDBRANCH  13  17
BRANCH   4  28
HETATM   28  O1  UNL     1      23.089  -1.130  54.823  1.00  0.00    -0.382 OA
HETATM   29  H5  UNL     1      22.904  -0.773  55.783  1.00  0.00     0.211 HD
ENDBRANCH   4  28
BRANCH   9  30
HETATM   30  O2  UNL     1      28.212   2.348  52.731  1.00  0.00    -0.361 OA
HETATM   31  H9  UNL     1      28.845   2.041  51.962  1.00  0.00     0.217 HD
ENDBRANCH   9  30
TORSDOF 5
ENDMDL
MODEL 4
REMARK VINA RESULT:      -9.0      2.404      6.076
REMARK  5 active torsions:
REMARK  status: ('A' for Active; 'I' for Inactive)
REMARK    1  A    between atoms: C4_4  and  O1_5 
REMARK    2  A    between atoms: C9_10  and  O2_11 
REMARK    3  A    between atoms: N1_15  and  C13_16 
REMARK    4  A    between atoms: C13_16  and  C14_17 
REMARK       I    between atoms: C14_17  and  N2_19 
REMARK    5  A    between atoms: N2_19  and  C15_20 
ROOT
HETATM    1  C1  UNL     1      24.018   6.214  48.976  1.00  0.00     0.047 C 
HETATM    2  C2  UNL     1      24.786   5.088  49.602  1.00  0.00    -0.066 C 
HETATM    3  C3  UNL     1      25.946   4.575  49.305  1.00  0.00     0.021 C 
HETATM    4  C4  UNL     1      26.235   3.522  50.266  1.00  0.00     0.116 C 
HETATM    5  C5  UNL     1      26.751   2.534  50.967  1.00  0.00     0.050 C 
HETATM    6  C6  UNL     1      26.266   1.792  52.225  1.00  0.00     0.014 A 
HETATM    7  C7  UNL     1      27.407   2.193  53.185  1.00  0.00    -0.012 A 
HETATM    8  C8  UNL     1      28.415   1.590  53.772  1.00  0.00     0.033 A 
HETATM    9  C9  UNL     1      28.592   0.158  53.526  1.00  0.00     0.061 A 
HETATM   10  C10 UNL     1      27.607  -0.233  52.711  1.00  0.00     0.011 A 
HETATM   11  C11 UNL     1      26.399   0.330  51.990  1.00  0.00     0.045 A 
HETATM   12  C12 UNL     1      25.057   2.320  52.833  1.00  0.00     0.287 C 
HETATM   13  N1  UNL     1      23.733   1.801  52.666  1.00  0.00     0.099 NA
HETATM   14  C21 UNL     1      23.398   1.923  51.232  1.00  0.00     0.282 C 
HETATM   15  C22 UNL     1      23.152   3.312  50.917  1.00  0.00     0.046 C 
HETATM   16  C23 UNL     1      23.622   4.452  50.336  1.00  0.00    -0.013 C 
ENDROOT
BRANCH  13  17
HETATM   17  C13 UNL     1      23.343   0.578  53.202  1.00  0.00     0.375 C 
BRANCH  17  18
HETATM   18  C14 UNL     1      21.851   0.325  53.101  1.00  0.00     0.250 C 
HETATM   19  O3  UNL     1      21.679  -0.817  52.538  1.00  0.00    -0.271 OA
HETATM   20  N2  UNL     1      20.680   0.993  53.454  1.00  0.00    -0.326 N 
HETATM   21  H17 UNL     1      20.905   1.916  53.908  1.00  0.00     0.169 HD
BRANCH  20  22
HETATM   22  C15 UNL     1      19.575   0.152  53.060  1.00  0.00     0.034 A 
HETATM   23  C16 UNL     1      18.998   0.631  51.878  1.00  0.00     0.029 A 
HETATM   24  C17 UNL     1      17.940  -0.154  51.438  1.00  0.00     0.002 A 
HETATM   25  C18 UNL     1      17.513  -1.278  52.104  1.00  0.00     0.000 A 
HETATM   26  C19 UNL     1      18.141  -1.673  53.262  1.00  0.00     0.002 A 
HETATM   27  C20 UNL     1      19.226  -0.959  53.800  1.00  0.00     0.029 A 
ENDBRANCH  20  22
ENDBRANCH  17  18
ENDBRANCH  13  17
BRANCH   4  28
HETATM   28  O1  UNL     1      27.406   3.453  49.416  1.00  0.00    -0.382 OA
HETATM   29  H5  UNL     1      28.281   3.742  49.902  1.00  0.00     0.211 HD
ENDBRANCH   4  28
BRANCH   9  30
HETATM   30  O2  UNL     1      29.542  -0.702  53.986  1.00  0.00    -0.361 OA
HETATM   31  H9  UNL     1      29.357  -1.721  53.862  1.00  0.00     0.217 HD
ENDBRANCH   9  30
TORSDOF 5
ENDMDL
MODEL 5
REMARK VINA RESULT:      -8.9      2.675      7.132
REMARK  5 active torsions:
REMARK  status: ('A' for Active; 'I' for Inactive)
REMARK    1  A    between atoms: C4_4  and  O1_5 
REMARK    2  A    between atoms: C9_10  and  O2_11 
REMARK    3  A    between atoms: N1_15  and  C13_16 
REMARK    4  A    between atoms: C13_16  and  C14_17 
REMARK       I    between atoms: C14_17  and  N2_19 
REMARK    5  A    between atoms: N2_19  and  C15_20 
ROOT
HETATM    1  C1  UNL     1      21.847   3.558  46.329  1.00  0.00     0.047 C 
HETATM    2  C2  UNL     1      21.661   2.940  47.682  1.00  0.00    -0.066 C 
HETATM    3  C3  UNL     1      20.603   2.444  48.258  1.00  0.00     0.021 C 
HETATM    4  C4  UNL     1      20.993   1.938  49.565  1.00  0.00     0.116 C 
HETATM    5  C5  UNL     1      21.048   1.413  50.771  1.00  0.00     0.050 C 
HETATM    6  C6  UNL     1      22.212   1.185  51.751  1.00  0.00     0.014 A 
HETATM    7  C7  UNL     1      22.175  -0.359  51.800  1.00  0.00    -0.012 A 
HETATM    8  C8  UNL     1      21.853  -1.277  52.680  1.00  0.00     0.033 A 
HETATM    9  C9  UNL     1      21.403  -0.830  54.000  1.00  0.00     0.061 A 
HETATM   10  C10 UNL     1      21.441   0.506  54.004  1.00  0.00     0.011 A 
HETATM   11  C11 UNL     1      21.799   1.664  53.096  1.00  0.00     0.045 A 
HETATM   12  C12 UNL     1      23.531   1.515  51.239  1.00  0.00     0.287 C 
HETATM   13  N1  UNL     1      24.255   2.723  51.494  1.00  0.00     0.099 NA
HETATM   14  C21 UNL     1      23.456   3.833  50.935  1.00  0.00     0.282 C 
HETATM   15  C22 UNL     1      23.540   3.803  49.493  1.00  0.00     0.046 C 
HETATM   16  C23 UNL     1      22.918   3.499  48.318  1.00  0.00    -0.013 C 
ENDROOT
BRANCH  13  17
HETATM   17  C13 UNL     1      24.781   3.023  52.745  1.00  0.00     0.375 C 
BRANCH  17  18
HETATM   18  C14 UNL     1      25.893   2.082  53.172  1.00  0.00     0.250 C 
HETATM   19  O3  UNL     1      26.646   1.870  52.153  1.00  0.00    -0.271 OA
HETATM   20  N2  UNL     1      26.279   1.428  54.340  1.00  0.00    -0.326 N 
HETATM   21  H17 UNL     1      25.614   1.653  55.125  1.00  0.00     0.169 HD
BRANCH  20  22
HETATM   22  C15 UNL     1      27.470   0.673  54.031  1.00  0.00     0.034 A 
HETATM   23  C16 UNL     1      27.129  -0.573  53.493  1.00  0.00     0.029 A 
HETATM   24  C17 UNL     1      28.239  -1.336  53.155  1.00  0.00     0.002 A 
HETATM   25  C18 UNL     1      29.531  -0.903  53.338  1.00  0.00     0.000 A 
HETATM   26  C19 UNL     1      29.771   0.340  53.877  1.00  0.00     0.002 A 
HETATM   27  C20 UNL     1      28.726   1.201  54.253  1.00  0.00     0.029 A 
ENDBRANCH  20  22
ENDBRANCH  17  18
ENDBRANCH  13  17
BRANCH   4  28
HETATM   28  O1  UNL     1      19.572   1.652  49.568  1.00  0.00    -0.382 OA
HETATM   29  H5  UNL     1      18.986   2.500  49.420  1.00  0.00     0.211 HD
ENDBRANCH   4  28
BRANCH   9  30
HETATM   30  O2  UNL     1      21.001  -1.552  55.082  1.00  0.00    -0.361 OA
HETATM   31  H9  UNL     1      20.191  -1.180  55.624  1.00  0.00     0.217 HD
ENDBRANCH   9  30
TORSDOF 5
ENDMDL
MODEL 6
REMARK VINA RESULT:      -8.5      3.275      7.511
REMARK  5 active torsions:
REMARK  status: ('A' for Active; 'I' for Inactive)
REMARK    1  A    between atoms: C4_4  and  O1_5 
REMARK    2  A    between atoms: C9_10  and  O2_11 
REMARK    3  A    between atoms: N1_15  and  C13_16 
REMARK    4  A    between atoms: C13_16  and  C14_17 
REMARK       I    between atoms: C14_17  and  N2_19 
REMARK    5  A    between atoms: N2_19  and  C15_20 
ROOT
HETATM    1  C1  UNL     1      21.155   4.069  45.074  1.00  0.00     0.047 C 
HETATM    2  C2  UNL     1      20.941   3.563  46.469  1.00  0.00    -0.066 C 
HETATM    3  C3  UNL     1      19.862   3.164  47.079  1.00  0.00     0.021 C 
HETATM    4  C4  UNL     1      20.230   2.738  48.420  1.00  0.00     0.116 C 
HETATM    5  C5  UNL     1      20.262   2.302  49.662  1.00  0.00     0.050 C 
HETATM    6  C6  UNL     1      21.417   2.089  50.657  1.00  0.00     0.014 A 
HETATM    7  C7  UNL     1      21.302   0.557  50.820  1.00  0.00    -0.012 A 
HETATM    8  C8  UNL     1      20.937  -0.277  51.766  1.00  0.00     0.033 A 
HETATM    9  C9  UNL     1      20.515   0.289  53.049  1.00  0.00     0.061 A 
HETATM   10  C10 UNL     1      20.619   1.618  52.954  1.00  0.00     0.011 A 
HETATM   11  C11 UNL     1      21.031   2.687  51.962  1.00  0.00     0.045 A 
HETATM   12  C12 UNL     1      22.749   2.314  50.123  1.00  0.00     0.287 C 
HETATM   13  N1  UNL     1      23.533   3.500  50.288  1.00  0.00     0.099 NA
HETATM   14  C21 UNL     1      22.789   4.604  49.648  1.00  0.00     0.282 C 
HETATM   15  C22 UNL     1      22.867   4.463  48.212  1.00  0.00     0.046 C 
HETATM   16  C23 UNL     1      22.227   4.105  47.063  1.00  0.00    -0.013 C 
ENDROOT
BRANCH  13  17
HETATM   17  C13 UNL     1      24.077   3.865  51.515  1.00  0.00     0.375 C 
BRANCH  17  18
HETATM   18  C14 UNL     1      25.262   3.011  51.925  1.00  0.00     0.250 C 
HETATM   19  O3  UNL     1      24.934   2.359  52.983  1.00  0.00    -0.271 OA
HETATM   20  N2  UNL     1      26.553   2.771  51.459  1.00  0.00    -0.326 N 
HETATM   21  H17 UNL     1      26.744   3.340  50.594  1.00  0.00     0.169 HD
BRANCH  20  22
HETATM   22  C15 UNL     1      27.157   1.812  52.353  1.00  0.00     0.034 A 
HETATM   23  C16 UNL     1      26.789   0.511  51.990  1.00  0.00     0.029 A 
HETATM   24  C17 UNL     1      27.360  -0.457  52.805  1.00  0.00     0.002 A 
HETATM   25  C18 UNL     1      28.193  -0.156  53.857  1.00  0.00     0.000 A 
HETATM   26  C19 UNL     1      28.497   1.154  54.141  1.00  0.00     0.002 A 
HETATM   27  C20 UNL     1      27.982   2.219  53.382  1.00  0.00     0.029 A 
ENDBRANCH  20  22
ENDBRANCH  17  18
ENDBRANCH  13  17
BRANCH   4  28
HETATM   28  O1  UNL     1      18.797   2.525  48.443  1.00  0.00    -0.382 OA
HETATM   29  H5  UNL     1      18.459   2.120  49.341  1.00  0.00     0.211 HD
ENDBRANCH   4  28
BRANCH   9  30
HETATM   30  O2  UNL     1      20.080  -0.330  54.181  1.00  0.00    -0.361 OA
HETATM   31  H9  UNL     1      20.449   0.031  55.088  1.00  0.00     0.217 HD
ENDBRANCH   9  30
TORSDOF 5
ENDMDL
MODEL 7
REMARK VINA RESULT:      -8.5      3.286      6.851
REMARK  5 active torsions:
REMARK  status: ('A' for Active; 'I' for Inactive)
REMARK    1  A    between atoms: C4_4  and  O1_5 
REMARK    2  A    between atoms: C9_10  and  O2_11 
REMARK    3  A    between atoms: N1_15  and  C13_16 
REMARK    4  A    between atoms: C13_16  and  C14_17 
REMARK       I    between atoms: C14_17  and  N2_19 
REMARK    5  A    between atoms: N2_19  and  C15_20 
ROOT
HETATM    1  C1  UNL     1      27.300  -1.419  52.786  1.00  0.00     0.047 C 
HETATM    2  C2  UNL     1      26.694  -0.111  52.370  1.00  0.00    -0.066 C 
HETATM    3  C3  UNL     1      27.233   1.059  52.181  1.00  0.00     0.021 C 
HETATM    4  C4  UNL     1      26.189   1.973  51.744  1.00  0.00     0.116 C 
HETATM    5  C5  UNL     1      25.472   3.006  51.351  1.00  0.00     0.050 C 
HETATM    6  C6  UNL     1      23.987   3.155  50.979  1.00  0.00     0.014 A 
HETATM    7  C7  UNL     1      24.158   3.549  49.495  1.00  0.00    -0.012 A 
HETATM    8  C8  UNL     1      23.979   4.627  48.768  1.00  0.00     0.033 A 
HETATM    9  C9  UNL     1      23.483   5.829  49.439  1.00  0.00     0.061 A 
HETATM   10  C10 UNL     1      23.303   5.522  50.728  1.00  0.00     0.011 A 
HETATM   11  C11 UNL     1      23.444   4.350  51.677  1.00  0.00     0.045 A 
HETATM   12  C12 UNL     1      23.223   1.920  50.957  1.00  0.00     0.287 C 
HETATM   13  N1  UNL     1      22.364   1.442  51.998  1.00  0.00     0.099 NA
HETATM   14  C21 UNL     1      23.208   1.223  53.190  1.00  0.00     0.282 C 
HETATM   15  C22 UNL     1      24.021   0.045  52.989  1.00  0.00     0.046 C 
HETATM   16  C23 UNL     1      25.256  -0.456  52.706  1.00  0.00    -0.013 C 
ENDROOT
BRANCH  13  17
HETATM   17  C13 UNL     1      21.157   2.061  52.306  1.00  0.00     0.375 C 
BRANCH  17  18
HETATM   18  C14 UNL     1      19.945   1.200  52.004  1.00  0.00     0.250 C 
HETATM   19  O3  UNL     1      18.912   1.964  51.976  1.00  0.00    -0.271 OA
HETATM   20  N2  UNL     1      19.690  -0.148  51.759  1.00  0.00    -0.326 N 
HETATM   21  H17 UNL     1      20.583  -0.705  51.799  1.00  0.00     0.169 HD
BRANCH  20  22
HETATM   22  C15 UNL     1      18.270  -0.278  51.536  1.00  0.00     0.034 A 
HETATM   23  C16 UNL     1      17.639  -0.762  52.689  1.00  0.00     0.029 A 
HETATM   24  C17 UNL     1      16.265  -0.887  52.539  1.00  0.00     0.002 A 
HETATM   25  C18 UNL     1      15.605  -0.570  51.375  1.00  0.00     0.000 A 
HETATM   26  C19 UNL     1      16.309  -0.103  50.290  1.00  0.00     0.002 A 
HETATM   27  C20 UNL     1      17.704   0.068  50.326  1.00  0.00     0.029 A 
ENDBRANCH  20  22
ENDBRANCH  17  18
ENDBRANCH  13  17
BRANCH   4  28
HETATM   28  O1  UNL     1      27.338   2.857  51.778  1.00  0.00    -0.382 OA
HETATM   29  H5  UNL     1      28.231   2.373  51.549  1.00  0.00     0.211 HD
ENDBRANCH   4  28
BRANCH   9  30
HETATM   30  O2  UNL     1      23.223   7.070  48.942  1.00  0.00    -0.361 OA
HETATM   31  H9  UNL     1      23.821   7.852  49.287  1.00  0.00     0.217 HD
ENDBRANCH   9  30
TORSDOF 5
ENDMDL
MODEL 8
REMARK VINA RESULT:      -8.2      2.774      8.216
REMARK  5 active torsions:
REMARK  status: ('A' for Active; 'I' for Inactive)
REMARK    1  A    between atoms: C4_4  and  O1_5 
REMARK    2  A    between atoms: C9_10  and  O2_11 
REMARK    3  A    between atoms: N1_15  and  C13_16 
REMARK    4  A    between atoms: C13_16  and  C14_17 
REMARK       I    between atoms: C14_17  and  N2_19 
REMARK    5  A    between atoms: N2_19  and  C15_20 
ROOT
HETATM    1  C1  UNL     1      25.671   6.471  48.361  1.00  0.00     0.047 C 
HETATM    2  C2  UNL     1      24.522   5.698  48.939  1.00  0.00    -0.066 C 
HETATM    3  C3  UNL     1      23.270   6.018  49.096  1.00  0.00     0.021 C 
HETATM    4  C4  UNL     1      22.580   4.876  49.674  1.00  0.00     0.116 C 
HETATM    5  C5  UNL     1      21.712   4.030  50.190  1.00  0.00     0.050 C 
HETATM    6  C6  UNL     1      21.842   2.571  50.662  1.00  0.00     0.014 A 
HETATM    7  C7  UNL     1      20.881   1.913  49.648  1.00  0.00    -0.012 A 
HETATM    8  C8  UNL     1      19.699   1.342  49.686  1.00  0.00     0.033 A 
HETATM    9  C9  UNL     1      19.029   1.245  50.984  1.00  0.00     0.061 A 
HETATM   10  C10 UNL     1      19.842   1.789  51.896  1.00  0.00     0.011 A 
HETATM   11  C11 UNL     1      21.202   2.449  51.998  1.00  0.00     0.045 A 
HETATM   12  C12 UNL     1      23.132   1.950  50.419  1.00  0.00     0.287 C 
HETATM   13  N1  UNL     1      24.186   1.793  51.375  1.00  0.00     0.099 NA
HETATM   14  C21 UNL     1      24.605   3.149  51.784  1.00  0.00     0.282 C 
HETATM   15  C22 UNL     1      25.348   3.763  50.707  1.00  0.00     0.046 C 
HETATM   16  C23 UNL     1      25.347   4.672  49.691  1.00  0.00    -0.013 C 
ENDROOT
BRANCH  13  17
HETATM   17  C13 UNL     1      24.086   0.918  52.451  1.00  0.00     0.375 C 
BRANCH  17  18
HETATM   18  C14 UNL     1      25.426   0.382  52.918  1.00  0.00     0.250 C 
HETATM   19  O3  UNL     1      26.258   0.490  51.944  1.00  0.00    -0.271 OA
HETATM   20  N2  UNL     1      25.950  -0.170  54.086  1.00  0.00    -0.326 N 
HETATM   21  H17 UNL     1      25.210  -0.223  54.832  1.00  0.00     0.169 HD
BRANCH  20  22
HETATM   22  C15 UNL     1      27.340  -0.464  53.830  1.00  0.00     0.034 A 
HETATM   23  C16 UNL     1      28.151   0.581  54.289  1.00  0.00     0.029 A 
HETATM   24  C17 UNL     1      29.504   0.342  54.088  1.00  0.00     0.002 A 
HETATM   25  C18 UNL     1      29.983  -0.803  53.495  1.00  0.00     0.000 A 
HETATM   26  C19 UNL     1      29.109  -1.777  53.073  1.00  0.00     0.002 A 
HETATM   27  C20 UNL     1      27.718  -1.647  53.227  1.00  0.00     0.029 A 
ENDBRANCH  20  22
ENDBRANCH  17  18
ENDBRANCH  13  17
BRANCH   4  28
HETATM   28  O1  UNL     1      21.500   5.839  49.585  1.00  0.00    -0.382 OA
HETATM   29  H5  UNL     1      20.649   5.547  50.111  1.00  0.00     0.211 HD
ENDBRANCH   4  28
BRANCH   9  30
HETATM   30  O2  UNL     1      17.814   0.723  51.309  1.00  0.00    -0.361 OA
HETATM   31  H9  UNL     1      17.719  -0.314  51.269  1.00  0.00     0.217 HD
ENDBRANCH   9  30
TORSDOF 5
ENDMDL
MODEL 9
REMARK VINA RESULT:      -8.1      2.600      3.360
REMARK  5 active torsions:
REMARK  status: ('A' for Active; 'I' for Inactive)
REMARK    1  A    between atoms: C4_4  and  O1_5 
REMARK    2  A    between atoms: C9_10  and  O2_11 
REMARK    3  A    between atoms: N1_15  and  C13_16 
REMARK    4  A    between atoms: C13_16  and  C14_17 
REMARK       I    between atoms: C14_17  and  N2_19 
REMARK    5  A    between atoms: N2_19  and  C15_20 
ROOT
HETATM    1  C1  UNL     1      19.139   1.251  50.413  1.00  0.00     0.047 C 
HETATM    2  C2  UNL     1      20.409   1.150  51.203  1.00  0.00    -0.066 C 
HETATM    3  C3  UNL     1      20.639   0.682  52.396  1.00  0.00     0.021 C 
HETATM    4  C4  UNL     1      22.065   0.792  52.659  1.00  0.00     0.116 C 
HETATM    5  C5  UNL     1      23.279   0.773  53.170  1.00  0.00     0.050 C 
HETATM    6  C6  UNL     1      24.649   1.182  52.601  1.00  0.00     0.014 A 
HETATM    7  C7  UNL     1      25.333  -0.203  52.625  1.00  0.00    -0.012 A 
HETATM    8  C8  UNL     1      26.296  -0.779  53.305  1.00  0.00     0.033 A 
HETATM    9  C9  UNL     1      26.974   0.012  54.333  1.00  0.00     0.061 A 
HETATM   10  C10 UNL     1      26.421   1.230  54.331  1.00  0.00     0.011 A 
HETATM   11  C11 UNL     1      25.348   2.020  53.611  1.00  0.00     0.045 A 
HETATM   12  C12 UNL     1      24.650   1.581  51.204  1.00  0.00     0.287 C 
HETATM   13  N1  UNL     1      24.641   2.925  50.712  1.00  0.00     0.099 NA
HETATM   14  C21 UNL     1      23.384   3.548  51.176  1.00  0.00     0.282 C 
HETATM   15  C22 UNL     1      22.277   3.007  50.420  1.00  0.00     0.046 C 
HETATM   16  C23 UNL     1      21.206   2.165  50.407  1.00  0.00    -0.013 C 
ENDROOT
BRANCH  13  17
HETATM   17  C13 UNL     1      25.736   3.772  50.845  1.00  0.00     0.375 C 
BRANCH  17  18
HETATM   18  C14 UNL     1      25.646   5.015  49.980  1.00  0.00     0.250 C 
HETATM   19  O3  UNL     1      25.322   4.648  48.792  1.00  0.00    -0.271 OA
HETATM   20  N2  UNL     1      25.817   6.387  50.150  1.00  0.00    -0.326 N 
HETATM   21  H17 UNL     1      26.080   6.604  51.146  1.00  0.00     0.169 HD
BRANCH  20  22
HETATM   22  C15 UNL     1      25.564   7.008  48.872  1.00  0.00     0.034 A 
HETATM   23  C16 UNL     1      26.770   7.351  48.251  1.00  0.00     0.029 A 
HETATM   24  C17 UNL     1      26.588   7.935  47.004  1.00  0.00     0.002 A 
HETATM   25  C18 UNL     1      25.347   8.152  46.452  1.00  0.00     0.000 A 
HETATM   26  C19 UNL     1      24.214   7.784  47.139  1.00  0.00     0.002 A 
HETATM   27  C20 UNL     1      24.276   7.180  48.407  1.00  0.00     0.029 A 
ENDBRANCH  20  22
ENDBRANCH  17  18
ENDBRANCH  13  17
BRANCH   4  28
HETATM   28  O1  UNL     1      21.595   0.224  53.907  1.00  0.00    -0.382 OA
HETATM   29  H5  UNL     1      20.922   0.841  54.407  1.00  0.00     0.211 HD
ENDBRANCH   4  28
BRANCH   9  30
HETATM   30  O2  UNL     1      27.981  -0.329  55.184  1.00  0.00    -0.361 OA
HETATM   31  H9  UNL     1      27.757  -1.027  55.926  1.00  0.00     0.217 HD
ENDBRANCH   9  30
TORSDOF 5
ENDMDL
