MODEL 1
REMARK VINA RESULT:      -9.4      0.000      0.000
REMARK  3 active torsions:
REMARK  status: ('A' for Active; 'I' for Inactive)
REMARK    1  A    between atoms: C9_9  and  O1_10 
REMARK    2  A    between atoms: C11_12  and  O2_13 
REMARK    3  A    between atoms: N3_20  and  C16_21 
ROOT
HETATM    1  C1  UNL     1      17.074   0.221  51.819  1.00  0.00     0.038 C 
HETATM    2  C2  UNL     1      18.454  -0.288  52.006  1.00  0.00    -0.006 C 
HETATM    3  C3  UNL     1      19.518   0.304  51.500  1.00  0.00     0.010 C 
HETATM    4  C4  UNL     1      20.913  -0.137  51.639  1.00  0.00     0.063 C 
HETATM    5  C5  UNL     1      22.023   0.689  52.107  1.00  0.00     0.064 C 
HETATM    6  C6  UNL     1      22.745   1.684  51.293  1.00  0.00     0.021 C 
HETATM    7  C7  UNL     1      24.067   1.738  51.489  1.00  0.00     0.019 A 
HETATM    8  C8  UNL     1      25.108   2.532  50.901  1.00  0.00     0.055 A 
HETATM    9  C9  UNL     1      26.393   2.692  51.119  1.00  0.00     0.102 A 
HETATM   10  C11 UNL     1      26.956   1.901  52.199  1.00  0.00     0.103 A 
HETATM   11  C13 UNL     1      26.174   1.093  52.885  1.00  0.00     0.073 A 
HETATM   12  C14 UNL     1      24.751   0.971  52.584  1.00  0.00     0.084 A 
HETATM   13  N1  UNL     1      24.171   0.188  53.402  1.00  0.00    -0.173 NA
HETATM   14  C15 UNL     1      24.742  -0.518  54.395  1.00  0.00     0.206 C 
HETATM   15  N2  UNL     1      25.212  -1.133  55.246  1.00  0.00    -0.170 NA
HETATM   16  N3  UNL     1      22.570   2.748  50.272  1.00  0.00    -0.374 N 
HETATM   17  C18 UNL     1      22.336   4.179  50.418  1.00  0.00     0.125 C 
HETATM   18  C19 UNL     1      21.472   4.692  49.326  1.00  0.00    -0.003 C 
HETATM   19  C20 UNL     1      20.230   5.278  49.377  1.00  0.00    -0.009 C 
HETATM   20  C21 UNL     1      19.424   4.960  50.663  1.00  0.00     0.154 C 
HETATM   21  N4  UNL     1      20.263   4.001  51.169  1.00  0.00    -0.328 N 
HETATM   22  C22 UNL     1      21.568   4.436  51.720  1.00  0.00     0.157 C 
HETATM   23  C23 UNL     1      19.934   2.698  51.102  1.00  0.00     0.323 C 
HETATM   24  O3  UNL     1      20.015   2.366  52.243  1.00  0.00    -0.247 OA
HETATM   25  N5  UNL     1      19.565   1.427  50.661  1.00  0.00    -0.313 N 
HETATM   26  H29 UNL     1      19.273   1.025  49.776  1.00  0.00     0.170 HD
ENDROOT
BRANCH  10  27
HETATM   27  O2  UNL     1      28.304   2.010  52.490  1.00  0.00    -0.353 OA
HETATM   28  C12 UNL     1      28.795   2.480  53.730  1.00  0.00     0.210 C 
ENDBRANCH  10  27
BRANCH  16  29
HETATM   29  C16 UNL     1      22.747   2.094  49.030  1.00  0.00     0.119 C 
HETATM   30  C17 UNL     1      21.537   1.388  48.516  1.00  0.00     0.026 C 
ENDBRANCH  16  29
BRANCH   9  31
HETATM   31  O1  UNL     1      27.154   3.562  50.356  1.00  0.00    -0.353 OA
HETATM   32  C10 UNL     1      26.662   4.275  49.246  1.00  0.00     0.210 C 
ENDBRANCH   9  31
TORSDOF 3
ENDMDL
MODEL 2
REMARK VINA RESULT:      -8.9      1.713      2.388
REMARK  3 active torsions:
REMARK  status: ('A' for Active; 'I' for Inactive)
REMARK    1  A    between atoms: C9_9  and  O1_10 
REMARK    2  A    between atoms: C11_12  and  O2_13 
REMARK    3  A    between atoms: N3_20  and  C16_21 
ROOT
HETATM    1  C1  UNL     1      17.471   3.462  50.375  1.00  0.00     0.038 C 
HETATM    2  C2  UNL     1      18.355   2.344  50.784  1.00  0.00    -0.006 C 
HETATM    3  C3  UNL     1      19.670   2.408  50.737  1.00  0.00     0.010 C 
HETATM    4  C4  UNL     1      20.611   1.347  51.121  1.00  0.00     0.063 C 
HETATM    5  C5  UNL     1      21.726   1.496  52.053  1.00  0.00     0.064 C 
HETATM    6  C6  UNL     1      23.029   2.105  51.730  1.00  0.00     0.021 C 
HETATM    7  C7  UNL     1      24.096   1.506  52.272  1.00  0.00     0.019 A 
HETATM    8  C8  UNL     1      25.505   1.766  52.192  1.00  0.00     0.055 A 
HETATM    9  C9  UNL     1      26.576   1.274  52.772  1.00  0.00     0.102 A 
HETATM   10  C11 UNL     1      26.346   0.207  53.729  1.00  0.00     0.103 A 
HETATM   11  C13 UNL     1      25.114  -0.198  53.963  1.00  0.00     0.073 A 
HETATM   12  C14 UNL     1      23.972   0.401  53.281  1.00  0.00     0.084 A 
HETATM   13  N1  UNL     1      22.875  -0.091  53.698  1.00  0.00    -0.173 NA
HETATM   14  C15 UNL     1      22.717  -1.079  54.597  1.00  0.00     0.206 C 
HETATM   15  N2  UNL     1      22.562  -1.926  55.361  1.00  0.00    -0.170 NA
HETATM   16  N3  UNL     1      23.679   3.222  50.997  1.00  0.00    -0.374 N 
HETATM   17  C18 UNL     1      24.027   4.569  51.428  1.00  0.00     0.125 C 
HETATM   18  C19 UNL     1      23.892   5.537  50.311  1.00  0.00    -0.003 C 
HETATM   19  C20 UNL     1      23.074   6.633  50.180  1.00  0.00    -0.009 C 
HETATM   20  C21 UNL     1      21.819   6.609  51.090  1.00  0.00     0.154 C 
HETATM   21  N4  UNL     1      21.950   5.321  51.542  1.00  0.00    -0.328 N 
HETATM   22  C22 UNL     1      23.037   5.028  52.505  1.00  0.00     0.157 C 
HETATM   23  C23 UNL     1      21.154   4.345  51.069  1.00  0.00     0.323 C 
HETATM   24  O3  UNL     1      20.688   3.901  52.072  1.00  0.00    -0.247 OA
HETATM   25  N5  UNL     1      20.468   3.452  50.246  1.00  0.00    -0.313 N 
HETATM   26  H29 UNL     1      20.361   3.327  49.244  1.00  0.00     0.170 HD
ENDROOT
BRANCH  10  27
HETATM   27  O2  UNL     1      27.424  -0.367  54.380  1.00  0.00    -0.353 OA
HETATM   28  C12 UNL     1      28.424  -1.112  53.715  1.00  0.00     0.210 C 
ENDBRANCH  10  27
BRANCH  16  29
HETATM   29  C16 UNL     1      23.985   2.690  49.722  1.00  0.00     0.119 C 
HETATM   30  C17 UNL     1      22.910   2.850  48.702  1.00  0.00     0.026 C 
ENDBRANCH  16  29
BRANCH   9  31
HETATM   31  O1  UNL     1      27.842   1.751  52.475  1.00  0.00    -0.353 OA
HETATM   32  C10 UNL     1      28.609   2.548  53.347  1.00  0.00     0.210 C 
ENDBRANCH   9  31
TORSDOF 3
ENDMDL
MODEL 3
REMARK VINA RESULT:      -8.0      2.537      5.171
REMARK  3 active torsions:
REMARK  status: ('A' for Active; 'I' for Inactive)
REMARK    1  A    between atoms: C9_9  and  O1_10 
REMARK    2  A    between atoms: C11_12  and  O2_13 
REMARK    3  A    between atoms: N3_20  and  C16_21 
ROOT
HETATM    1  C1  UNL     1      24.060   7.579  47.320  1.00  0.00     0.038 C 
HETATM    2  C2  UNL     1      24.615   6.960  48.548  1.00  0.00    -0.006 C 
HETATM    3  C3  UNL     1      23.981   6.035  49.240  1.00  0.00     0.010 C 
HETATM    4  C4  UNL     1      24.463   5.376  50.463  1.00  0.00     0.063 C 
HETATM    5  C5  UNL     1      24.542   3.934  50.677  1.00  0.00     0.064 C 
HETATM    6  C6  UNL     1      23.407   3.061  51.026  1.00  0.00     0.021 C 
HETATM    7  C7  UNL     1      23.673   2.095  51.912  1.00  0.00     0.019 A 
HETATM    8  C8  UNL     1      22.864   1.075  52.515  1.00  0.00     0.055 A 
HETATM    9  C9  UNL     1      23.092   0.054  53.310  1.00  0.00     0.102 A 
HETATM   10  C11 UNL     1      24.474  -0.141  53.712  1.00  0.00     0.103 A 
HETATM   11  C13 UNL     1      25.399   0.688  53.271  1.00  0.00     0.073 A 
HETATM   12  C14 UNL     1      25.067   1.800  52.387  1.00  0.00     0.084 A 
HETATM   13  N1  UNL     1      26.111   2.435  52.031  1.00  0.00    -0.173 NA
HETATM   14  C15 UNL     1      27.376   2.207  52.429  1.00  0.00     0.206 C 
HETATM   15  N2  UNL     1      28.463   2.030  52.762  1.00  0.00    -0.170 NA
HETATM   16  N3  UNL     1      21.972   2.797  50.749  1.00  0.00    -0.374 N 
HETATM   17  C18 UNL     1      21.335   1.930  49.766  1.00  0.00     0.125 C 
HETATM   18  C19 UNL     1      20.057   2.514  49.288  1.00  0.00    -0.003 C 
HETATM   19  C20 UNL     1      19.678   2.910  48.029  1.00  0.00    -0.009 C 
HETATM   20  C21 UNL     1      20.858   3.219  47.072  1.00  0.00     0.154 C 
HETATM   21  N4  UNL     1      21.865   3.151  48.000  1.00  0.00    -0.328 N 
HETATM   22  C22 UNL     1      22.236   1.819  48.531  1.00  0.00     0.157 C 
HETATM   23  C23 UNL     1      22.448   4.273  48.461  1.00  0.00     0.323 C 
HETATM   24  O3  UNL     1      23.599   4.061  48.236  1.00  0.00    -0.247 OA
HETATM   25  N5  UNL     1      22.693   5.524  49.026  1.00  0.00    -0.313 N 
HETATM   26  H29 UNL     1      22.119   6.286  49.373  1.00  0.00     0.170 HD
ENDROOT
BRANCH  10  27
HETATM   27  O2  UNL     1      24.796  -1.193  54.550  1.00  0.00    -0.353 OA
HETATM   28  C12 UNL     1      24.812  -1.084  55.960  1.00  0.00     0.210 C 
ENDBRANCH  10  27
BRANCH  16  29
HETATM   29  C16 UNL     1      21.269   3.544  51.724  1.00  0.00     0.119 C 
HETATM   30  C17 UNL     1      20.144   2.817  52.379  1.00  0.00     0.026 C 
ENDBRANCH  16  29
BRANCH   9  31
HETATM   31  O1  UNL     1      22.067  -0.776  53.733  1.00  0.00    -0.353 OA
HETATM   32  C10 UNL     1      21.152  -0.445  54.750  1.00  0.00     0.210 C 
ENDBRANCH   9  31
TORSDOF 3
ENDMDL
MODEL 4
REMARK VINA RESULT:      -7.8      8.136     12.643
REMARK  3 active torsions:
REMARK  status: ('A' for Active; 'I' for Inactive)
REMARK    1  A    between atoms: C9_9  and  O1_10 
REMARK    2  A    between atoms: C11_12  and  O2_13 
REMARK    3  A    between atoms: N3_20  and  C16_21 
ROOT
HETATM    1  C1  UNL     1      35.051   3.010  45.553  1.00  0.00     0.038 C 
HETATM    2  C2  UNL     1      33.944   3.332  46.485  1.00  0.00    -0.006 C 
HETATM    3  C3  UNL     1      33.646   4.561  46.856  1.00  0.00     0.010 C 
HETATM    4  C4  UNL     1      32.569   4.959  47.774  1.00  0.00     0.063 C 
HETATM    5  C5  UNL     1      31.542   5.959  47.496  1.00  0.00     0.064 C 
HETATM    6  C6  UNL     1      31.730   7.419  47.579  1.00  0.00     0.021 C 
HETATM    7  C7  UNL     1      30.699   8.105  48.086  1.00  0.00     0.019 A 
HETATM    8  C8  UNL     1      30.492   9.501  48.348  1.00  0.00     0.055 A 
HETATM    9  C9  UNL     1      29.478  10.232  48.751  1.00  0.00     0.102 A 
HETATM   10  C11 UNL     1      28.243   9.513  49.014  1.00  0.00     0.103 A 
HETATM   11  C13 UNL     1      28.204   8.208  48.837  1.00  0.00     0.073 A 
HETATM   12  C14 UNL     1      29.374   7.464  48.384  1.00  0.00     0.084 A 
HETATM   13  N1  UNL     1      29.103   6.232  48.219  1.00  0.00    -0.173 NA
HETATM   14  C15 UNL     1      27.934   5.616  48.472  1.00  0.00     0.206 C 
HETATM   15  N2  UNL     1      26.944   5.071  48.687  1.00  0.00    -0.170 NA
HETATM   16  N3  UNL     1      32.681   8.521  47.284  1.00  0.00    -0.374 N 
HETATM   17  C18 UNL     1      32.843   9.346  46.095  1.00  0.00     0.125 C 
HETATM   18  C19 UNL     1      34.267   9.705  45.885  1.00  0.00    -0.003 C 
HETATM   19  C20 UNL     1      35.112   9.413  44.842  1.00  0.00    -0.009 C 
HETATM   20  C21 UNL     1      34.686   8.184  43.997  1.00  0.00     0.154 C 
HETATM   21  N4  UNL     1      33.674   7.747  44.812  1.00  0.00    -0.328 N 
HETATM   22  C22 UNL     1      32.424   8.541  44.859  1.00  0.00     0.157 C 
HETATM   23  C23 UNL     1      33.844   6.667  45.596  1.00  0.00     0.323 C 
HETATM   24  O3  UNL     1      32.925   5.981  45.271  1.00  0.00    -0.247 OA
HETATM   25  N5  UNL     1      34.317   5.749  46.534  1.00  0.00    -0.313 N 
HETATM   26  H29 UNL     1      35.133   5.683  47.134  1.00  0.00     0.170 HD
ENDROOT
BRANCH  10  27
HETATM   27  O2  UNL     1      27.129  10.211  49.445  1.00  0.00    -0.353 OA
HETATM   28  C12 UNL     1      26.049  10.548  48.598  1.00  0.00     0.210 C 
ENDBRANCH  10  27
BRANCH  16  29
HETATM   29  C16 UNL     1      33.423   8.690  48.477  1.00  0.00     0.119 C 
HETATM   30  C17 UNL     1      34.669   7.874  48.560  1.00  0.00     0.026 C 
ENDBRANCH  16  29
BRANCH   9  31
HETATM   31  O1  UNL     1      29.593  11.602  48.914  1.00  0.00    -0.353 OA
HETATM   32  C10 UNL     1      30.820  12.293  48.942  1.00  0.00     0.210 C 
ENDBRANCH   9  31
TORSDOF 3
ENDMDL
MODEL 5
REMARK VINA RESULT:      -7.8      6.604     10.305
REMARK  3 active torsions:
REMARK  status: ('A' for Active; 'I' for Inactive)
REMARK    1  A    between atoms: C9_9  and  O1_10 
REMARK    2  A    between atoms: C11_12  and  O2_13 
REMARK    3  A    between atoms: N3_20  and  C16_21 
ROOT
HETATM    1  C1  UNL     1      25.967  14.738  47.905  1.00  0.00     0.038 C 
HETATM    2  C2  UNL     1      25.415  13.363  47.851  1.00  0.00    -0.006 C 
HETATM    3  C3  UNL     1      26.157  12.294  47.644  1.00  0.00     0.010 C 
HETATM    4  C4  UNL     1      25.687  10.903  47.576  1.00  0.00     0.063 C 
HETATM    5  C5  UNL     1      26.222   9.786  48.349  1.00  0.00     0.064 C 
HETATM    6  C6  UNL     1      27.463   9.054  48.038  1.00  0.00     0.021 C 
HETATM    7  C7  UNL     1      27.416   7.731  48.234  1.00  0.00     0.019 A 
HETATM    8  C8  UNL     1      28.377   6.683  48.039  1.00  0.00     0.055 A 
HETATM    9  C9  UNL     1      28.416   5.395  48.301  1.00  0.00     0.102 A 
HETATM   10  C11 UNL     1      27.233   4.841  48.936  1.00  0.00     0.103 A 
HETATM   11  C13 UNL     1      26.216   5.632  49.211  1.00  0.00     0.073 A 
HETATM   12  C14 UNL     1      26.248   7.055  48.892  1.00  0.00     0.084 A 
HETATM   13  N1  UNL     1      25.195   7.643  49.297  1.00  0.00    -0.173 NA
HETATM   14  C15 UNL     1      24.126   7.080  49.889  1.00  0.00     0.206 C 
HETATM   15  N2  UNL     1      23.201   6.616  50.393  1.00  0.00    -0.170 NA
HETATM   16  N3  UNL     1      28.864   9.217  47.573  1.00  0.00    -0.374 N 
HETATM   17  C18 UNL     1      30.096   9.438  48.319  1.00  0.00     0.125 C 
HETATM   18  C19 UNL     1      31.035  10.296  47.555  1.00  0.00    -0.003 C 
HETATM   19  C20 UNL     1      31.554  11.532  47.857  1.00  0.00    -0.009 C 
HETATM   20  C21 UNL     1      30.722  12.342  48.885  1.00  0.00     0.154 C 
HETATM   21  N4  UNL     1      29.632  11.513  48.928  1.00  0.00    -0.328 N 
HETATM   22  C22 UNL     1      29.777  10.204  49.608  1.00  0.00     0.157 C 
HETATM   23  C23 UNL     1      28.487  11.855  48.309  1.00  0.00     0.323 C 
HETATM   24  O3  UNL     1      27.696  11.778  49.198  1.00  0.00    -0.247 OA
HETATM   25  N5  UNL     1      27.531  12.235  47.368  1.00  0.00    -0.313 N 
HETATM   26  H29 UNL     1      27.549  12.530  46.397  1.00  0.00     0.170 HD
ENDROOT
BRANCH  10  27
HETATM   27  O2  UNL     1      27.194   3.492  49.240  1.00  0.00    -0.353 OA
HETATM   28  C12 UNL     1      26.471   2.965  50.335  1.00  0.00     0.210 C 
ENDBRANCH  10  27
BRANCH  16  29
HETATM   29  C16 UNL     1      28.804   9.046  46.170  1.00  0.00     0.119 C 
HETATM   30  C17 UNL     1      29.879   8.186  45.597  1.00  0.00     0.026 C 
ENDBRANCH  16  29
BRANCH   9  31
HETATM   31  O1  UNL     1      29.522   4.626  47.982  1.00  0.00    -0.353 OA
HETATM   32  C10 UNL     1      30.803   5.153  47.727  1.00  0.00     0.210 C 
ENDBRANCH   9  31
TORSDOF 3
ENDMDL
MODEL 6
REMARK VINA RESULT:      -7.8      2.193      3.585
REMARK  3 active torsions:
REMARK  status: ('A' for Active; 'I' for Inactive)
REMARK    1  A    between atoms: C9_9  and  O1_10 
REMARK    2  A    between atoms: C11_12  and  O2_13 
REMARK    3  A    between atoms: N3_20  and  C16_21 
ROOT
HETATM    1  C1  UNL     1      18.187   5.397  48.529  1.00  0.00     0.038 C 
HETATM    2  C2  UNL     1      18.647   4.069  49.000  1.00  0.00    -0.006 C 
HETATM    3  C3  UNL     1      19.899   3.810  49.321  1.00  0.00     0.010 C 
HETATM    4  C4  UNL     1      20.432   2.524  49.793  1.00  0.00     0.063 C 
HETATM    5  C5  UNL     1      21.224   2.324  51.003  1.00  0.00     0.064 C 
HETATM    6  C6  UNL     1      22.663   2.615  51.136  1.00  0.00     0.021 C 
HETATM    7  C7  UNL     1      23.365   1.733  51.856  1.00  0.00     0.019 A 
HETATM    8  C8  UNL     1      24.756   1.642  52.200  1.00  0.00     0.055 A 
HETATM    9  C9  UNL     1      25.475   0.860  52.972  1.00  0.00     0.102 A 
HETATM   10  C11 UNL     1      24.746  -0.184  53.671  1.00  0.00     0.103 A 
HETATM   11  C13 UNL     1      23.444  -0.288  53.502  1.00  0.00     0.073 A 
HETATM   12  C14 UNL     1      22.713   0.622  52.627  1.00  0.00     0.084 A 
HETATM   13  N1  UNL     1      21.463   0.387  52.657  1.00  0.00    -0.173 NA
HETATM   14  C15 UNL     1      20.836  -0.594  53.331  1.00  0.00     0.206 C 
HETATM   15  N2  UNL     1      20.282  -1.429  53.897  1.00  0.00    -0.170 NA
HETATM   16  N3  UNL     1      23.726   3.587  50.772  1.00  0.00    -0.374 N 
HETATM   17  C18 UNL     1      24.212   4.771  51.466  1.00  0.00     0.125 C 
HETATM   18  C19 UNL     1      24.626   5.822  50.503  1.00  0.00    -0.003 C 
HETATM   19  C20 UNL     1      24.141   7.092  50.312  1.00  0.00    -0.009 C 
HETATM   20  C21 UNL     1      22.697   7.312  50.833  1.00  0.00     0.154 C 
HETATM   21  N4  UNL     1      22.408   6.003  51.118  1.00  0.00    -0.328 N 
HETATM   22  C22 UNL     1      23.070   5.380  52.288  1.00  0.00     0.157 C 
HETATM   23  C23 UNL     1      21.598   5.290  50.314  1.00  0.00     0.323 C 
HETATM   24  O3  UNL     1      20.771   4.903  51.080  1.00  0.00    -0.247 OA
HETATM   25  N5  UNL     1      21.011   4.657  49.218  1.00  0.00    -0.313 N 
HETATM   26  H29 UNL     1      21.183   4.636  48.218  1.00  0.00     0.170 HD
ENDROOT
BRANCH  10  27
HETATM   27  O2  UNL     1      25.432  -1.052  54.502  1.00  0.00    -0.353 OA
HETATM   28  C12 UNL     1      25.496  -0.894  55.905  1.00  0.00     0.210 C 
ENDBRANCH  10  27
BRANCH  16  29
HETATM   29  C16 UNL     1      24.275   3.090  49.566  1.00  0.00     0.119 C 
HETATM   30  C17 UNL     1      25.755   3.231  49.448  1.00  0.00     0.026 C 
ENDBRANCH  16  29
BRANCH   9  31
HETATM   31  O1  UNL     1      26.843   1.030  53.101  1.00  0.00    -0.353 OA
HETATM   32  C10 UNL     1      27.459   2.255  53.422  1.00  0.00     0.210 C 
ENDBRANCH   9  31
TORSDOF 3
ENDMDL
MODEL 7
REMARK VINA RESULT:      -7.5      3.089      6.590
REMARK  3 active torsions:
REMARK  status: ('A' for Active; 'I' for Inactive)
REMARK    1  A    between atoms: C9_9  and  O1_10 
REMARK    2  A    between atoms: C11_12  and  O2_13 
REMARK    3  A    between atoms: N3_20  and  C16_21 
ROOT
HETATM    1  C1  UNL     1      27.435   0.347  53.359  1.00  0.00     0.038 C 
HETATM    2  C2  UNL     1      27.476   1.509  52.440  1.00  0.00    -0.006 C 
HETATM    3  C3  UNL     1      26.458   1.870  51.685  1.00  0.00     0.010 C 
HETATM    4  C4  UNL     1      26.420   3.005  50.752  1.00  0.00     0.063 C 
HETATM    5  C5  UNL     1      25.403   4.052  50.727  1.00  0.00     0.064 C 
HETATM    6  C6  UNL     1      24.061   3.920  50.132  1.00  0.00     0.021 C 
HETATM    7  C7  UNL     1      23.610   4.999  49.481  1.00  0.00     0.019 A 
HETATM    8  C8  UNL     1      22.396   5.268  48.766  1.00  0.00     0.055 A 
HETATM    9  C9  UNL     1      21.867   6.327  48.195  1.00  0.00     0.102 A 
HETATM   10  C11 UNL     1      22.653   7.547  48.270  1.00  0.00     0.103 A 
HETATM   11  C13 UNL     1      23.815   7.530  48.889  1.00  0.00     0.073 A 
HETATM   12  C14 UNL     1      24.336   6.313  49.502  1.00  0.00     0.084 A 
HETATM   13  N1  UNL     1      25.438   6.531  50.099  1.00  0.00    -0.173 NA
HETATM   14  C15 UNL     1      26.123   7.689  50.144  1.00  0.00     0.206 C 
HETATM   15  N2  UNL     1      26.725   8.669  50.190  1.00  0.00    -0.170 NA
HETATM   16  N3  UNL     1      22.909   2.996  49.971  1.00  0.00    -0.374 N 
HETATM   17  C18 UNL     1      21.719   2.805  50.790  1.00  0.00     0.125 C 
HETATM   18  C19 UNL     1      21.287   1.385  50.778  1.00  0.00    -0.003 C 
HETATM   19  C20 UNL     1      21.185   0.480  51.806  1.00  0.00    -0.009 C 
HETATM   20  C21 UNL     1      22.050   0.819  53.047  1.00  0.00     0.154 C 
HETATM   21  N4  UNL     1      22.759   1.854  52.495  1.00  0.00    -0.328 N 
HETATM   22  C22 UNL     1      22.052   3.132  52.250  1.00  0.00     0.157 C 
HETATM   23  C23 UNL     1      24.042   1.684  52.124  1.00  0.00     0.323 C 
HETATM   24  O3  UNL     1      24.587   2.561  52.720  1.00  0.00    -0.247 OA
HETATM   25  N5  UNL     1      25.221   1.226  51.536  1.00  0.00    -0.313 N 
HETATM   26  H29 UNL     1      25.478   0.439  50.948  1.00  0.00     0.170 HD
ENDROOT
BRANCH  10  27
HETATM   27  O2  UNL     1      22.166   8.705  47.691  1.00  0.00    -0.353 OA
HETATM   28  C12 UNL     1      21.498   9.715  48.419  1.00  0.00     0.210 C 
ENDBRANCH  10  27
BRANCH  16  29
HETATM   29  C16 UNL     1      23.153   2.321  48.752  1.00  0.00     0.119 C 
HETATM   30  C17 UNL     1      21.946   2.110  47.900  1.00  0.00     0.026 C 
ENDBRANCH  16  29
BRANCH   9  31
HETATM   31  O1  UNL     1      20.637   6.269  47.561  1.00  0.00    -0.353 OA
HETATM   32  C10 UNL     1      19.403   6.441  48.217  1.00  0.00     0.210 C 
ENDBRANCH   9  31
TORSDOF 3
ENDMDL
MODEL 8
REMARK VINA RESULT:      -7.5      2.569      5.089
REMARK  3 active torsions:
REMARK  status: ('A' for Active; 'I' for Inactive)
REMARK    1  A    between atoms: C9_9  and  O1_10 
REMARK    2  A    between atoms: C11_12  and  O2_13 
REMARK    3  A    between atoms: N3_20  and  C16_21 
ROOT
HETATM    1  C1  UNL     1      20.143   7.910  46.418  1.00  0.00     0.038 C 
HETATM    2  C2  UNL     1      21.403   7.679  47.166  1.00  0.00    -0.006 C 
HETATM    3  C3  UNL     1      21.543   6.730  48.070  1.00  0.00     0.010 C 
HETATM    4  C4  UNL     1      22.753   6.438  48.850  1.00  0.00     0.063 C 
HETATM    5  C5  UNL     1      23.398   5.133  48.965  1.00  0.00     0.064 C 
HETATM    6  C6  UNL     1      22.947   4.035  49.838  1.00  0.00     0.021 C 
HETATM    7  C7  UNL     1      23.919   3.338  50.438  1.00  0.00     0.019 A 
HETATM    8  C8  UNL     1      23.904   2.235  51.355  1.00  0.00     0.055 A 
HETATM    9  C9  UNL     1      24.818   1.461  51.895  1.00  0.00     0.102 A 
HETATM   10  C11 UNL     1      26.192   1.741  51.515  1.00  0.00     0.103 A 
HETATM   11  C13 UNL     1      26.442   2.722  50.673  1.00  0.00     0.073 A 
HETATM   12  C14 UNL     1      25.371   3.538  50.111  1.00  0.00     0.084 A 
HETATM   13  N1  UNL     1      25.824   4.385  49.276  1.00  0.00    -0.173 NA
HETATM   14  C15 UNL     1      27.113   4.599  48.953  1.00  0.00     0.206 C 
HETATM   15  N2  UNL     1      28.209   4.799  48.668  1.00  0.00    -0.170 NA
HETATM   16  N3  UNL     1      21.744   3.325  50.343  1.00  0.00    -0.374 N 
HETATM   17  C18 UNL     1      21.029   2.169  49.820  1.00  0.00     0.125 C 
HETATM   18  C19 UNL     1      19.574   2.275  50.088  1.00  0.00    -0.003 C 
HETATM   19  C20 UNL     1      18.513   2.342  49.217  1.00  0.00    -0.009 C 
HETATM   20  C21 UNL     1      18.883   2.826  47.792  1.00  0.00     0.154 C 
HETATM   21  N4  UNL     1      20.175   3.199  48.059  1.00  0.00    -0.328 N 
HETATM   22  C22 UNL     1      21.175   2.132  48.294  1.00  0.00     0.157 C 
HETATM   23  C23 UNL     1      20.504   4.499  48.170  1.00  0.00     0.323 C 
HETATM   24  O3  UNL     1      21.385   4.598  47.375  1.00  0.00    -0.247 OA
HETATM   25  N5  UNL     1      20.569   5.841  48.548  1.00  0.00    -0.313 N 
HETATM   26  H29 UNL     1      20.031   6.448  49.157  1.00  0.00     0.170 HD
ENDROOT
BRANCH  10  27
HETATM   27  O2  UNL     1      27.213   0.972  52.044  1.00  0.00    -0.353 OA
HETATM   28  C12 UNL     1      27.992   1.374  53.153  1.00  0.00     0.210 C 
ENDBRANCH  10  27
BRANCH  16  29
HETATM   29  C16 UNL     1      21.418   3.979  51.555  1.00  0.00     0.119 C 
HETATM   30  C17 UNL     1      20.826   3.098  52.603  1.00  0.00     0.026 C 
ENDBRANCH  16  29
BRANCH   9  31
HETATM   31  O1  UNL     1      24.479   0.446  52.774  1.00  0.00    -0.353 OA
HETATM   32  C10 UNL     1      23.160   0.008  53.003  1.00  0.00     0.210 C 
ENDBRANCH   9  31
TORSDOF 3
ENDMDL
MODEL 9
REMARK VINA RESULT:      -7.3      3.957      6.751
REMARK  3 active torsions:
REMARK  status: ('A' for Active; 'I' for Inactive)
REMARK    1  A    between atoms: C9_9  and  O1_10 
REMARK    2  A    between atoms: C11_12  and  O2_13 
REMARK    3  A    between atoms: N3_20  and  C16_21 
ROOT
HETATM    1  C1  UNL     1      25.702   0.742  52.693  1.00  0.00     0.038 C 
HETATM    2  C2  UNL     1      26.253   1.622  51.635  1.00  0.00    -0.006 C 
HETATM    3  C3  UNL     1      25.500   2.358  50.842  1.00  0.00     0.010 C 
HETATM    4  C4  UNL     1      25.969   3.252  49.773  1.00  0.00     0.063 C 
HETATM    5  C5  UNL     1      25.603   4.657  49.619  1.00  0.00     0.064 C 
HETATM    6  C6  UNL     1      24.336   5.148  49.047  1.00  0.00     0.021 C 
HETATM    7  C7  UNL     1      24.437   6.230  48.267  1.00  0.00     0.019 A 
HETATM    8  C8  UNL     1      23.472   6.990  47.525  1.00  0.00     0.055 A 
HETATM    9  C9  UNL     1      23.501   8.103  46.826  1.00  0.00     0.102 A 
HETATM   10  C11 UNL     1      24.789   8.768  46.747  1.00  0.00     0.103 A 
HETATM   11  C13 UNL     1      25.828   8.242  47.361  1.00  0.00     0.073 A 
HETATM   12  C14 UNL     1      25.717   7.002  48.121  1.00  0.00     0.084 A 
HETATM   13  N1  UNL     1      26.819   6.704  48.684  1.00  0.00    -0.173 NA
HETATM   14  C15 UNL     1      27.988   7.363  48.582  1.00  0.00     0.206 C 
HETATM   15  N2  UNL     1      28.997   7.911  48.504  1.00  0.00    -0.170 NA
HETATM   16  N3  UNL     1      22.871   4.910  49.006  1.00  0.00    -0.374 N 
HETATM   17  C18 UNL     1      21.797   5.427  49.844  1.00  0.00     0.125 C 
HETATM   18  C19 UNL     1      20.720   4.420  50.012  1.00  0.00    -0.003 C 
HETATM   19  C20 UNL     1      20.249   3.804  51.145  1.00  0.00    -0.009 C 
HETATM   20  C21 UNL     1      21.247   3.798  52.333  1.00  0.00     0.154 C 
HETATM   21  N4  UNL     1      22.338   4.275  51.653  1.00  0.00    -0.328 N 
HETATM   22  C22 UNL     1      22.341   5.701  51.251  1.00  0.00     0.157 C 
HETATM   23  C23 UNL     1      23.342   3.450  51.305  1.00  0.00     0.323 C 
HETATM   24  O3  UNL     1      24.286   3.997  51.785  1.00  0.00    -0.247 OA
HETATM   25  N5  UNL     1      24.100   2.405  50.777  1.00  0.00    -0.313 N 
HETATM   26  H29 UNL     1      23.896   1.537  50.292  1.00  0.00     0.170 HD
ENDROOT
BRANCH  10  27
HETATM   27  O2  UNL     1      24.903   9.944  46.027  1.00  0.00    -0.353 OA
HETATM   28  C12 UNL     1      24.881  11.225  46.625  1.00  0.00     0.210 C 
ENDBRANCH  10  27
BRANCH  16  29
HETATM   29  C16 UNL     1      22.670   4.076  47.881  1.00  0.00     0.119 C 
HETATM   30  C17 UNL     1      22.667   2.614  48.177  1.00  0.00     0.026 C 
ENDBRANCH  16  29
BRANCH   9  31
HETATM   31  O1  UNL     1      22.365   8.597  46.207  1.00  0.00    -0.353 OA
HETATM   32  C10 UNL     1      21.446   9.469  46.823  1.00  0.00     0.210 C 
ENDBRANCH   9  31
TORSDOF 3
ENDMDL
