MODEL 1
REMARK VINA RESULT:      -8.1      0.000      0.000
REMARK  6 active torsions:
REMARK  status: ('A' for Active; 'I' for Inactive)
REMARK    1  A    between atoms: C2_2  and  C3_3 
REMARK    2  A    between atoms: C3_3  and  C5_5 
REMARK    3  A    between atoms: C6_7  and  C7_8 
REMARK    4  A    between atoms: C7_8  and  N1_9 
REMARK    5  A    between atoms: N1_9  and  C8_10 
REMARK    6  A    between atoms: C17_21  and  O2_22 
ROOT
HETATM    1  C8  UNL     1      24.975   2.666  51.957  1.00  0.00     0.245 C 
HETATM    2  C9  UNL     1      24.417   3.240  53.242  1.00  0.00     0.075 C 
HETATM    3  C10 UNL     1      24.697   3.598  50.795  1.00  0.00     0.095 C 
HETATM    4  C11 UNL     1      23.239   3.608  50.328  1.00  0.00     0.022 C 
HETATM    5  C12 UNL     1      22.312   4.200  51.303  1.00  0.00     0.037 C 
HETATM    6  C13 UNL     1      23.261   4.588  49.120  1.00  0.00     0.037 C 
HETATM    7  N2  UNL     1      22.992   2.303  49.924  1.00  0.00    -0.411 N 
HETATM    8  C14 UNL     1      21.834   1.641  49.638  1.00  0.00     0.141 C 
HETATM    9  C15 UNL     1      20.885   1.394  50.835  1.00  0.00     0.187 C 
HETATM   10  O1  UNL     1      19.903   0.527  50.493  1.00  0.00    -0.383 OA
HETATM   11  C16 UNL     1      19.112   0.150  51.532  1.00  0.00     0.232 C 
HETATM   12  C17 UNL     1      19.785  -0.234  52.788  1.00  0.00     0.070 C 
HETATM   13  C19 UNL     1      20.792  -0.432  53.597  1.00  0.00     0.047 C 
HETATM   14  C20 UNL     1      22.214  -0.361  53.785  1.00  0.00     0.212 C 
HETATM   15  N3  UNL     1      23.509  -0.154  53.659  1.00  0.00    -0.292 NA
HETATM   16  C21 UNL     1      24.059   0.484  52.474  1.00  0.00     0.212 C 
HETATM   17  N4  UNL     1      24.573   1.318  51.685  1.00  0.00    -0.266 NA
HETATM   18  H21 UNL     1      23.876   1.859  49.507  1.00  0.00     0.154 HD
ENDROOT
BRANCH   1  19
HETATM   19  N1  UNL     1      26.451   2.627  52.064  1.00  0.00     0.117 NA
HETATM   20  H9  UNL     1      26.787   3.443  51.516  1.00  0.00     0.319 HD
BRANCH  19  21
HETATM   21  C7  UNL     1      26.972   2.508  53.367  1.00  0.00     0.302 C 
BRANCH  21  22
HETATM   22  C6  UNL     1      28.402   2.163  53.359  1.00  0.00     0.028 C 
HETATM   23  C5  UNL     1      28.782   0.900  53.594  1.00  0.00     0.045 C 
HETATM   24 CL1  UNL     1      29.908  -0.401  53.795  1.00  0.00    -0.083 Cl
BRANCH  23  25
HETATM   25  C3  UNL     1      27.730  -0.064  53.847  1.00  0.00     0.000 C 
HETATM   26  C4  UNL     1      26.797  -0.198  54.981  1.00  0.00     0.059 C 
BRANCH  25  27
HETATM   27  C2  UNL     1      27.432  -1.056  53.011  1.00  0.00    -0.146 C 
HETATM   28  C1  UNL     1      26.826  -2.026  52.364  1.00  0.00     0.097 C 
ENDBRANCH  25  27
ENDBRANCH  23  25
ENDBRANCH  21  22
ENDBRANCH  19  21
ENDBRANCH   1  19
BRANCH  12  29
HETATM   29  O2  UNL     1      18.656  -0.604  53.575  1.00  0.00    -0.358 OA
HETATM   30  C18 UNL     1      17.879  -1.729  53.224  1.00  0.00     0.209 C 
ENDBRANCH  12  29
TORSDOF 6
ENDMDL
MODEL 2
REMARK VINA RESULT:      -7.7      2.648      4.634
REMARK  6 active torsions:
REMARK  status: ('A' for Active; 'I' for Inactive)
REMARK    1  A    between atoms: C2_2  and  C3_3 
REMARK    2  A    between atoms: C3_3  and  C5_5 
REMARK    3  A    between atoms: C6_7  and  C7_8 
REMARK    4  A    between atoms: C7_8  and  N1_9 
REMARK    5  A    between atoms: N1_9  and  C8_10 
REMARK    6  A    between atoms: C17_21  and  O2_22 
ROOT
HETATM    1  C8  UNL     1      24.283   2.911  51.873  1.00  0.00     0.245 C 
HETATM    2  C9  UNL     1      24.547   3.007  50.385  1.00  0.00     0.075 C 
HETATM    3  C10 UNL     1      23.748   1.539  52.229  1.00  0.00     0.095 C 
HETATM    4  C11 UNL     1      22.296   1.299  51.809  1.00  0.00     0.022 C 
HETATM    5  C12 UNL     1      22.107   1.230  50.353  1.00  0.00     0.037 C 
HETATM    6  C13 UNL     1      22.007  -0.135  52.339  1.00  0.00     0.037 C 
HETATM    7  N2  UNL     1      21.569   2.258  52.502  1.00  0.00    -0.411 N 
HETATM    8  C14 UNL     1      20.284   2.697  52.372  1.00  0.00     0.141 C 
HETATM    9  C15 UNL     1      19.966   3.473  51.071  1.00  0.00     0.187 C 
HETATM   10  O1  UNL     1      18.752   4.069  51.157  1.00  0.00    -0.383 OA
HETATM   11  C16 UNL     1      18.463   4.885  50.109  1.00  0.00     0.232 C 
HETATM   12  C17 UNL     1      19.516   5.821  49.671  1.00  0.00     0.070 C 
HETATM   13  C19 UNL     1      20.695   6.385  49.672  1.00  0.00     0.047 C 
HETATM   14  C20 UNL     1      22.009   6.421  50.251  1.00  0.00     0.212 C 
HETATM   15  N3  UNL     1      23.105   6.189  50.944  1.00  0.00    -0.292 NA
HETATM   16  C21 UNL     1      23.190   5.072  51.870  1.00  0.00     0.212 C 
HETATM   17  N4  UNL     1      23.474   3.968  52.402  1.00  0.00    -0.266 NA
HETATM   18  H21 UNL     1      22.015   2.459  53.458  1.00  0.00     0.154 HD
ENDROOT
BRANCH   1  19
HETATM   19  N1  UNL     1      25.578   3.007  52.584  1.00  0.00     0.117 NA
HETATM   20  H9  UNL     1      25.354   2.845  53.585  1.00  0.00     0.319 HD
BRANCH  19  21
HETATM   21  C7  UNL     1      26.630   2.233  52.058  1.00  0.00     0.302 C 
BRANCH  21  22
HETATM   22  C6  UNL     1      27.755   2.120  52.999  1.00  0.00     0.028 C 
HETATM   23  C5  UNL     1      27.933   0.986  53.690  1.00  0.00     0.045 C 
HETATM   24 CL1  UNL     1      28.712  -0.074  54.817  1.00  0.00    -0.083 Cl
BRANCH  23  25
HETATM   25  C3  UNL     1      26.977  -0.079  53.457  1.00  0.00     0.000 C 
HETATM   26  C4  UNL     1      26.842  -1.025  52.334  1.00  0.00     0.059 C 
BRANCH  25  27
HETATM   27  C2  UNL     1      25.996  -0.377  54.305  1.00  0.00    -0.146 C 
HETATM   28  C1  UNL     1      24.889  -0.829  54.850  1.00  0.00     0.097 C 
ENDBRANCH  25  27
ENDBRANCH  23  25
ENDBRANCH  21  22
ENDBRANCH  19  21
ENDBRANCH   1  19
BRANCH  12  29
HETATM   29  O2  UNL     1      18.825   6.511  48.633  1.00  0.00    -0.358 OA
HETATM   30  C18 UNL     1      19.095   7.872  48.378  1.00  0.00     0.209 C 
ENDBRANCH  12  29
TORSDOF 6
ENDMDL
MODEL 3
REMARK VINA RESULT:      -7.3      3.837      6.543
REMARK  6 active torsions:
REMARK  status: ('A' for Active; 'I' for Inactive)
REMARK    1  A    between atoms: C2_2  and  C3_3 
REMARK    2  A    between atoms: C3_3  and  C5_5 
REMARK    3  A    between atoms: C6_7  and  C7_8 
REMARK    4  A    between atoms: C7_8  and  N1_9 
REMARK    5  A    between atoms: N1_9  and  C8_10 
REMARK    6  A    between atoms: C17_21  and  O2_22 
ROOT
HETATM    1  C8  UNL     1      23.796   4.906  49.606  1.00  0.00     0.245 C 
HETATM    2  C9  UNL     1      24.371   5.714  50.750  1.00  0.00     0.075 C 
HETATM    3  C10 UNL     1      22.291   4.795  49.738  1.00  0.00     0.095 C 
HETATM    4  C11 UNL     1      21.822   3.840  50.839  1.00  0.00     0.022 C 
HETATM    5  C12 UNL     1      22.121   4.315  52.198  1.00  0.00     0.037 C 
HETATM    6  C13 UNL     1      20.273   3.884  50.710  1.00  0.00     0.037 C 
HETATM    7  N2  UNL     1      22.333   2.603  50.470  1.00  0.00    -0.411 N 
HETATM    8  C14 UNL     1      22.454   1.427  51.150  1.00  0.00     0.141 C 
HETATM    9  C15 UNL     1      23.459   1.430  52.327  1.00  0.00     0.187 C 
HETATM   10  O1  UNL     1      23.682   0.168  52.766  1.00  0.00    -0.383 OA
HETATM   11  C16 UNL     1      24.661   0.075  53.705  1.00  0.00     0.232 C 
HETATM   12  C17 UNL     1      25.915   0.808  53.448  1.00  0.00     0.070 C 
HETATM   13  C19 UNL     1      26.733   1.595  52.800  1.00  0.00     0.047 C 
HETATM   14  C20 UNL     1      26.933   2.440  51.656  1.00  0.00     0.212 C 
HETATM   15  N3  UNL     1      26.798   3.149  50.553  1.00  0.00    -0.292 NA
HETATM   16  C21 UNL     1      25.524   3.227  49.859  1.00  0.00     0.212 C 
HETATM   17  N4  UNL     1      24.423   3.634  49.405  1.00  0.00    -0.266 NA
HETATM   18  H21 UNL     1      22.362   2.505  49.401  1.00  0.00     0.154 HD
ENDROOT
BRANCH   1  19
HETATM   19  N1  UNL     1      24.010   5.658  48.350  1.00  0.00     0.117 NA
HETATM   20  H9  UNL     1      23.233   5.371  47.722  1.00  0.00     0.319 HD
BRANCH  19  21
HETATM   21  C7  UNL     1      24.206   7.045  48.486  1.00  0.00     0.302 C 
BRANCH  21  22
HETATM   22  C6  UNL     1      24.768   7.646  47.267  1.00  0.00     0.028 C 
HETATM   23  C5  UNL     1      26.084   7.891  47.192  1.00  0.00     0.045 C 
HETATM   24 CL1  UNL     1      27.551   8.437  46.451  1.00  0.00    -0.083 Cl
BRANCH  23  25
HETATM   25  C3  UNL     1      26.882   7.539  48.349  1.00  0.00     0.000 C 
HETATM   26  C4  UNL     1      27.139   8.272  49.602  1.00  0.00     0.059 C 
BRANCH  25  27
HETATM   27  C2  UNL     1      27.556   6.396  48.451  1.00  0.00    -0.146 C 
HETATM   28  C1  UNL     1      28.455   5.444  48.341  1.00  0.00     0.097 C 
ENDBRANCH  25  27
ENDBRANCH  23  25
ENDBRANCH  21  22
ENDBRANCH  19  21
ENDBRANCH   1  19
BRANCH  12  29
HETATM   29  O2  UNL     1      26.673   0.420  54.591  1.00  0.00    -0.358 OA
HETATM   30  C18 UNL     1      28.043   0.107  54.467  1.00  0.00     0.209 C 
ENDBRANCH  12  29
TORSDOF 6
ENDMDL
MODEL 4
REMARK VINA RESULT:      -7.3      4.165      7.031
REMARK  6 active torsions:
REMARK  status: ('A' for Active; 'I' for Inactive)
REMARK    1  A    between atoms: C2_2  and  C3_3 
REMARK    2  A    between atoms: C3_3  and  C5_5 
REMARK    3  A    between atoms: C6_7  and  C7_8 
REMARK    4  A    between atoms: C7_8  and  N1_9 
REMARK    5  A    between atoms: N1_9  and  C8_10 
REMARK    6  A    between atoms: C17_21  and  O2_22 
ROOT
HETATM    1  C8  UNL     1      22.912   3.770  50.699  1.00  0.00     0.245 C 
HETATM    2  C9  UNL     1      22.909   3.412  49.228  1.00  0.00     0.075 C 
HETATM    3  C10 UNL     1      21.945   4.903  50.972  1.00  0.00     0.095 C 
HETATM    4  C11 UNL     1      22.425   6.274  50.489  1.00  0.00     0.022 C 
HETATM    5  C12 UNL     1      22.488   6.395  49.026  1.00  0.00     0.037 C 
HETATM    6  C13 UNL     1      21.283   7.229  50.942  1.00  0.00     0.037 C 
HETATM    7  N2  UNL     1      23.596   6.504  51.198  1.00  0.00    -0.411 N 
HETATM    8  C14 UNL     1      24.591   7.424  51.042  1.00  0.00     0.141 C 
HETATM    9  C15 UNL     1      25.455   7.272  49.767  1.00  0.00     0.187 C 
HETATM   10  O1  UNL     1      26.549   8.068  49.836  1.00  0.00    -0.383 OA
HETATM   11  C16 UNL     1      27.430   7.884  48.817  1.00  0.00     0.232 C 
HETATM   12  C17 UNL     1      27.772   6.494  48.461  1.00  0.00     0.070 C 
HETATM   13  C19 UNL     1      27.715   5.190  48.531  1.00  0.00     0.047 C 
HETATM   14  C20 UNL     1      27.117   4.045  49.158  1.00  0.00     0.212 C 
HETATM   15  N3  UNL     1      26.381   3.224  49.880  1.00  0.00    -0.292 NA
HETATM   16  C21 UNL     1      25.334   3.723  50.756  1.00  0.00     0.212 C 
HETATM   17  N4  UNL     1      24.213   4.017  51.246  1.00  0.00    -0.266 NA
HETATM   18  H21 UNL     1      23.542   6.067  52.178  1.00  0.00     0.154 HD
ENDROOT
BRANCH   1  19
HETATM   19  N1  UNL     1      22.372   2.621  51.460  1.00  0.00     0.117 NA
HETATM   20  H9  UNL     1      21.391   2.513  51.136  1.00  0.00     0.319 HD
BRANCH  19  21
HETATM   21  C7  UNL     1      23.154   1.450  51.448  1.00  0.00     0.302 C 
BRANCH  21  22
HETATM   22  C6  UNL     1      22.734   0.496  52.486  1.00  0.00     0.028 C 
HETATM   23  C5  UNL     1      23.629   0.047  53.378  1.00  0.00     0.045 C 
HETATM   24 CL1  UNL     1      24.183  -0.874  54.736  1.00  0.00    -0.083 Cl
BRANCH  23  25
HETATM   25  C3  UNL     1      24.984   0.546  53.252  1.00  0.00     0.000 C 
HETATM   26  C4  UNL     1      25.602   1.793  53.741  1.00  0.00     0.059 C 
BRANCH  25  27
HETATM   27  C2  UNL     1      25.949  -0.115  52.618  1.00  0.00    -0.146 C 
HETATM   28  C1  UNL     1      26.860  -0.995  52.268  1.00  0.00     0.097 C 
ENDBRANCH  25  27
ENDBRANCH  23  25
ENDBRANCH  21  22
ENDBRANCH  19  21
ENDBRANCH   1  19
BRANCH  12  29
HETATM   29  O2  UNL     1      28.729   6.725  47.431  1.00  0.00    -0.358 OA
HETATM   30  C18 UNL     1      29.860   7.534  47.676  1.00  0.00     0.209 C 
ENDBRANCH  12  29
TORSDOF 6
ENDMDL
MODEL 5
REMARK VINA RESULT:      -7.2      3.151      5.477
REMARK  6 active torsions:
REMARK  status: ('A' for Active; 'I' for Inactive)
REMARK    1  A    between atoms: C2_2  and  C3_3 
REMARK    2  A    between atoms: C3_3  and  C5_5 
REMARK    3  A    between atoms: C6_7  and  C7_8 
REMARK    4  A    between atoms: C7_8  and  N1_9 
REMARK    5  A    between atoms: N1_9  and  C8_10 
REMARK    6  A    between atoms: C17_21  and  O2_22 
ROOT
HETATM    1  C8  UNL     1      24.488   3.508  51.247  1.00  0.00     0.245 C 
HETATM    2  C9  UNL     1      25.260   3.985  50.034  1.00  0.00     0.075 C 
HETATM    3  C10 UNL     1      23.694   2.261  50.913  1.00  0.00     0.095 C 
HETATM    4  C11 UNL     1      22.459   2.513  50.045  1.00  0.00     0.022 C 
HETATM    5  C12 UNL     1      22.777   2.937  48.674  1.00  0.00     0.037 C 
HETATM    6  C13 UNL     1      21.825   1.098  49.912  1.00  0.00     0.037 C 
HETATM    7  N2  UNL     1      21.664   3.361  50.806  1.00  0.00    -0.411 N 
HETATM    8  C14 UNL     1      20.570   4.112  50.490  1.00  0.00     0.141 C 
HETATM    9  C15 UNL     1      20.822   5.298  49.528  1.00  0.00     0.187 C 
HETATM   10  O1  UNL     1      19.739   6.111  49.481  1.00  0.00    -0.383 OA
HETATM   11  C16 UNL     1      19.935   7.251  48.767  1.00  0.00     0.232 C 
HETATM   12  C17 UNL     1      21.184   7.996  49.015  1.00  0.00     0.070 C 
HETATM   13  C19 UNL     1      22.351   8.235  49.552  1.00  0.00     0.047 C 
HETATM   14  C20 UNL     1      23.378   7.780  50.447  1.00  0.00     0.212 C 
HETATM   15  N3  UNL     1      24.128   7.095  51.286  1.00  0.00    -0.292 NA
HETATM   16  C21 UNL     1      23.745   5.763  51.725  1.00  0.00     0.212 C 
HETATM   17  N4  UNL     1      23.687   4.515  51.874  1.00  0.00    -0.266 NA
HETATM   18  H21 UNL     1      21.774   3.150  51.853  1.00  0.00     0.154 HD
ENDROOT
BRANCH   1  19
HETATM   19  N1  UNL     1      25.459   3.072  52.276  1.00  0.00     0.117 NA
HETATM   20  H9  UNL     1      24.887   2.841  53.112  1.00  0.00     0.319 HD
BRANCH  19  21
HETATM   21  C7  UNL     1      26.385   2.091  51.875  1.00  0.00     0.302 C 
BRANCH  21  22
HETATM   22  C6  UNL     1      27.588   2.089  52.721  1.00  0.00     0.028 C 
HETATM   23  C5  UNL     1      27.828   1.051  53.534  1.00  0.00     0.045 C 
HETATM   24 CL1  UNL     1      28.706   0.137  54.715  1.00  0.00    -0.083 Cl
BRANCH  23  25
HETATM   25  C3  UNL     1      26.859  -0.026  53.523  1.00  0.00     0.000 C 
HETATM   26  C4  UNL     1      25.581  -0.181  54.241  1.00  0.00     0.059 C 
BRANCH  25  27
HETATM   27  C2  UNL     1      27.002  -1.129  52.793  1.00  0.00    -0.146 C 
HETATM   28  C1  UNL     1      27.011  -2.373  52.369  1.00  0.00     0.097 C 
ENDBRANCH  25  27
ENDBRANCH  23  25
ENDBRANCH  21  22
ENDBRANCH  19  21
ENDBRANCH   1  19
BRANCH  12  29
HETATM   29  O2  UNL     1      20.987   9.112  48.150  1.00  0.00    -0.358 OA
HETATM   30  C18 UNL     1      22.090   9.870  47.700  1.00  0.00     0.209 C 
ENDBRANCH  12  29
TORSDOF 6
ENDMDL
MODEL 6
REMARK VINA RESULT:      -7.0      3.839      7.388
REMARK  6 active torsions:
REMARK  status: ('A' for Active; 'I' for Inactive)
REMARK    1  A    between atoms: C2_2  and  C3_3 
REMARK    2  A    between atoms: C3_3  and  C5_5 
REMARK    3  A    between atoms: C6_7  and  C7_8 
REMARK    4  A    between atoms: C7_8  and  N1_9 
REMARK    5  A    between atoms: N1_9  and  C8_10 
REMARK    6  A    between atoms: C17_21  and  O2_22 
ROOT
HETATM    1  C8  UNL     1      20.756   1.524  51.465  1.00  0.00     0.245 C 
HETATM    2  C9  UNL     1      21.325   0.381  50.653  1.00  0.00     0.075 C 
HETATM    3  C10 UNL     1      21.023   2.848  50.778  1.00  0.00     0.095 C 
HETATM    4  C11 UNL     1      22.477   3.321  50.863  1.00  0.00     0.022 C 
HETATM    5  C12 UNL     1      23.413   2.488  50.094  1.00  0.00     0.037 C 
HETATM    6  C13 UNL     1      22.444   4.697  50.137  1.00  0.00     0.037 C 
HETATM    7  N2  UNL     1      22.719   3.464  52.223  1.00  0.00    -0.411 N 
HETATM    8  C14 UNL     1      23.874   3.627  52.930  1.00  0.00     0.141 C 
HETATM    9  C15 UNL     1      24.834   2.412  52.941  1.00  0.00     0.187 C 
HETATM   10  O1  UNL     1      25.813   2.588  53.860  1.00  0.00    -0.383 OA
HETATM   11  C16 UNL     1      26.613   1.502  54.029  1.00  0.00     0.232 C 
HETATM   12  C17 UNL     1      25.953   0.189  54.158  1.00  0.00     0.070 C 
HETATM   13  C19 UNL     1      24.953  -0.651  54.192  1.00  0.00     0.047 C 
HETATM   14  C20 UNL     1      23.533  -0.835  54.083  1.00  0.00     0.212 C 
HETATM   15  N3  UNL     1      22.237  -0.682  53.902  1.00  0.00    -0.292 NA
HETATM   16  C21 UNL     1      21.675   0.599  53.506  1.00  0.00     0.212 C 
HETATM   17  N4  UNL     1      21.155   1.531  52.841  1.00  0.00    -0.266 NA
HETATM   18  H21 UNL     1      21.832   3.779  52.738  1.00  0.00     0.154 HD
ENDROOT
BRANCH   1  19
HETATM   19  N1  UNL     1      19.281   1.397  51.479  1.00  0.00     0.117 NA
HETATM   20  H9  UNL     1      18.938   2.107  50.802  1.00  0.00     0.319 HD
BRANCH  19  21
HETATM   21  C7  UNL     1      18.772   0.096  51.314  1.00  0.00     0.302 C 
BRANCH  21  22
HETATM   22  C6  UNL     1      17.306   0.088  51.190  1.00  0.00     0.028 C 
HETATM   23  C5  UNL     1      16.579  -0.745  51.947  1.00  0.00     0.045 C 
HETATM   24 CL1  UNL     1      15.129  -1.481  52.545  1.00  0.00    -0.083 Cl
BRANCH  23  25
HETATM   25  C3  UNL     1      17.308  -1.605  52.858  1.00  0.00     0.000 C 
HETATM   26  C4  UNL     1      18.459  -1.325  53.736  1.00  0.00     0.059 C 
BRANCH  25  27
HETATM   27  C2  UNL     1      17.010  -2.888  53.046  1.00  0.00    -0.146 C 
HETATM   28  C1  UNL     1      16.976  -4.128  53.480  1.00  0.00     0.097 C 
ENDBRANCH  25  27
ENDBRANCH  23  25
ENDBRANCH  21  22
ENDBRANCH  19  21
ENDBRANCH   1  19
BRANCH  12  29
HETATM   29  O2  UNL     1      27.089  -0.645  54.370  1.00  0.00    -0.358 OA
HETATM   30  C18 UNL     1      28.281  -0.424  53.648  1.00  0.00     0.209 C 
ENDBRANCH  12  29
TORSDOF 6
ENDMDL
MODEL 7
REMARK VINA RESULT:      -7.0      8.828     11.599
REMARK  6 active torsions:
REMARK  status: ('A' for Active; 'I' for Inactive)
REMARK    1  A    between atoms: C2_2  and  C3_3 
REMARK    2  A    between atoms: C3_3  and  C5_5 
REMARK    3  A    between atoms: C6_7  and  C7_8 
REMARK    4  A    between atoms: C7_8  and  N1_9 
REMARK    5  A    between atoms: N1_9  and  C8_10 
REMARK    6  A    between atoms: C17_21  and  O2_22 
ROOT
HETATM    1  C8  UNL     1      29.130   7.258  48.260  1.00  0.00     0.245 C 
HETATM    2  C9  UNL     1      29.703   7.591  46.899  1.00  0.00     0.075 C 
HETATM    3  C10 UNL     1      27.697   6.782  48.131  1.00  0.00     0.095 C 
HETATM    4  C11 UNL     1      26.689   7.891  47.816  1.00  0.00     0.022 C 
HETATM    5  C12 UNL     1      26.845   8.466  46.473  1.00  0.00     0.037 C 
HETATM    6  C13 UNL     1      25.329   7.137  47.796  1.00  0.00     0.037 C 
HETATM    7  N2  UNL     1      26.778   8.760  48.896  1.00  0.00    -0.411 N 
HETATM    8  C14 UNL     1      26.313  10.029  49.085  1.00  0.00     0.141 C 
HETATM    9  C15 UNL     1      26.975  11.126  48.216  1.00  0.00     0.187 C 
HETATM   10  O1  UNL     1      26.622  12.358  48.655  1.00  0.00    -0.383 OA
HETATM   11  C16 UNL     1      27.276  13.373  48.031  1.00  0.00     0.232 C 
HETATM   12  C17 UNL     1      28.735  13.236  47.863  1.00  0.00     0.070 C 
HETATM   13  C19 UNL     1      29.901  12.652  47.944  1.00  0.00     0.047 C 
HETATM   14  C20 UNL     1      30.635  11.484  48.343  1.00  0.00     0.212 C 
HETATM   15  N3  UNL     1      31.006  10.294  48.772  1.00  0.00    -0.292 NA
HETATM   16  C21 UNL     1      30.028   9.305  49.193  1.00  0.00     0.212 C 
HETATM   17  N4  UNL     1      29.275   8.298  49.235  1.00  0.00    -0.266 NA
HETATM   18  H21 UNL     1      26.996   8.225  49.801  1.00  0.00     0.154 HD
ENDROOT
BRANCH   1  19
HETATM   19  N1  UNL     1      29.866   6.096  48.805  1.00  0.00     0.117 NA
HETATM   20  H9  UNL     1      29.138   5.481  49.221  1.00  0.00     0.319 HD
BRANCH  19  21
HETATM   21  C7  UNL     1      30.769   5.469  47.926  1.00  0.00     0.302 C 
BRANCH  21  22
HETATM   22  C6  UNL     1      32.106   5.322  48.521  1.00  0.00     0.028 C 
HETATM   23  C5  UNL     1      33.007   4.517  47.941  1.00  0.00     0.045 C 
HETATM   24 CL1  UNL     1      34.539   3.729  47.760  1.00  0.00    -0.083 Cl
BRANCH  23  25
HETATM   25  C3  UNL     1      32.589   3.828  46.736  1.00  0.00     0.000 C 
HETATM   26  C4  UNL     1      31.913   2.530  46.554  1.00  0.00     0.059 C 
BRANCH  25  27
HETATM   27  C2  UNL     1      32.773   4.318  45.514  1.00  0.00    -0.146 C 
HETATM   28  C1  UNL     1      33.298   4.711  44.374  1.00  0.00     0.097 C 
ENDBRANCH  25  27
ENDBRANCH  23  25
ENDBRANCH  21  22
ENDBRANCH  19  21
ENDBRANCH   1  19
BRANCH  12  29
HETATM   29  O2  UNL     1      29.036  14.484  47.245  1.00  0.00    -0.358 OA
HETATM   30  C18 UNL     1      29.503  14.527  45.914  1.00  0.00     0.209 C 
ENDBRANCH  12  29
TORSDOF 6
ENDMDL
MODEL 8
REMARK VINA RESULT:      -6.9      3.233      5.016
REMARK  6 active torsions:
REMARK  status: ('A' for Active; 'I' for Inactive)
REMARK    1  A    between atoms: C2_2  and  C3_3 
REMARK    2  A    between atoms: C3_3  and  C5_5 
REMARK    3  A    between atoms: C6_7  and  C7_8 
REMARK    4  A    between atoms: C7_8  and  N1_9 
REMARK    5  A    between atoms: N1_9  and  C8_10 
REMARK    6  A    between atoms: C17_21  and  O2_22 
ROOT
HETATM    1  C8  UNL     1      24.143   4.484  50.686  1.00  0.00     0.245 C 
HETATM    2  C9  UNL     1      23.749   4.880  52.093  1.00  0.00     0.075 C 
HETATM    3  C10 UNL     1      23.340   5.269  49.669  1.00  0.00     0.095 C 
HETATM    4  C11 UNL     1      21.880   4.828  49.540  1.00  0.00     0.022 C 
HETATM    5  C12 UNL     1      21.067   5.124  50.729  1.00  0.00     0.037 C 
HETATM    6  C13 UNL     1      21.330   5.750  48.414  1.00  0.00     0.037 C 
HETATM    7  N2  UNL     1      21.950   3.503  49.130  1.00  0.00    -0.411 N 
HETATM    8  C14 UNL     1      21.010   2.516  49.072  1.00  0.00     0.141 C 
HETATM    9  C15 UNL     1      20.480   2.010  50.435  1.00  0.00     0.187 C 
HETATM   10  O1  UNL     1      19.751   0.880  50.272  1.00  0.00    -0.383 OA
HETATM   11  C16 UNL     1      19.370   0.296  51.439  1.00  0.00     0.232 C 
HETATM   12  C17 UNL     1      20.395   0.155  52.491  1.00  0.00     0.070 C 
HETATM   13  C19 UNL     1      21.572   0.285  53.042  1.00  0.00     0.047 C 
HETATM   14  C20 UNL     1      22.911   0.789  52.912  1.00  0.00     0.212 C 
HETATM   15  N3  UNL     1      24.020   1.378  52.513  1.00  0.00    -0.292 NA
HETATM   16  C21 UNL     1      24.067   2.135  51.273  1.00  0.00     0.212 C 
HETATM   17  N4  UNL     1      24.112   3.074  50.437  1.00  0.00    -0.266 NA
HETATM   18  H21 UNL     1      22.806   3.343  48.501  1.00  0.00     0.154 HD
ENDROOT
BRANCH   1  19
HETATM   19  N1  UNL     1      25.546   4.898  50.460  1.00  0.00     0.117 NA
HETATM   20  H9  UNL     1      26.125   4.135  50.863  1.00  0.00     0.319 HD
BRANCH  19  21
HETATM   21  C7  UNL     1      25.872   5.285  49.147  1.00  0.00     0.302 C 
BRANCH  21  22
HETATM   22  C6  UNL     1      27.270   4.977  48.811  1.00  0.00     0.028 C 
HETATM   23  C5  UNL     1      28.067   5.942  48.331  1.00  0.00     0.045 C 
HETATM   24 CL1  UNL     1      29.541   6.619  47.725  1.00  0.00    -0.083 Cl
BRANCH  23  25
HETATM   25  C3  UNL     1      27.478   7.257  48.171  1.00  0.00     0.000 C 
HETATM   26  C4  UNL     1      26.859   7.899  46.997  1.00  0.00     0.059 C 
BRANCH  25  27
HETATM   27  C2  UNL     1      27.409   8.150  49.154  1.00  0.00    -0.146 C 
HETATM   28  C1  UNL     1      27.648   9.146  49.977  1.00  0.00     0.097 C 
ENDBRANCH  25  27
ENDBRANCH  23  25
ENDBRANCH  21  22
ENDBRANCH  19  21
ENDBRANCH   1  19
BRANCH  12  29
HETATM   29  O2  UNL     1      19.641  -0.530  53.488  1.00  0.00    -0.358 OA
HETATM   30  C18 UNL     1      18.386  -1.094  53.172  1.00  0.00     0.209 C 
ENDBRANCH  12  29
TORSDOF 6
ENDMDL
MODEL 9
REMARK VINA RESULT:      -6.7      3.373      6.163
REMARK  6 active torsions:
REMARK  status: ('A' for Active; 'I' for Inactive)
REMARK    1  A    between atoms: C2_2  and  C3_3 
REMARK    2  A    between atoms: C3_3  and  C5_5 
REMARK    3  A    between atoms: C6_7  and  C7_8 
REMARK    4  A    between atoms: C7_8  and  N1_9 
REMARK    5  A    between atoms: N1_9  and  C8_10 
REMARK    6  A    between atoms: C17_21  and  O2_22 
ROOT
HETATM    1  C8  UNL     1      25.182   3.514  50.638  1.00  0.00     0.245 C 
HETATM    2  C9  UNL     1      25.882   3.251  49.322  1.00  0.00     0.075 C 
HETATM    3  C10 UNL     1      24.047   2.531  50.842  1.00  0.00     0.095 C 
HETATM    4  C11 UNL     1      22.818   2.796  49.968  1.00  0.00     0.022 C 
HETATM    5  C12 UNL     1      23.050   2.561  48.536  1.00  0.00     0.037 C 
HETATM    6  C13 UNL     1      21.819   1.692  50.419  1.00  0.00     0.037 C 
HETATM    7  N2  UNL     1      22.388   4.061  50.345  1.00  0.00    -0.411 N 
HETATM    8  C14 UNL     1      21.501   4.929  49.777  1.00  0.00     0.141 C 
HETATM    9  C15 UNL     1      21.928   5.536  48.419  1.00  0.00     0.187 C 
HETATM   10  O1  UNL     1      21.105   6.555  48.074  1.00  0.00    -0.383 OA
HETATM   11  C16 UNL     1      21.500   7.231  46.963  1.00  0.00     0.232 C 
HETATM   12  C17 UNL     1      22.924   7.607  46.871  1.00  0.00     0.070 C 
HETATM   13  C19 UNL     1      24.174   7.669  47.247  1.00  0.00     0.047 C 
HETATM   14  C20 UNL     1      25.153   7.299  48.230  1.00  0.00     0.212 C 
HETATM   15  N3  UNL     1      25.799   6.787  49.258  1.00  0.00    -0.292 NA
HETATM   16  C21 UNL     1      25.138   5.895  50.196  1.00  0.00     0.212 C 
HETATM   17  N4  UNL     1      24.770   4.873  50.829  1.00  0.00    -0.266 NA
HETATM   18  H21 UNL     1      22.578   4.235  51.387  1.00  0.00     0.154 HD
ENDROOT
BRANCH   1  19
HETATM   19  N1  UNL     1      26.131   3.227  51.737  1.00  0.00     0.117 NA
HETATM   20  H9  UNL     1      26.168   4.099  52.302  1.00  0.00     0.319 HD
BRANCH  19  21
HETATM   21  C7  UNL     1      25.901   2.040  52.458  1.00  0.00     0.302 C 
BRANCH  21  22
HETATM   22  C6  UNL     1      26.711   0.922  51.952  1.00  0.00     0.028 C 
HETATM   23  C5  UNL     1      26.520  -0.312  52.439  1.00  0.00     0.045 C 
HETATM   24 CL1  UNL     1      26.800  -2.015  52.587  1.00  0.00    -0.083 Cl
BRANCH  23  25
HETATM   25  C3  UNL     1      25.502  -0.461  53.460  1.00  0.00     0.000 C 
HETATM   26  C4  UNL     1      25.611  -0.524  54.929  1.00  0.00     0.059 C 
BRANCH  25  27
HETATM   27  C2  UNL     1      24.205  -0.572  53.186  1.00  0.00    -0.146 C 
HETATM   28  C1  UNL     1      22.896  -0.646  53.273  1.00  0.00     0.097 C 
ENDBRANCH  25  27
ENDBRANCH  23  25
ENDBRANCH  21  22
ENDBRANCH  19  21
ENDBRANCH   1  19
BRANCH  12  29
HETATM   29  O2  UNL     1      22.917   8.322  45.638  1.00  0.00    -0.358 OA
HETATM   30  C18 UNL     1      21.719   8.470  44.906  1.00  0.00     0.209 C 
ENDBRANCH  12  29
TORSDOF 6
ENDMDL
