MODEL 1
REMARK VINA RESULT:      -8.1      0.000      0.000
REMARK  5 active torsions:
REMARK  status: ('A' for Active; 'I' for Inactive)
REMARK    1  A    between atoms: C7_7  and  C8_8 
REMARK    2  A    between atoms: N1_10  and  C10_11 
REMARK    3  A    between atoms: C11_12  and  C12_13 
REMARK    4  A    between atoms: C13_14  and  C14_15 
REMARK    5  A    between atoms: C16_19  and  N3_20 
ROOT
HETATM    1  C8  UNL     1      22.634   4.856  49.317  1.00  0.00     0.134 C 
HETATM    2  C9  UNL     1      22.244   5.433  50.634  1.00  0.00     0.154 C 
HETATM    3  N1  UNL     1      22.319   4.591  51.789  1.00  0.00    -0.369 N 
HETATM    4  C15 UNL     1      21.331   3.534  52.074  1.00  0.00     0.292 C 
HETATM    5  N2  UNL     1      20.971   2.779  50.980  1.00  0.00    -0.086 NA
HETATM    6  C16 UNL     1      21.017   1.588  50.592  1.00  0.00     0.718 C 
HETATM    7  N4  UNL     1      20.391   1.795  49.306  1.00  0.00    -0.059 NA
HETATM    8  C17 UNL     1      20.846   2.767  48.595  1.00  0.00     0.223 C 
HETATM    9  N5  UNL     1      21.913   3.682  48.938  1.00  0.00    -0.374 N 
HETATM   10  H21 UNL     1      22.505   2.841  48.724  1.00  0.00     0.161 HD
ENDROOT
BRANCH   1  11
HETATM   11  C7  UNL     1      24.089   4.496  49.316  1.00  0.00    -0.023 A 
HETATM   12  C6  UNL     1      25.084   5.346  48.901  1.00  0.00    -0.017 A 
HETATM   13  C5  UNL     1      24.727   6.601  48.457  1.00  0.00     0.013 A 
HETATM   14  C21 UNL     1      26.433   5.076  48.877  1.00  0.00    -0.019 A 
HETATM   15  C4  UNL     1      25.637   7.539  48.015  1.00  0.00     0.001 A 
HETATM   16  C3  UNL     1      26.996   7.239  48.002  1.00  0.00     0.007 A 
HETATM   17  C2  UNL     1      27.366   5.986  48.444  1.00  0.00    -0.051 A 
HETATM   18  C1  UNL     1      28.805   5.615  48.449  1.00  0.00     0.049 C 
HETATM   19  C20 UNL     1      26.792   3.800  49.327  1.00  0.00     0.013 A 
HETATM   20  C19 UNL     1      25.856   2.863  49.769  1.00  0.00     0.002 A 
HETATM   21  C18 UNL     1      24.528   3.259  49.743  1.00  0.00     0.010 A 
ENDBRANCH   1  11
BRANCH   3  22
HETATM   22  C10 UNL     1      23.389   4.754  52.737  1.00  0.00     0.087 C 
HETATM   23  C11 UNL     1      24.144   3.803  53.199  1.00  0.00     0.017 C 
BRANCH  23  24
HETATM   24  C12 UNL     1      24.324   2.382  53.077  1.00  0.00    -0.002 C 
HETATM   25  C13 UNL     1      25.160   1.416  53.382  1.00  0.00    -0.016 C 
BRANCH  25  26
HETATM   26  C14 UNL     1      26.449   1.238  54.051  1.00  0.00     0.112 C 
HETATM   27 BR1  UNL     1      27.908   2.135  53.141  1.00  0.00    -0.092 Br
ENDBRANCH  25  26
ENDBRANCH  23  24
ENDBRANCH   3  22
BRANCH   6  28
HETATM   28  N3  UNL     1      21.400   0.250  50.883  1.00  0.00    -0.231 N 
HETATM   29  H18 UNL     1      21.278  -0.451  50.121  1.00  0.00     0.174 HD
HETATM   30  H19 UNL     1      21.796  -0.207  51.729  1.00  0.00     0.174 HD
ENDBRANCH   6  28
TORSDOF 5
ENDMDL
MODEL 2
REMARK VINA RESULT:      -8.1      2.053      5.610
REMARK  5 active torsions:
REMARK  status: ('A' for Active; 'I' for Inactive)
REMARK    1  A    between atoms: C7_7  and  C8_8 
REMARK    2  A    between atoms: N1_10  and  C10_11 
REMARK    3  A    between atoms: C11_12  and  C12_13 
REMARK    4  A    between atoms: C13_14  and  C14_15 
REMARK    5  A    between atoms: C16_19  and  N3_20 
ROOT
HETATM    1  C8  UNL     1      20.144   1.817  51.799  1.00  0.00     0.134 C 
HETATM    2  C9  UNL     1      20.261   1.034  50.538  1.00  0.00     0.154 C 
HETATM    3  N1  UNL     1      20.579   1.738  49.333  1.00  0.00    -0.369 N 
HETATM    4  C15 UNL     1      19.598   2.567  48.609  1.00  0.00     0.292 C 
HETATM    5  N2  UNL     1      18.820   3.369  49.415  1.00  0.00    -0.086 NA
HETATM    6  C16 UNL     1      18.587   4.586  49.601  1.00  0.00     0.718 C 
HETATM    7  N4  UNL     1      17.626   4.422  50.669  1.00  0.00    -0.059 NA
HETATM    8  C17 UNL     1      17.962   3.632  51.628  1.00  0.00     0.223 C 
HETATM    9  N5  UNL     1      19.193   2.883  51.760  1.00  0.00    -0.374 N 
HETATM   10  H21 UNL     1      19.574   3.834  51.996  1.00  0.00     0.161 HD
ENDROOT
BRANCH   1  11
HETATM   11  C7  UNL     1      21.466   2.423  52.162  1.00  0.00    -0.023 A 
HETATM   12  C6  UNL     1      22.549   1.693  52.584  1.00  0.00    -0.017 A 
HETATM   13  C5  UNL     1      22.414   0.325  52.684  1.00  0.00     0.013 A 
HETATM   14  C21 UNL     1      23.786   2.188  52.928  1.00  0.00    -0.019 A 
HETATM   15  C4  UNL     1      23.432  -0.512  53.097  1.00  0.00     0.001 A 
HETATM   16  C3  UNL     1      24.673   0.017  53.439  1.00  0.00     0.007 A 
HETATM   17  C2  UNL     1      24.819   1.385  53.343  1.00  0.00    -0.051 A 
HETATM   18  C1  UNL     1      26.125   2.000  53.698  1.00  0.00     0.049 C 
HETATM   19  C20 UNL     1      23.918   3.578  52.827  1.00  0.00     0.013 A 
HETATM   20  C19 UNL     1      22.877   4.409  52.408  1.00  0.00     0.002 A 
HETATM   21  C18 UNL     1      21.681   3.785  52.091  1.00  0.00     0.010 A 
ENDBRANCH   1  11
BRANCH   3  22
HETATM   22  C10 UNL     1      21.901   1.656  48.773  1.00  0.00     0.087 C 
HETATM   23  C11 UNL     1      22.704   2.659  48.577  1.00  0.00     0.017 C 
BRANCH  23  24
HETATM   24  C12 UNL     1      22.750   4.085  48.752  1.00  0.00    -0.002 C 
HETATM   25  C13 UNL     1      23.592   5.081  48.906  1.00  0.00    -0.016 C 
BRANCH  25  26
HETATM   26  C14 UNL     1      25.035   5.308  48.990  1.00  0.00     0.112 C 
HETATM   27 BR1  UNL     1      26.001   3.792  49.719  1.00  0.00    -0.092 Br
ENDBRANCH  25  26
ENDBRANCH  23  24
ENDBRANCH   3  22
BRANCH   6  28
HETATM   28  N3  UNL     1      18.862   5.928  49.220  1.00  0.00    -0.231 N 
HETATM   29  H18 UNL     1      18.992   6.110  48.202  1.00  0.00     0.174 HD
HETATM   30  H19 UNL     1      18.968   6.811  49.758  1.00  0.00     0.174 HD
ENDBRANCH   6  28
TORSDOF 5
ENDMDL
MODEL 3
REMARK VINA RESULT:      -7.9      2.806      6.036
REMARK  5 active torsions:
REMARK  status: ('A' for Active; 'I' for Inactive)
REMARK    1  A    between atoms: C7_7  and  C8_8 
REMARK    2  A    between atoms: N1_10  and  C10_11 
REMARK    3  A    between atoms: C11_12  and  C12_13 
REMARK    4  A    between atoms: C13_14  and  C14_15 
REMARK    5  A    between atoms: C16_19  and  N3_20 
ROOT
HETATM    1  C8  UNL     1      23.449   4.230  51.628  1.00  0.00     0.134 C 
HETATM    2  C9  UNL     1      22.379   3.887  50.649  1.00  0.00     0.154 C 
HETATM    3  N1  UNL     1      22.715   3.872  49.259  1.00  0.00    -0.369 N 
HETATM    4  C15 UNL     1      22.905   5.102  48.467  1.00  0.00     0.292 C 
HETATM    5  N2  UNL     1      23.632   6.084  49.103  1.00  0.00    -0.086 NA
HETATM    6  C16 UNL     1      24.702   6.720  48.953  1.00  0.00     0.718 C 
HETATM    7  N4  UNL     1      24.596   7.530  50.145  1.00  0.00    -0.059 NA
HETATM    8  C17 UNL     1      24.312   6.911  51.238  1.00  0.00     0.223 C 
HETATM    9  N5  UNL     1      24.082   5.493  51.410  1.00  0.00    -0.374 N 
HETATM   10  H21 UNL     1      25.127   5.459  51.298  1.00  0.00     0.161 HD
ENDROOT
BRANCH   1  11
HETATM   11  C7  UNL     1      24.529   3.190  51.605  1.00  0.00    -0.023 A 
HETATM   12  C6  UNL     1      24.425   1.971  52.228  1.00  0.00    -0.017 A 
HETATM   13  C5  UNL     1      23.265   1.686  52.915  1.00  0.00     0.013 A 
HETATM   14  C21 UNL     1      25.376   0.976  52.242  1.00  0.00    -0.019 A 
HETATM   15  C4  UNL     1      23.048   0.496  53.580  1.00  0.00     0.001 A 
HETATM   16  C3  UNL     1      24.028  -0.492  53.578  1.00  0.00     0.007 A 
HETATM   17  C2  UNL     1      25.193  -0.218  52.893  1.00  0.00    -0.051 A 
HETATM   18  C1  UNL     1      26.272  -1.240  52.862  1.00  0.00     0.049 C 
HETATM   19  C20 UNL     1      26.554   1.270  51.544  1.00  0.00     0.013 A 
HETATM   20  C19 UNL     1      26.757   2.481  50.879  1.00  0.00     0.002 A 
HETATM   21  C18 UNL     1      25.720   3.399  50.941  1.00  0.00     0.010 A 
ENDBRANCH   1  11
BRANCH   3  22
HETATM   22  C10 UNL     1      22.883   2.621  48.567  1.00  0.00     0.087 C 
HETATM   23  C11 UNL     1      21.987   1.687  48.464  1.00  0.00     0.017 C 
BRANCH  23  24
HETATM   24  C12 UNL     1      20.637   1.404  48.871  1.00  0.00    -0.002 C 
HETATM   25  C13 UNL     1      19.931   0.999  49.903  1.00  0.00    -0.016 C 
BRANCH  25  26
HETATM   26  C14 UNL     1      20.138   0.586  51.291  1.00  0.00     0.112 C 
HETATM   27 BR1  UNL     1      18.553  -0.189  52.096  1.00  0.00    -0.092 Br
ENDBRANCH  25  26
ENDBRANCH  23  24
ENDBRANCH   3  22
BRANCH   6  28
HETATM   28  N3  UNL     1      25.860   6.939  48.158  1.00  0.00    -0.231 N 
HETATM   29  H18 UNL     1      26.778   6.929  48.652  1.00  0.00     0.174 HD
HETATM   30  H19 UNL     1      26.002   7.116  47.144  1.00  0.00     0.174 HD
ENDBRANCH   6  28
TORSDOF 5
ENDMDL
MODEL 4
REMARK VINA RESULT:      -7.6      7.170      9.951
REMARK  5 active torsions:
REMARK  status: ('A' for Active; 'I' for Inactive)
REMARK    1  A    between atoms: C7_7  and  C8_8 
REMARK    2  A    between atoms: N1_10  and  C10_11 
REMARK    3  A    between atoms: C11_12  and  C12_13 
REMARK    4  A    between atoms: C13_14  and  C14_15 
REMARK    5  A    between atoms: C16_19  and  N3_20 
ROOT
HETATM    1  C8  UNL     1      31.420   5.216  48.104  1.00  0.00     0.134 C 
HETATM    2  C9  UNL     1      32.298   5.849  49.127  1.00  0.00     0.154 C 
HETATM    3  N1  UNL     1      33.525   6.443  48.691  1.00  0.00    -0.369 N 
HETATM    4  C15 UNL     1      34.708   5.648  48.314  1.00  0.00     0.292 C 
HETATM    5  N2  UNL     1      34.432   4.544  47.537  1.00  0.00    -0.086 NA
HETATM    6  C16 UNL     1      34.699   4.094  46.399  1.00  0.00     0.718 C 
HETATM    7  N4  UNL     1      33.939   2.869  46.508  1.00  0.00    -0.059 NA
HETATM    8  C17 UNL     1      32.731   2.979  46.938  1.00  0.00     0.223 C 
HETATM    9  N5  UNL     1      32.043   4.191  47.328  1.00  0.00    -0.374 N 
HETATM   10  H21 UNL     1      32.016   4.336  46.287  1.00  0.00     0.161 HD
ENDROOT
BRANCH   1  11
HETATM   11  C7  UNL     1      30.913   6.247  47.141  1.00  0.00    -0.023 A 
HETATM   12  C6  UNL     1      29.645   6.772  47.185  1.00  0.00    -0.017 A 
HETATM   13  C5  UNL     1      28.787   6.325  48.166  1.00  0.00     0.013 A 
HETATM   14  C21 UNL     1      29.122   7.719  46.334  1.00  0.00    -0.019 A 
HETATM   15  C4  UNL     1      27.491   6.778  48.308  1.00  0.00     0.001 A 
HETATM   16  C3  UNL     1      26.988   7.736  47.433  1.00  0.00     0.007 A 
HETATM   17  C2  UNL     1      27.838   8.191  46.446  1.00  0.00    -0.051 A 
HETATM   18  C1  UNL     1      27.350   9.214  45.485  1.00  0.00     0.049 C 
HETATM   19  C20 UNL     1      29.996   8.169  45.337  1.00  0.00     0.013 A 
HETATM   20  C19 UNL     1      31.304   7.698  45.208  1.00  0.00     0.002 A 
HETATM   21  C18 UNL     1      31.708   6.744  46.129  1.00  0.00     0.010 A 
ENDBRANCH   1  11
BRANCH   3  22
HETATM   22  C10 UNL     1      33.648   7.874  48.604  1.00  0.00     0.087 C 
HETATM   23  C11 UNL     1      32.744   8.735  48.963  1.00  0.00     0.017 C 
BRANCH  23  24
HETATM   24  C12 UNL     1      31.418   8.775  49.518  1.00  0.00    -0.002 C 
HETATM   25  C13 UNL     1      30.283   9.431  49.438  1.00  0.00    -0.016 C 
BRANCH  25  26
HETATM   26  C14 UNL     1      29.702  10.550  48.696  1.00  0.00     0.112 C 
HETATM   27 BR1  UNL     1      30.608  12.233  49.027  1.00  0.00    -0.092 Br
ENDBRANCH  25  26
ENDBRANCH  23  24
ENDBRANCH   3  22
BRANCH   6  28
HETATM   28  N3  UNL     1      35.382   4.288  45.167  1.00  0.00    -0.231 N 
HETATM   29  H18 UNL     1      36.209   4.923  45.183  1.00  0.00     0.174 HD
HETATM   30  H19 UNL     1      35.234   3.918  44.207  1.00  0.00     0.174 HD
ENDBRANCH   6  28
TORSDOF 5
ENDMDL
MODEL 5
REMARK VINA RESULT:      -7.3      2.096      4.550
REMARK  5 active torsions:
REMARK  status: ('A' for Active; 'I' for Inactive)
REMARK    1  A    between atoms: C7_7  and  C8_8 
REMARK    2  A    between atoms: N1_10  and  C10_11 
REMARK    3  A    between atoms: C11_12  and  C12_13 
REMARK    4  A    between atoms: C13_14  and  C14_15 
REMARK    5  A    between atoms: C16_19  and  N3_20 
ROOT
HETATM    1  C8  UNL     1      22.716   2.303  49.746  1.00  0.00     0.134 C 
HETATM    2  C9  UNL     1      22.934   3.776  49.792  1.00  0.00     0.154 C 
HETATM    3  N1  UNL     1      22.193   4.539  50.749  1.00  0.00    -0.369 N 
HETATM    4  C15 UNL     1      20.762   4.857  50.584  1.00  0.00     0.292 C 
HETATM    5  N2  UNL     1      19.990   3.806  50.141  1.00  0.00    -0.086 NA
HETATM    6  C16 UNL     1      19.021   3.112  50.527  1.00  0.00     0.718 C 
HETATM    7  N4  UNL     1      18.941   2.256  49.365  1.00  0.00    -0.059 NA
HETATM    8  C17 UNL     1      20.044   1.730  48.961  1.00  0.00     0.223 C 
HETATM    9  N5  UNL     1      21.361   1.901  49.536  1.00  0.00    -0.374 N 
HETATM   10  H21 UNL     1      20.964   1.260  50.269  1.00  0.00     0.161 HD
ENDROOT
BRANCH   1  11
HETATM   11  C7  UNL     1      23.167   1.670  51.028  1.00  0.00    -0.023 A 
HETATM   12  C6  UNL     1      24.449   1.757  51.512  1.00  0.00    -0.017 A 
HETATM   13  C5  UNL     1      25.377   2.463  50.777  1.00  0.00     0.013 A 
HETATM   14  C21 UNL     1      24.923   1.201  52.678  1.00  0.00    -0.019 A 
HETATM   15  C4  UNL     1      26.694   2.618  51.161  1.00  0.00     0.001 A 
HETATM   16  C3  UNL     1      27.145   2.044  52.346  1.00  0.00     0.007 A 
HETATM   17  C2  UNL     1      26.226   1.335  53.090  1.00  0.00    -0.051 A 
HETATM   18  C1  UNL     1      26.658   0.702  54.363  1.00  0.00     0.049 C 
HETATM   19  C20 UNL     1      23.978   0.483  53.420  1.00  0.00     0.013 A 
HETATM   20  C19 UNL     1      22.650   0.335  53.015  1.00  0.00     0.002 A 
HETATM   21  C18 UNL     1      22.300   0.944  51.820  1.00  0.00     0.010 A 
ENDBRANCH   1  11
BRANCH   3  22
HETATM   22  C10 UNL     1      22.838   5.036  51.935  1.00  0.00     0.087 C 
HETATM   23  C11 UNL     1      23.770   5.940  51.969  1.00  0.00     0.017 C 
BRANCH  23  24
HETATM   24  C12 UNL     1      24.528   6.775  51.078  1.00  0.00    -0.002 C 
HETATM   25  C13 UNL     1      25.389   6.716  50.087  1.00  0.00    -0.016 C 
BRANCH  25  26
HETATM   26  C14 UNL     1      26.095   5.710  49.293  1.00  0.00     0.112 C 
HETATM   27 BR1  UNL     1      27.610   6.434  48.322  1.00  0.00    -0.092 Br
ENDBRANCH  25  26
ENDBRANCH  23  24
ENDBRANCH   3  22
BRANCH   6  28
HETATM   28  N3  UNL     1      18.065   2.857  51.548  1.00  0.00    -0.231 N 
HETATM   29  H18 UNL     1      17.291   3.548  51.651  1.00  0.00     0.174 HD
HETATM   30  H19 UNL     1      17.961   2.096  52.248  1.00  0.00     0.174 HD
ENDBRANCH   6  28
TORSDOF 5
ENDMDL
MODEL 6
REMARK VINA RESULT:      -7.3      3.072      6.738
REMARK  5 active torsions:
REMARK  status: ('A' for Active; 'I' for Inactive)
REMARK    1  A    between atoms: C7_7  and  C8_8 
REMARK    2  A    between atoms: N1_10  and  C10_11 
REMARK    3  A    between atoms: C11_12  and  C12_13 
REMARK    4  A    between atoms: C13_14  and  C14_15 
REMARK    5  A    between atoms: C16_19  and  N3_20 
ROOT
HETATM    1  C8  UNL     1      24.276   2.423  51.308  1.00  0.00     0.134 C 
HETATM    2  C9  UNL     1      23.981   3.371  52.419  1.00  0.00     0.154 C 
HETATM    3  N1  UNL     1      23.391   4.633  52.092  1.00  0.00    -0.369 N 
HETATM    4  C15 UNL     1      24.154   5.739  51.485  1.00  0.00     0.292 C 
HETATM    5  N2  UNL     1      25.008   5.358  50.473  1.00  0.00    -0.086 NA
HETATM    6  C16 UNL     1      25.181   5.564  49.250  1.00  0.00     0.718 C 
HETATM    7  N4  UNL     1      26.335   4.710  49.087  1.00  0.00    -0.059 NA
HETATM    8  C17 UNL     1      26.246   3.523  49.578  1.00  0.00     0.223 C 
HETATM    9  N5  UNL     1      25.121   2.945  50.280  1.00  0.00    -0.374 N 
HETATM   10  H21 UNL     1      24.722   2.908  49.309  1.00  0.00     0.161 HD
ENDROOT
BRANCH   1  11
HETATM   11  C7  UNL     1      23.005   1.982  50.648  1.00  0.00    -0.023 A 
HETATM   12  C6  UNL     1      21.967   1.383  51.317  1.00  0.00    -0.017 A 
HETATM   13  C5  UNL     1      22.101   1.170  52.672  1.00  0.00     0.013 A 
HETATM   14  C21 UNL     1      20.777   0.958  50.770  1.00  0.00    -0.019 A 
HETATM   15  C4  UNL     1      21.126   0.576  53.449  1.00  0.00     0.001 A 
HETATM   16  C3  UNL     1      19.933   0.156  52.869  1.00  0.00     0.007 A 
HETATM   17  C2  UNL     1      19.788   0.363  51.513  1.00  0.00    -0.051 A 
HETATM   18  C1  UNL     1      18.532  -0.068  50.845  1.00  0.00     0.049 C 
HETATM   19  C20 UNL     1      20.646   1.173  49.393  1.00  0.00     0.013 A 
HETATM   20  C19 UNL     1      21.644   1.775  48.623  1.00  0.00     0.002 A 
HETATM   21  C18 UNL     1      22.794   2.157  49.295  1.00  0.00     0.010 A 
ENDBRANCH   1  11
BRANCH   3  22
HETATM   22  C10 UNL     1      21.996   4.870  52.353  1.00  0.00     0.087 C 
HETATM   23  C11 UNL     1      21.080   5.064  51.453  1.00  0.00     0.017 C 
BRANCH  23  24
HETATM   24  C12 UNL     1      20.936   5.142  50.025  1.00  0.00    -0.002 C 
HETATM   25  C13 UNL     1      20.071   4.929  49.059  1.00  0.00    -0.016 C 
BRANCH  25  26
HETATM   26  C14 UNL     1      18.694   4.465  48.890  1.00  0.00     0.112 C 
HETATM   27 BR1  UNL     1      17.940   3.714  50.511  1.00  0.00    -0.092 Br
ENDBRANCH  25  26
ENDBRANCH  23  24
ENDBRANCH   3  22
BRANCH   6  28
HETATM   28  N3  UNL     1      24.740   6.235  48.076  1.00  0.00    -0.231 N 
HETATM   29  H18 UNL     1      23.709   6.305  47.934  1.00  0.00     0.174 HD
HETATM   30  H19 UNL     1      25.241   6.695  47.291  1.00  0.00     0.174 HD
ENDBRANCH   6  28
TORSDOF 5
ENDMDL
MODEL 7
REMARK VINA RESULT:      -7.2      3.047      6.670
REMARK  5 active torsions:
REMARK  status: ('A' for Active; 'I' for Inactive)
REMARK    1  A    between atoms: C7_7  and  C8_8 
REMARK    2  A    between atoms: N1_10  and  C10_11 
REMARK    3  A    between atoms: C11_12  and  C12_13 
REMARK    4  A    between atoms: C13_14  and  C14_15 
REMARK    5  A    between atoms: C16_19  and  N3_20 
ROOT
HETATM    1  C8  UNL     1      22.636   4.823  51.510  1.00  0.00     0.134 C 
HETATM    2  C9  UNL     1      22.014   4.627  50.171  1.00  0.00     0.154 C 
HETATM    3  N1  UNL     1      22.860   4.244  49.082  1.00  0.00    -0.369 N 
HETATM    4  C15 UNL     1      23.772   5.187  48.409  1.00  0.00     0.292 C 
HETATM    5  N2  UNL     1      24.468   6.016  49.260  1.00  0.00    -0.086 NA
HETATM    6  C16 UNL     1      25.653   6.269  49.580  1.00  0.00     0.718 C 
HETATM    7  N4  UNL     1      25.360   7.289  50.561  1.00  0.00    -0.059 NA
HETATM    8  C17 UNL     1      24.458   7.004  51.434  1.00  0.00     0.223 C 
HETATM    9  N5  UNL     1      23.699   5.778  51.546  1.00  0.00    -0.374 N 
HETATM   10  H21 UNL     1      24.613   5.418  51.918  1.00  0.00     0.161 HD
ENDROOT
BRANCH   1  11
HETATM   11  C7  UNL     1      23.193   3.529  52.022  1.00  0.00    -0.023 A 
HETATM   12  C6  UNL     1      22.416   2.490  52.472  1.00  0.00    -0.017 A 
HETATM   13  C5  UNL     1      21.047   2.645  52.457  1.00  0.00     0.013 A 
HETATM   14  C21 UNL     1      22.865   1.280  52.950  1.00  0.00    -0.019 A 
HETATM   15  C4  UNL     1      20.166   1.673  52.886  1.00  0.00     0.001 A 
HETATM   16  C3  UNL     1      20.649   0.458  53.365  1.00  0.00     0.007 A 
HETATM   17  C2  UNL     1      22.017   0.291  53.385  1.00  0.00    -0.051 A 
HETATM   18  C1  UNL     1      22.584  -0.987  53.888  1.00  0.00     0.049 C 
HETATM   19  C20 UNL     1      24.256   1.127  52.965  1.00  0.00     0.013 A 
HETATM   20  C19 UNL     1      25.133   2.123  52.529  1.00  0.00     0.002 A 
HETATM   21  C18 UNL     1      24.552   3.296  52.071  1.00  0.00     0.010 A 
ENDBRANCH   1  11
BRANCH   3  22
HETATM   22  C10 UNL     1      22.848   2.890  48.595  1.00  0.00     0.087 C 
HETATM   23  C11 UNL     1      21.826   2.283  48.071  1.00  0.00     0.017 C 
BRANCH  23  24
HETATM   24  C12 UNL     1      20.448   2.527  47.743  1.00  0.00    -0.002 C 
HETATM   25  C13 UNL     1      19.267   2.689  48.295  1.00  0.00    -0.016 C 
BRANCH  25  26
HETATM   26  C14 UNL     1      18.661   2.711  49.627  1.00  0.00     0.112 C 
HETATM   27 BR1  UNL     1      18.198   4.498  50.221  1.00  0.00    -0.092 Br
ENDBRANCH  25  26
ENDBRANCH  23  24
ENDBRANCH   3  22
BRANCH   6  28
HETATM   28  N3  UNL     1      27.032   5.981  49.383  1.00  0.00    -0.231 N 
HETATM   29  H18 UNL     1      27.528   5.498  50.164  1.00  0.00     0.174 HD
HETATM   30  H19 UNL     1      27.687   6.152  48.595  1.00  0.00     0.174 HD
ENDBRANCH   6  28
TORSDOF 5
ENDMDL
MODEL 8
REMARK VINA RESULT:      -7.2      2.304      3.971
REMARK  5 active torsions:
REMARK  status: ('A' for Active; 'I' for Inactive)
REMARK    1  A    between atoms: C7_7  and  C8_8 
REMARK    2  A    between atoms: N1_10  and  C10_11 
REMARK    3  A    between atoms: C11_12  and  C12_13 
REMARK    4  A    between atoms: C13_14  and  C14_15 
REMARK    5  A    between atoms: C16_19  and  N3_20 
ROOT
HETATM    1  C8  UNL     1      20.101   2.889  52.069  1.00  0.00     0.134 C 
HETATM    2  C9  UNL     1      20.366   1.796  53.046  1.00  0.00     0.154 C 
HETATM    3  N1  UNL     1      20.267   0.444  52.590  1.00  0.00    -0.369 N 
HETATM    4  C15 UNL     1      18.976  -0.225  52.345  1.00  0.00     0.292 C 
HETATM    5  N2  UNL     1      18.047   0.549  51.685  1.00  0.00    -0.086 NA
HETATM    6  C16 UNL     1      17.399   0.545  50.613  1.00  0.00     0.718 C 
HETATM    7  N4  UNL     1      16.689   1.785  50.830  1.00  0.00    -0.059 NA
HETATM    8  C17 UNL     1      17.396   2.795  51.202  1.00  0.00     0.223 C 
HETATM    9  N5  UNL     1      18.824   2.831  51.432  1.00  0.00    -0.374 N 
HETATM   10  H21 UNL     1      18.846   2.809  50.382  1.00  0.00     0.161 HD
ENDROOT
BRANCH   1  11
HETATM   11  C7  UNL     1      21.133   2.878  50.982  1.00  0.00    -0.023 A 
HETATM   12  C6  UNL     1      22.235   3.697  50.968  1.00  0.00    -0.017 A 
HETATM   13  C5  UNL     1      22.400   4.585  52.009  1.00  0.00     0.013 A 
HETATM   14  C21 UNL     1      23.215   3.733  50.003  1.00  0.00    -0.019 A 
HETATM   15  C4  UNL     1      23.465   5.459  52.101  1.00  0.00     0.001 A 
HETATM   16  C3  UNL     1      24.442   5.473  51.110  1.00  0.00     0.007 A 
HETATM   17  C2  UNL     1      24.287   4.589  50.063  1.00  0.00    -0.051 A 
HETATM   18  C1  UNL     1      25.302   4.565  48.978  1.00  0.00     0.049 C 
HETATM   19  C20 UNL     1      23.042   2.832  48.946  1.00  0.00     0.013 A 
HETATM   20  C19 UNL     1      21.957   1.956  48.868  1.00  0.00     0.002 A 
HETATM   21  C18 UNL     1      21.039   2.020  49.905  1.00  0.00     0.010 A 
ENDBRANCH   1  11
BRANCH   3  22
HETATM   22  C10 UNL     1      21.457  -0.330  52.351  1.00  0.00     0.087 C 
HETATM   23  C11 UNL     1      22.669   0.037  52.639  1.00  0.00     0.017 C 
BRANCH  23  24
HETATM   24  C12 UNL     1      23.377   1.146  53.218  1.00  0.00    -0.002 C 
HETATM   25  C13 UNL     1      24.481   1.848  53.091  1.00  0.00    -0.016 C 
BRANCH  25  26
HETATM   26  C14 UNL     1      25.672   1.894  52.243  1.00  0.00     0.112 C 
HETATM   27 BR1  UNL     1      26.639   0.213  52.199  1.00  0.00    -0.092 Br
ENDBRANCH  25  26
ENDBRANCH  23  24
ENDBRANCH   3  22
BRANCH   6  28
HETATM   28  N3  UNL     1      17.112  -0.124  49.392  1.00  0.00    -0.231 N 
HETATM   29  H18 UNL     1      16.565   0.408  48.681  1.00  0.00     0.174 HD
HETATM   30  H19 UNL     1      17.339  -1.073  49.032  1.00  0.00     0.174 HD
ENDBRANCH   6  28
TORSDOF 5
ENDMDL
MODEL 9
REMARK VINA RESULT:      -7.1      2.676      4.937
REMARK  5 active torsions:
REMARK  status: ('A' for Active; 'I' for Inactive)
REMARK    1  A    between atoms: C7_7  and  C8_8 
REMARK    2  A    between atoms: N1_10  and  C10_11 
REMARK    3  A    between atoms: C11_12  and  C12_13 
REMARK    4  A    between atoms: C13_14  and  C14_15 
REMARK    5  A    between atoms: C16_19  and  N3_20 
ROOT
HETATM    1  C8  UNL     1      22.779   2.978  51.118  1.00  0.00     0.134 C 
HETATM    2  C9  UNL     1      22.732   1.866  50.128  1.00  0.00     0.154 C 
HETATM    3  N1  UNL     1      21.833   1.984  49.021  1.00  0.00    -0.369 N 
HETATM    4  C15 UNL     1      20.376   1.796  49.150  1.00  0.00     0.292 C 
HETATM    5  N2  UNL     1      19.818   2.394  50.259  1.00  0.00    -0.086 NA
HETATM    6  C16 UNL     1      18.971   3.275  50.536  1.00  0.00     0.718 C 
HETATM    7  N4  UNL     1      19.087   3.188  51.974  1.00  0.00    -0.059 NA
HETATM    8  C17 UNL     1      20.281   3.205  52.457  1.00  0.00     0.223 C 
HETATM    9  N5  UNL     1      21.524   3.299  51.723  1.00  0.00    -0.374 N 
HETATM   10  H21 UNL     1      21.218   4.299  51.621  1.00  0.00     0.161 HD
ENDROOT
BRANCH   1  11
HETATM   11  C7  UNL     1      23.285   4.232  50.470  1.00  0.00    -0.023 A 
HETATM   12  C6  UNL     1      24.548   4.364  49.950  1.00  0.00    -0.017 A 
HETATM   13  C5  UNL     1      25.403   3.286  50.029  1.00  0.00     0.013 A 
HETATM   14  C21 UNL     1      25.070   5.484  49.343  1.00  0.00    -0.019 A 
HETATM   15  C4  UNL     1      26.695   3.301  49.543  1.00  0.00     0.001 A 
HETATM   16  C3  UNL     1      27.196   4.448  48.935  1.00  0.00     0.007 A 
HETATM   17  C2  UNL     1      26.350   5.534  48.849  1.00  0.00    -0.051 A 
HETATM   18  C1  UNL     1      26.838   6.784  48.209  1.00  0.00     0.049 C 
HETATM   19  C20 UNL     1      24.200   6.578  49.266  1.00  0.00     0.013 A 
HETATM   20  C19 UNL     1      22.896   6.545  49.765  1.00  0.00     0.002 A 
HETATM   21  C18 UNL     1      22.493   5.356  50.353  1.00  0.00     0.010 A 
ENDBRANCH   1  11
BRANCH   3  22
HETATM   22  C10 UNL     1      22.334   2.298  47.710  1.00  0.00     0.087 C 
HETATM   23  C11 UNL     1      22.056   3.369  47.028  1.00  0.00     0.017 C 
BRANCH  23  24
HETATM   24  C12 UNL     1      21.281   4.575  47.138  1.00  0.00    -0.002 C 
HETATM   25  C13 UNL     1      21.088   5.736  46.555  1.00  0.00    -0.016 C 
BRANCH  25  26
HETATM   26  C14 UNL     1      21.582   6.492  45.404  1.00  0.00     0.112 C 
HETATM   27 BR1  UNL     1      23.234   7.439  45.770  1.00  0.00    -0.092 Br
ENDBRANCH  25  26
ENDBRANCH  23  24
ENDBRANCH   3  22
BRANCH   6  28
HETATM   28  N3  UNL     1      18.037   4.231  50.050  1.00  0.00    -0.231 N 
HETATM   29  H18 UNL     1      18.411   5.175  49.813  1.00  0.00     0.174 HD
HETATM   30  H19 UNL     1      17.015   4.195  49.868  1.00  0.00     0.174 HD
ENDBRANCH   6  28
TORSDOF 5
ENDMDL
