MODEL 1
REMARK VINA RESULT:      -7.2      0.000      0.000
REMARK  7 active torsions:
REMARK  status: ('A' for Active; 'I' for Inactive)
REMARK    1  A    between atoms: C2_2  and  C3_3 
REMARK    2  A    between atoms: C2_2  and  C6_7 
REMARK    3  A    between atoms: C3_3  and  N1_4 
REMARK    4  A    between atoms: C6_7  and  C7_9 
REMARK    5  A    between atoms: C10_13  and  O3_14 
REMARK    6  A    between atoms: O3_14  and  C11_15 
REMARK    7  A    between atoms: C11_15  and  C12_16 
ROOT
HETATM    1  C7  UNL     1      24.459   1.438  53.032  1.00  0.00     0.107 A 
HETATM    2  C8  UNL     1      22.952   1.491  52.971  1.00  0.00     0.014 A 
HETATM    3  C9  UNL     1      22.138   1.951  52.027  1.00  0.00     0.142 A 
HETATM    4  O2  UNL     1      22.734   2.478  50.893  1.00  0.00    -0.301 OA
HETATM    5  C10 UNL     1      24.117   2.494  50.814  1.00  0.00     0.182 A 
HETATM    6  C18 UNL     1      24.930   2.024  51.779  1.00  0.00     0.053 A 
ENDROOT
BRANCH   1   7
HETATM    7  C6  UNL     1      24.918   0.048  53.283  1.00  0.00     0.144 C 
HETATM    8  O1  UNL     1      23.990  -0.788  53.586  1.00  0.00    -0.296 OA
BRANCH   7   9
HETATM    9  C2  UNL     1      26.357  -0.329  53.184  1.00  0.00     0.035 C 
HETATM   10  C1  UNL     1      26.554  -1.359  52.331  1.00  0.00     0.063 C 
BRANCH   9  11
HETATM   11  C3  UNL     1      27.190   0.520  54.060  1.00  0.00     0.284 C 
BRANCH  11  12
HETATM   12  N1  UNL     1      28.377   0.953  53.372  1.00  0.00     0.080 N 
HETATM   13  C4  UNL     1      28.580   2.399  53.566  1.00  0.00     0.309 C 
HETATM   14  C5  UNL     1      29.590   0.262  53.801  1.00  0.00     0.309 C 
ENDBRANCH  11  12
ENDBRANCH   9  11
ENDBRANCH   7   9
ENDBRANCH   1   7
BRANCH   5  15
HETATM   15  O3  UNL     1      24.763   3.012  49.700  1.00  0.00    -0.326 OA
BRANCH  15  16
HETATM   16  C11 UNL     1      26.144   3.293  49.826  1.00  0.00     0.216 C 
BRANCH  16  17
HETATM   17  C12 UNL     1      26.552   4.565  49.187  1.00  0.00    -0.034 A 
HETATM   18  C13 UNL     1      27.815   4.834  48.709  1.00  0.00     0.009 A 
HETATM   19  C14 UNL     1      28.055   6.068  48.133  1.00  0.00     0.001 A 
HETATM   20  C15 UNL     1      27.028   7.002  48.049  1.00  0.00     0.000 A 
HETATM   21  C16 UNL     1      25.761   6.748  48.522  1.00  0.00     0.001 A 
HETATM   22  C17 UNL     1      25.515   5.502  49.105  1.00  0.00     0.009 A 
ENDBRANCH  16  17
ENDBRANCH  15  16
ENDBRANCH   5  15
TORSDOF 7
ENDMDL
MODEL 2
REMARK VINA RESULT:      -7.2      1.220      1.630
REMARK  7 active torsions:
REMARK  status: ('A' for Active; 'I' for Inactive)
REMARK    1  A    between atoms: C2_2  and  C3_3 
REMARK    2  A    between atoms: C2_2  and  C6_7 
REMARK    3  A    between atoms: C3_3  and  N1_4 
REMARK    4  A    between atoms: C6_7  and  C7_9 
REMARK    5  A    between atoms: C10_13  and  O3_14 
REMARK    6  A    between atoms: O3_14  and  C11_15 
REMARK    7  A    between atoms: C11_15  and  C12_16 
ROOT
HETATM    1  C7  UNL     1      24.549   0.540  53.795  1.00  0.00     0.107 A 
HETATM    2  C8  UNL     1      23.264  -0.231  53.606  1.00  0.00     0.014 A 
HETATM    3  C9  UNL     1      22.364  -0.188  52.631  1.00  0.00     0.142 A 
HETATM    4  O2  UNL     1      22.607   0.698  51.595  1.00  0.00    -0.301 OA
HETATM    5  C10 UNL     1      23.755   1.473  51.639  1.00  0.00     0.182 A 
HETATM    6  C18 UNL     1      24.660   1.420  52.634  1.00  0.00     0.053 A 
ENDROOT
BRANCH   1   7
HETATM    7  C6  UNL     1      25.688  -0.393  53.983  1.00  0.00     0.144 C 
HETATM    8  O1  UNL     1      25.712  -1.007  55.113  1.00  0.00    -0.296 OA
BRANCH   7   9
HETATM    9  C2  UNL     1      26.720  -0.590  52.925  1.00  0.00     0.035 C 
HETATM   10  C1  UNL     1      26.509  -1.719  52.215  1.00  0.00     0.063 C 
BRANCH   9  11
HETATM   11  C3  UNL     1      27.713   0.504  52.943  1.00  0.00     0.284 C 
BRANCH  11  12
HETATM   12  N1  UNL     1      28.655   0.320  54.015  1.00  0.00     0.080 N 
HETATM   13  C4  UNL     1      29.738  -0.584  53.594  1.00  0.00     0.309 C 
HETATM   14  C5  UNL     1      29.258   1.564  54.486  1.00  0.00     0.309 C 
ENDBRANCH  11  12
ENDBRANCH   9  11
ENDBRANCH   7   9
ENDBRANCH   1   7
BRANCH   5  15
HETATM   15  O3  UNL     1      24.046   2.377  50.626  1.00  0.00    -0.326 OA
BRANCH  15  16
HETATM   16  C11 UNL     1      24.379   3.696  51.014  1.00  0.00     0.216 C 
BRANCH  16  17
HETATM   17  C12 UNL     1      25.416   4.322  50.162  1.00  0.00    -0.034 A 
HETATM   18  C13 UNL     1      26.502   3.663  49.633  1.00  0.00     0.009 A 
HETATM   19  C14 UNL     1      27.393   4.377  48.851  1.00  0.00     0.001 A 
HETATM   20  C15 UNL     1      27.175   5.729  48.618  1.00  0.00     0.000 A 
HETATM   21  C16 UNL     1      26.094   6.403  49.138  1.00  0.00     0.001 A 
HETATM   22  C17 UNL     1      25.193   5.685  49.930  1.00  0.00     0.009 A 
ENDBRANCH  16  17
ENDBRANCH  15  16
ENDBRANCH   5  15
TORSDOF 7
ENDMDL
MODEL 3
REMARK VINA RESULT:      -7.1      3.070      6.144
REMARK  7 active torsions:
REMARK  status: ('A' for Active; 'I' for Inactive)
REMARK    1  A    between atoms: C2_2  and  C3_3 
REMARK    2  A    between atoms: C2_2  and  C6_7 
REMARK    3  A    between atoms: C3_3  and  N1_4 
REMARK    4  A    between atoms: C6_7  and  C7_9 
REMARK    5  A    between atoms: C10_13  and  O3_14 
REMARK    6  A    between atoms: O3_14  and  C11_15 
REMARK    7  A    between atoms: C11_15  and  C12_16 
ROOT
HETATM    1  C7  UNL     1      21.835  -0.116  52.383  1.00  0.00     0.107 A 
HETATM    2  C8  UNL     1      21.048  -0.631  53.564  1.00  0.00     0.014 A 
HETATM    3  C9  UNL     1      21.452  -1.056  54.755  1.00  0.00     0.142 A 
HETATM    4  O2  UNL     1      22.816  -1.038  54.995  1.00  0.00    -0.301 OA
HETATM    5  C10 UNL     1      23.661  -0.587  53.993  1.00  0.00     0.182 A 
HETATM    6  C18 UNL     1      23.238  -0.159  52.789  1.00  0.00     0.053 A 
ENDROOT
BRANCH   1   7
HETATM    7  C6  UNL     1      21.343   1.226  51.979  1.00  0.00     0.144 C 
HETATM    8  O1  UNL     1      20.611   1.825  52.850  1.00  0.00    -0.296 OA
BRANCH   7   9
HETATM    9  C2  UNL     1      21.687   1.818  50.655  1.00  0.00     0.035 C 
HETATM   10  C1  UNL     1      21.426   0.969  49.636  1.00  0.00     0.063 C 
BRANCH   9  11
HETATM   11  C3  UNL     1      22.237   3.181  50.810  1.00  0.00     0.284 C 
BRANCH  11  12
HETATM   12  N1  UNL     1      23.408   3.166  51.645  1.00  0.00     0.080 N 
HETATM   13  C4  UNL     1      24.622   3.040  50.821  1.00  0.00     0.309 C 
HETATM   14  C5  UNL     1      23.548   4.355  52.482  1.00  0.00     0.309 C 
ENDBRANCH  11  12
ENDBRANCH   9  11
ENDBRANCH   7   9
ENDBRANCH   1   7
BRANCH   5  15
HETATM   15  O3  UNL     1      25.036  -0.551  54.182  1.00  0.00    -0.326 OA
BRANCH  15  16
HETATM   16  C11 UNL     1      25.826  -0.119  53.092  1.00  0.00     0.216 C 
BRANCH  16  17
HETATM   17  C12 UNL     1      27.263  -0.451  53.230  1.00  0.00    -0.034 A 
HETATM   18  C13 UNL     1      27.799  -1.708  53.061  1.00  0.00     0.009 A 
HETATM   19  C14 UNL     1      29.163  -1.872  53.221  1.00  0.00     0.001 A 
HETATM   20  C15 UNL     1      29.956  -0.778  53.544  1.00  0.00     0.000 A 
HETATM   21  C16 UNL     1      29.436   0.484  53.717  1.00  0.00     0.001 A 
HETATM   22  C17 UNL     1      28.058   0.654  53.558  1.00  0.00     0.009 A 
ENDBRANCH  16  17
ENDBRANCH  15  16
ENDBRANCH   5  15
TORSDOF 7
ENDMDL
MODEL 4
REMARK VINA RESULT:      -7.0      2.030      6.085
REMARK  7 active torsions:
REMARK  status: ('A' for Active; 'I' for Inactive)
REMARK    1  A    between atoms: C2_2  and  C3_3 
REMARK    2  A    between atoms: C2_2  and  C6_7 
REMARK    3  A    between atoms: C3_3  and  N1_4 
REMARK    4  A    between atoms: C6_7  and  C7_9 
REMARK    5  A    between atoms: C10_13  and  O3_14 
REMARK    6  A    between atoms: O3_14  and  C11_15 
REMARK    7  A    between atoms: C11_15  and  C12_16 
ROOT
HETATM    1  C7  UNL     1      23.448   1.710  52.081  1.00  0.00     0.107 A 
HETATM    2  C8  UNL     1      22.174   1.340  52.801  1.00  0.00     0.014 A 
HETATM    3  C9  UNL     1      21.922   0.372  53.675  1.00  0.00     0.142 A 
HETATM    4  O2  UNL     1      22.979  -0.459  54.007  1.00  0.00    -0.301 OA
HETATM    5  C10 UNL     1      24.212  -0.234  53.418  1.00  0.00     0.182 A 
HETATM    6  C18 UNL     1      24.455   0.751  52.533  1.00  0.00     0.053 A 
ENDROOT
BRANCH   1   7
HETATM    7  C6  UNL     1      23.788   3.134  52.327  1.00  0.00     0.144 C 
HETATM    8  O1  UNL     1      24.354   3.374  53.457  1.00  0.00    -0.296 OA
BRANCH   7   9
HETATM    9  C2  UNL     1      23.487   4.194  51.323  1.00  0.00     0.035 C 
HETATM   10  C1  UNL     1      22.610   5.107  51.796  1.00  0.00     0.063 C 
BRANCH   9  11
HETATM   11  C3  UNL     1      24.223   3.957  50.064  1.00  0.00     0.284 C 
BRANCH  11  12
HETATM   12  N1  UNL     1      25.585   4.406  50.178  1.00  0.00     0.080 N 
HETATM   13  C4  UNL     1      26.511   3.335  49.771  1.00  0.00     0.309 C 
HETATM   14  C5  UNL     1      25.882   5.591  49.378  1.00  0.00     0.309 C 
ENDBRANCH  11  12
ENDBRANCH   9  11
ENDBRANCH   7   9
ENDBRANCH   1   7
BRANCH   5  15
HETATM   15  O3  UNL     1      25.304  -1.040  53.716  1.00  0.00    -0.326 OA
BRANCH  15  16
HETATM   16  C11 UNL     1      26.245  -1.260  52.684  1.00  0.00     0.216 C 
BRANCH  16  17
HETATM   17  C12 UNL     1      27.631  -0.893  53.054  1.00  0.00    -0.034 A 
HETATM   18  C13 UNL     1      28.055   0.385  53.341  1.00  0.00     0.009 A 
HETATM   19  C14 UNL     1      29.383   0.581  53.674  1.00  0.00     0.001 A 
HETATM   20  C15 UNL     1      30.252  -0.502  53.713  1.00  0.00     0.000 A 
HETATM   21  C16 UNL     1      29.844  -1.785  53.429  1.00  0.00     0.001 A 
HETATM   22  C17 UNL     1      28.503  -1.988  53.091  1.00  0.00     0.009 A 
ENDBRANCH  16  17
ENDBRANCH  15  16
ENDBRANCH   5  15
TORSDOF 7
ENDMDL
MODEL 5
REMARK VINA RESULT:      -6.9      2.323      6.699
REMARK  7 active torsions:
REMARK  status: ('A' for Active; 'I' for Inactive)
REMARK    1  A    between atoms: C2_2  and  C3_3 
REMARK    2  A    between atoms: C2_2  and  C6_7 
REMARK    3  A    between atoms: C3_3  and  N1_4 
REMARK    4  A    between atoms: C6_7  and  C7_9 
REMARK    5  A    between atoms: C10_13  and  O3_14 
REMARK    6  A    between atoms: O3_14  and  C11_15 
REMARK    7  A    between atoms: C11_15  and  C12_16 
ROOT
HETATM    1  C7  UNL     1      25.440   3.599  49.479  1.00  0.00     0.107 A 
HETATM    2  C8  UNL     1      23.971   3.376  49.208  1.00  0.00     0.014 A 
HETATM    3  C9  UNL     1      23.079   2.620  49.837  1.00  0.00     0.142 A 
HETATM    4  O2  UNL     1      23.531   1.900  50.930  1.00  0.00    -0.301 OA
HETATM    5  C10 UNL     1      24.863   2.010  51.294  1.00  0.00     0.182 A 
HETATM    6  C18 UNL     1      25.758   2.781  50.648  1.00  0.00     0.053 A 
ENDROOT
BRANCH   1   7
HETATM    7  C6  UNL     1      25.723   5.048  49.637  1.00  0.00     0.144 C 
HETATM    8  O1  UNL     1      25.001   5.654  50.512  1.00  0.00    -0.296 OA
BRANCH   7   9
HETATM    9  C2  UNL     1      26.772   5.732  48.829  1.00  0.00     0.035 C 
HETATM   10  C1  UNL     1      27.811   4.913  48.549  1.00  0.00     0.063 C 
BRANCH   9  11
HETATM   11  C3  UNL     1      26.402   7.136  48.557  1.00  0.00     0.284 C 
BRANCH  11  12
HETATM   12  N1  UNL     1      27.038   8.022  49.495  1.00  0.00     0.080 N 
HETATM   13  C4  UNL     1      28.238   8.627  48.893  1.00  0.00     0.309 C 
HETATM   14  C5  UNL     1      26.173   9.100  49.965  1.00  0.00     0.309 C 
ENDBRANCH  11  12
ENDBRANCH   9  11
ENDBRANCH   7   9
ENDBRANCH   1   7
BRANCH   5  15
HETATM   15  O3  UNL     1      25.367   1.309  52.382  1.00  0.00    -0.326 OA
BRANCH  15  16
HETATM   16  C11 UNL     1      26.634   1.700  52.873  1.00  0.00     0.216 C 
BRANCH  16  17
HETATM   17  C12 UNL     1      27.579   0.573  53.047  1.00  0.00    -0.034 A 
HETATM   18  C13 UNL     1      27.281  -0.748  52.796  1.00  0.00     0.009 A 
HETATM   19  C14 UNL     1      28.265  -1.697  53.003  1.00  0.00     0.001 A 
HETATM   20  C15 UNL     1      29.519  -1.305  53.455  1.00  0.00     0.000 A 
HETATM   21  C16 UNL     1      29.832   0.010  53.712  1.00  0.00     0.001 A 
HETATM   22  C17 UNL     1      28.840   0.973  53.504  1.00  0.00     0.009 A 
ENDBRANCH  16  17
ENDBRANCH  15  16
ENDBRANCH   5  15
TORSDOF 7
ENDMDL
MODEL 6
REMARK VINA RESULT:      -6.9      3.718      6.577
REMARK  7 active torsions:
REMARK  status: ('A' for Active; 'I' for Inactive)
REMARK    1  A    between atoms: C2_2  and  C3_3 
REMARK    2  A    between atoms: C2_2  and  C6_7 
REMARK    3  A    between atoms: C3_3  and  N1_4 
REMARK    4  A    between atoms: C6_7  and  C7_9 
REMARK    5  A    between atoms: C10_13  and  O3_14 
REMARK    6  A    between atoms: O3_14  and  C11_15 
REMARK    7  A    between atoms: C11_15  and  C12_16 
ROOT
HETATM    1  C7  UNL     1      21.985   0.522  52.519  1.00  0.00     0.107 A 
HETATM    2  C8  UNL     1      21.135   0.005  53.655  1.00  0.00     0.014 A 
HETATM    3  C9  UNL     1      21.471  -0.654  54.758  1.00  0.00     0.142 A 
HETATM    4  O2  UNL     1      22.816  -0.933  54.933  1.00  0.00    -0.301 OA
HETATM    5  C10 UNL     1      23.713  -0.515  53.963  1.00  0.00     0.182 A 
HETATM    6  C18 UNL     1      23.360   0.152  52.849  1.00  0.00     0.053 A 
ENDROOT
BRANCH   1   7
HETATM    7  C6  UNL     1      21.759   1.977  52.324  1.00  0.00     0.144 C 
HETATM    8  O1  UNL     1      20.658   2.430  52.809  1.00  0.00    -0.296 OA
BRANCH   7   9
HETATM    9  C2  UNL     1      22.752   2.833  51.615  1.00  0.00     0.035 C 
HETATM   10  C1  UNL     1      23.189   3.851  52.388  1.00  0.00     0.063 C 
BRANCH   9  11
HETATM   11  C3  UNL     1      22.987   2.345  50.240  1.00  0.00     0.284 C 
BRANCH  11  12
HETATM   12  N1  UNL     1      21.788   2.444  49.452  1.00  0.00     0.080 N 
HETATM   13  C4  UNL     1      21.889   3.571  48.509  1.00  0.00     0.309 C 
HETATM   14  C5  UNL     1      21.487   1.237  48.687  1.00  0.00     0.309 C 
ENDBRANCH  11  12
ENDBRANCH   9  11
ENDBRANCH   7   9
ENDBRANCH   1   7
BRANCH   5  15
HETATM   15  O3  UNL     1      25.072  -0.771  54.090  1.00  0.00    -0.326 OA
BRANCH  15  16
HETATM   16  C11 UNL     1      25.875  -0.585  52.941  1.00  0.00     0.216 C 
BRANCH  16  17
HETATM   17  C12 UNL     1      27.329  -0.638  53.216  1.00  0.00    -0.034 A 
HETATM   18  C13 UNL     1      28.088   0.429  53.643  1.00  0.00     0.009 A 
HETATM   19  C14 UNL     1      29.439   0.232  53.862  1.00  0.00     0.001 A 
HETATM   20  C15 UNL     1      29.998  -1.022  53.649  1.00  0.00     0.000 A 
HETATM   21  C16 UNL     1      29.254  -2.098  53.222  1.00  0.00     0.001 A 
HETATM   22  C17 UNL     1      27.888  -1.904  52.999  1.00  0.00     0.009 A 
ENDBRANCH  16  17
ENDBRANCH  15  16
ENDBRANCH   5  15
TORSDOF 7
ENDMDL
MODEL 7
REMARK VINA RESULT:      -6.7      4.271      6.823
REMARK  7 active torsions:
REMARK  status: ('A' for Active; 'I' for Inactive)
REMARK    1  A    between atoms: C2_2  and  C3_3 
REMARK    2  A    between atoms: C2_2  and  C6_7 
REMARK    3  A    between atoms: C3_3  and  N1_4 
REMARK    4  A    between atoms: C6_7  and  C7_9 
REMARK    5  A    between atoms: C10_13  and  O3_14 
REMARK    6  A    between atoms: O3_14  and  C11_15 
REMARK    7  A    between atoms: C11_15  and  C12_16 
ROOT
HETATM    1  C7  UNL     1      21.455  -0.621  53.113  1.00  0.00     0.107 A 
HETATM    2  C8  UNL     1      21.691  -1.270  54.455  1.00  0.00     0.014 A 
HETATM    3  C9  UNL     1      22.802  -1.402  55.171  1.00  0.00     0.142 A 
HETATM    4  O2  UNL     1      23.959  -0.867  54.632  1.00  0.00    -0.301 OA
HETATM    5  C10 UNL     1      23.890  -0.239  53.398  1.00  0.00     0.182 A 
HETATM    6  C18 UNL     1      22.757  -0.113  52.682  1.00  0.00     0.053 A 
ENDROOT
BRANCH   1   7
HETATM    7  C6  UNL     1      20.387   0.405  53.214  1.00  0.00     0.144 C 
HETATM    8  O1  UNL     1      20.443   1.151  54.260  1.00  0.00    -0.296 OA
BRANCH   7   9
HETATM    9  C2  UNL     1      19.335   0.544  52.167  1.00  0.00     0.035 C 
HETATM   10  C1  UNL     1      18.516  -0.530  52.125  1.00  0.00     0.063 C 
BRANCH   9  11
HETATM   11  C3  UNL     1      19.477   1.822  51.439  1.00  0.00     0.284 C 
BRANCH  11  12
HETATM   12  N1  UNL     1      20.636   1.798  50.587  1.00  0.00     0.080 N 
HETATM   13  C4  UNL     1      20.231   1.700  49.175  1.00  0.00     0.309 C 
HETATM   14  C5  UNL     1      21.496   2.970  50.733  1.00  0.00     0.309 C 
ENDBRANCH  11  12
ENDBRANCH   9  11
ENDBRANCH   7   9
ENDBRANCH   1   7
BRANCH   5  15
HETATM   15  O3  UNL     1      25.021   0.312  52.812  1.00  0.00    -0.326 OA
BRANCH  15  16
HETATM   16  C11 UNL     1      26.046   0.756  53.680  1.00  0.00     0.216 C 
BRANCH  16  17
HETATM   17  C12 UNL     1      27.316   0.008  53.533  1.00  0.00    -0.034 A 
HETATM   18  C13 UNL     1      27.415  -1.295  53.100  1.00  0.00     0.009 A 
HETATM   19  C14 UNL     1      28.671  -1.868  53.009  1.00  0.00     0.001 A 
HETATM   20  C15 UNL     1      29.794  -1.125  53.352  1.00  0.00     0.000 A 
HETATM   21  C16 UNL     1      29.712   0.178  53.786  1.00  0.00     0.001 A 
HETATM   22  C17 UNL     1      28.445   0.760  53.880  1.00  0.00     0.009 A 
ENDBRANCH  16  17
ENDBRANCH  15  16
ENDBRANCH   5  15
TORSDOF 7
ENDMDL
MODEL 8
REMARK VINA RESULT:      -6.7      1.574      2.339
REMARK  7 active torsions:
REMARK  status: ('A' for Active; 'I' for Inactive)
REMARK    1  A    between atoms: C2_2  and  C3_3 
REMARK    2  A    between atoms: C2_2  and  C6_7 
REMARK    3  A    between atoms: C3_3  and  N1_4 
REMARK    4  A    between atoms: C6_7  and  C7_9 
REMARK    5  A    between atoms: C10_13  and  O3_14 
REMARK    6  A    between atoms: O3_14  and  C11_15 
REMARK    7  A    between atoms: C11_15  and  C12_16 
ROOT
HETATM    1  C7  UNL     1      24.639   2.884  52.278  1.00  0.00     0.107 A 
HETATM    2  C8  UNL     1      23.621   3.859  52.821  1.00  0.00     0.014 A 
HETATM    3  C9  UNL     1      23.082   4.943  52.275  1.00  0.00     0.142 A 
HETATM    4  O2  UNL     1      23.495   5.267  50.993  1.00  0.00    -0.301 OA
HETATM    5  C10 UNL     1      24.430   4.456  50.371  1.00  0.00     0.182 A 
HETATM    6  C18 UNL     1      24.969   3.360  50.936  1.00  0.00     0.053 A 
ENDROOT
BRANCH   1   7
HETATM    7  C6  UNL     1      24.110   1.498  52.336  1.00  0.00     0.144 C 
HETATM    8  O1  UNL     1      23.240   1.206  51.436  1.00  0.00    -0.296 OA
BRANCH   7   9
HETATM    9  C2  UNL     1      24.570   0.530  53.372  1.00  0.00     0.035 C 
HETATM   10  C1  UNL     1      23.695  -0.486  53.541  1.00  0.00     0.063 C 
BRANCH   9  11
HETATM   11  C3  UNL     1      25.864   0.947  53.951  1.00  0.00     0.284 C 
BRANCH  11  12
HETATM   12  N1  UNL     1      26.813  -0.133  53.910  1.00  0.00     0.080 N 
HETATM   13  C4  UNL     1      27.176  -0.441  52.516  1.00  0.00     0.309 C 
HETATM   14  C5  UNL     1      28.042   0.137  54.651  1.00  0.00     0.309 C 
ENDBRANCH  11  12
ENDBRANCH   9  11
ENDBRANCH   7   9
ENDBRANCH   1   7
BRANCH   5  15
HETATM   15  O3  UNL     1      24.879   4.739  49.087  1.00  0.00    -0.326 OA
BRANCH  15  16
HETATM   16  C11 UNL     1      25.334   6.054  48.837  1.00  0.00     0.216 C 
BRANCH  16  17
HETATM   17  C12 UNL     1      26.766   6.127  48.465  1.00  0.00    -0.034 A 
HETATM   18  C13 UNL     1      27.685   5.124  48.677  1.00  0.00     0.009 A 
HETATM   19  C14 UNL     1      28.992   5.331  48.276  1.00  0.00     0.001 A 
HETATM   20  C15 UNL     1      29.348   6.532  47.675  1.00  0.00     0.000 A 
HETATM   21  C16 UNL     1      28.442   7.544  47.457  1.00  0.00     0.001 A 
HETATM   22  C17 UNL     1      27.120   7.340  47.861  1.00  0.00     0.009 A 
ENDBRANCH  16  17
ENDBRANCH  15  16
ENDBRANCH   5  15
TORSDOF 7
ENDMDL
MODEL 9
REMARK VINA RESULT:      -6.7      1.385      1.980
REMARK  7 active torsions:
REMARK  status: ('A' for Active; 'I' for Inactive)
REMARK    1  A    between atoms: C2_2  and  C3_3 
REMARK    2  A    between atoms: C2_2  and  C6_7 
REMARK    3  A    between atoms: C3_3  and  N1_4 
REMARK    4  A    between atoms: C6_7  and  C7_9 
REMARK    5  A    between atoms: C10_13  and  O3_14 
REMARK    6  A    between atoms: O3_14  and  C11_15 
REMARK    7  A    between atoms: C11_15  and  C12_16 
ROOT
HETATM    1  C7  UNL     1      24.447   1.548  52.889  1.00  0.00     0.107 A 
HETATM    2  C8  UNL     1      23.352   0.940  52.045  1.00  0.00     0.014 A 
HETATM    3  C9  UNL     1      22.518   1.497  51.175  1.00  0.00     0.142 A 
HETATM    4  O2  UNL     1      22.640   2.862  50.979  1.00  0.00    -0.301 OA
HETATM    5  C10 UNL     1      23.608   3.552  51.691  1.00  0.00     0.182 A 
HETATM    6  C18 UNL     1      24.448   2.975  52.571  1.00  0.00     0.053 A 
ENDROOT
BRANCH   1   7
HETATM    7  C6  UNL     1      25.736   0.853  52.644  1.00  0.00     0.144 C 
HETATM    8  O1  UNL     1      26.300   1.127  51.521  1.00  0.00    -0.296 OA
BRANCH   7   9
HETATM    9  C2  UNL     1      26.317  -0.090  53.641  1.00  0.00     0.035 C 
HETATM   10  C1  UNL     1      25.584  -0.145  54.775  1.00  0.00     0.063 C 
BRANCH   9  11
HETATM   11  C3  UNL     1      27.556  -0.709  53.127  1.00  0.00     0.284 C 
BRANCH  11  12
HETATM   12  N1  UNL     1      28.687  -0.332  53.932  1.00  0.00     0.080 N 
HETATM   13  C4  UNL     1      29.766  -1.324  53.793  1.00  0.00     0.309 C 
HETATM   14  C5  UNL     1      29.231   0.983  53.602  1.00  0.00     0.309 C 
ENDBRANCH  11  12
ENDBRANCH   9  11
ENDBRANCH   7   9
ENDBRANCH   1   7
BRANCH   5  15
HETATM   15  O3  UNL     1      23.771   4.922  51.532  1.00  0.00    -0.326 OA
BRANCH  15  16
HETATM   16  C11 UNL     1      23.869   5.411  50.209  1.00  0.00     0.216 C 
BRANCH  16  17
HETATM   17  C12 UNL     1      25.238   5.344  49.649  1.00  0.00    -0.034 A 
HETATM   18  C13 UNL     1      25.938   4.180  49.424  1.00  0.00     0.009 A 
HETATM   19  C14 UNL     1      27.213   4.268  48.893  1.00  0.00     0.001 A 
HETATM   20  C15 UNL     1      27.754   5.514  48.601  1.00  0.00     0.000 A 
HETATM   21  C16 UNL     1      27.068   6.686  48.820  1.00  0.00     0.001 A 
HETATM   22  C17 UNL     1      25.780   6.602  49.357  1.00  0.00     0.009 A 
ENDBRANCH  16  17
ENDBRANCH  15  16
ENDBRANCH   5  15
TORSDOF 7
ENDMDL
