MODEL 1
REMARK VINA RESULT:      -8.9      0.000      0.000
REMARK  6 active torsions:
REMARK  status: ('A' for Active; 'I' for Inactive)
REMARK    1  A    between atoms: N1_2  and  C3_4 
REMARK    2  A    between atoms: C3_4  and  C4_5 
REMARK    3  A    between atoms: C4_5  and  O1_6 
REMARK    4  A    between atoms: O1_6  and  C5_7 
REMARK    5  A    between atoms: C8_12  and  C9_13 
REMARK    6  A    between atoms: C10_14  and  O4_15 
ROOT
HETATM    1  C5  UNL     1      25.015   0.394  52.850  1.00  0.00     0.102 C 
HETATM    2  C6  UNL     1      25.734   1.144  51.985  1.00  0.00     0.183 C 
HETATM    3  O2  UNL     1      25.527   2.217  51.080  1.00  0.00    -0.284 OA
HETATM    4  C7  UNL     1      24.296   2.751  50.610  1.00  0.00     0.298 C 
HETATM    5  O3  UNL     1      24.057   2.808  49.335  1.00  0.00    -0.259 OA
HETATM    6  C8  UNL     1      23.160   3.285  51.344  1.00  0.00     0.057 C 
HETATM    7  C19 UNL     1      22.515   2.614  52.282  1.00  0.00     0.031 C 
HETATM    8  C20 UNL     1      22.488   1.319  53.001  1.00  0.00    -0.022 A 
HETATM    9  C21 UNL     1      21.211   1.100  53.456  1.00  0.00     0.012 A 
HETATM   10  C22 UNL     1      21.008  -0.074  54.152  1.00  0.00     0.001 A 
HETATM   11  C23 UNL     1      22.077  -0.939  54.345  1.00  0.00     0.001 A 
HETATM   12  C24 UNL     1      23.345  -0.734  53.901  1.00  0.00     0.015 A 
HETATM   13  C25 UNL     1      23.575   0.443  53.196  1.00  0.00     0.009 A 
ENDROOT
BRANCH   6  14
HETATM   14  C9  UNL     1      22.705   4.594  50.960  1.00  0.00     0.068 A 
HETATM   15  C10 UNL     1      23.347   5.717  51.137  1.00  0.00     0.132 A 
HETATM   16  C11 UNL     1      22.870   7.042  50.722  1.00  0.00     0.217 A 
HETATM   17  O5  UNL     1      23.480   8.142  50.893  1.00  0.00    -0.284 OA
HETATM   18  C12 UNL     1      21.577   7.223  50.036  1.00  0.00     0.031 A 
HETATM   19  C13 UNL     1      21.106   8.460  49.634  1.00  0.00     0.016 A 
HETATM   20  C17 UNL     1      20.889   6.028  49.838  1.00  0.00     0.029 A 
HETATM   21  C14 UNL     1      19.893   8.558  48.998  1.00  0.00     0.001 A 
HETATM   22  C15 UNL     1      19.189   7.397  48.788  1.00  0.00     0.001 A 
HETATM   23  C16 UNL     1      19.677   6.179  49.196  1.00  0.00     0.016 A 
HETATM   24  C18 UNL     1      21.443   4.773  50.286  1.00  0.00     0.197 A 
HETATM   25  O6  UNL     1      20.641   3.853  49.981  1.00  0.00    -0.286 OA
BRANCH  15  26
HETATM   26  O4  UNL     1      24.564   5.928  51.717  1.00  0.00    -0.356 OA
HETATM   27  H12 UNL     1      24.806   5.701  52.677  1.00  0.00     0.218 HD
ENDBRANCH  15  26
ENDBRANCH   6  14
BRANCH   1  28
HETATM   28  O1  UNL     1      25.689  -0.615  53.570  1.00  0.00    -0.347 OA
BRANCH  28  29
HETATM   29  C4  UNL     1      27.101  -0.510  53.517  1.00  0.00     0.206 C 
BRANCH  29  30
HETATM   30  C3  UNL     1      27.696   0.167  54.710  1.00  0.00     0.297 C 
BRANCH  30  31
HETATM   31  N1  UNL     1      28.964   0.784  54.487  1.00  0.00     0.082 N 
HETATM   32  C1  UNL     1      28.840   2.085  53.871  1.00  0.00     0.309 C 
HETATM   33  C2  UNL     1      29.756  -0.065  53.622  1.00  0.00     0.309 C 
ENDBRANCH  30  31
ENDBRANCH  29  30
ENDBRANCH  28  29
ENDBRANCH   1  28
TORSDOF 6
ENDMDL
MODEL 2
REMARK VINA RESULT:      -8.5      1.019      2.253
REMARK  6 active torsions:
REMARK  status: ('A' for Active; 'I' for Inactive)
REMARK    1  A    between atoms: N1_2  and  C3_4 
REMARK    2  A    between atoms: C3_4  and  C4_5 
REMARK    3  A    between atoms: C4_5  and  O1_6 
REMARK    4  A    between atoms: O1_6  and  C5_7 
REMARK    5  A    between atoms: C8_12  and  C9_13 
REMARK    6  A    between atoms: C10_14  and  O4_15 
ROOT
HETATM    1  C5  UNL     1      24.736   0.486  53.107  1.00  0.00     0.102 C 
HETATM    2  C6  UNL     1      25.257   1.281  52.144  1.00  0.00     0.183 C 
HETATM    3  O2  UNL     1      24.801   2.141  51.112  1.00  0.00    -0.284 OA
HETATM    4  C7  UNL     1      23.485   2.275  50.591  1.00  0.00     0.298 C 
HETATM    5  O3  UNL     1      23.268   2.107  49.322  1.00  0.00    -0.259 OA
HETATM    6  C8  UNL     1      22.233   2.586  51.263  1.00  0.00     0.057 C 
HETATM    7  C19 UNL     1      21.762   1.895  52.286  1.00  0.00     0.031 C 
HETATM    8  C20 UNL     1      22.053   0.739  53.165  1.00  0.00    -0.022 A 
HETATM    9  C21 UNL     1      20.866   0.256  53.658  1.00  0.00     0.012 A 
HETATM   10  C22 UNL     1      20.956  -0.832  54.501  1.00  0.00     0.001 A 
HETATM   11  C23 UNL     1      22.207  -1.361  54.792  1.00  0.00     0.001 A 
HETATM   12  C24 UNL     1      23.389  -0.893  54.311  1.00  0.00     0.015 A 
HETATM   13  C25 UNL     1      23.325   0.205  53.459  1.00  0.00     0.009 A 
ENDROOT
BRANCH   6  14
HETATM   14  C9  UNL     1      21.466   3.674  50.720  1.00  0.00     0.068 A 
HETATM   15  C10 UNL     1      20.340   3.574  50.067  1.00  0.00     0.132 A 
HETATM   16  C11 UNL     1      19.565   4.701  49.535  1.00  0.00     0.217 A 
HETATM   17  O5  UNL     1      18.471   4.618  48.893  1.00  0.00    -0.284 OA
HETATM   18  C12 UNL     1      20.006   6.098  49.706  1.00  0.00     0.031 A 
HETATM   19  C13 UNL     1      19.292   7.177  49.215  1.00  0.00     0.016 A 
HETATM   20  C17 UNL     1      21.203   6.213  50.407  1.00  0.00     0.029 A 
HETATM   21  C14 UNL     1      19.759   8.453  49.410  1.00  0.00     0.001 A 
HETATM   22  C15 UNL     1      20.938   8.601  50.099  1.00  0.00     0.001 A 
HETATM   23  C16 UNL     1      21.630   7.514  50.578  1.00  0.00     0.016 A 
HETATM   24  C18 UNL     1      21.893   5.041  50.890  1.00  0.00     0.197 A 
HETATM   25  O6  UNL     1      22.933   5.412  51.493  1.00  0.00    -0.286 OA
BRANCH  15  26
HETATM   26  O4  UNL     1      19.635   2.453  49.739  1.00  0.00    -0.356 OA
HETATM   27  H12 UNL     1      20.029   1.603  49.347  1.00  0.00     0.218 HD
ENDBRANCH  15  26
ENDBRANCH   6  14
BRANCH   1  28
HETATM   28  O1  UNL     1      25.631  -0.215  53.942  1.00  0.00    -0.347 OA
BRANCH  28  29
HETATM   29  C4  UNL     1      26.588   0.613  54.578  1.00  0.00     0.206 C 
BRANCH  29  30
HETATM   30  C3  UNL     1      27.903  -0.060  54.808  1.00  0.00     0.297 C 
BRANCH  30  31
HETATM   31  N1  UNL     1      29.040   0.640  54.301  1.00  0.00     0.082 N 
HETATM   32  C1  UNL     1      28.668   1.802  53.526  1.00  0.00     0.309 C 
HETATM   33  C2  UNL     1      29.806  -0.253  53.458  1.00  0.00     0.309 C 
ENDBRANCH  30  31
ENDBRANCH  29  30
ENDBRANCH  28  29
ENDBRANCH   1  28
TORSDOF 6
ENDMDL
MODEL 3
REMARK VINA RESULT:      -8.4      3.001      7.576
REMARK  6 active torsions:
REMARK  status: ('A' for Active; 'I' for Inactive)
REMARK    1  A    between atoms: N1_2  and  C3_4 
REMARK    2  A    between atoms: C3_4  and  C4_5 
REMARK    3  A    between atoms: C4_5  and  O1_6 
REMARK    4  A    between atoms: O1_6  and  C5_7 
REMARK    5  A    between atoms: C8_12  and  C9_13 
REMARK    6  A    between atoms: C10_14  and  O4_15 
ROOT
HETATM    1  C5  UNL     1      23.587   6.719  48.787  1.00  0.00     0.102 C 
HETATM    2  C6  UNL     1      23.891   6.920  50.089  1.00  0.00     0.183 C 
HETATM    3  O2  UNL     1      23.819   6.216  51.319  1.00  0.00    -0.284 OA
HETATM    4  C7  UNL     1      23.125   5.009  51.607  1.00  0.00     0.298 C 
HETATM    5  O3  UNL     1      22.249   4.977  52.566  1.00  0.00    -0.259 OA
HETATM    6  C8  UNL     1      23.212   3.700  50.982  1.00  0.00     0.057 C 
HETATM    7  C19 UNL     1      23.038   3.495  49.688  1.00  0.00     0.031 C 
HETATM    8  C20 UNL     1      22.741   4.187  48.412  1.00  0.00    -0.022 A 
HETATM    9  C21 UNL     1      22.162   3.286  47.552  1.00  0.00     0.012 A 
HETATM   10  C22 UNL     1      21.817   3.770  46.307  1.00  0.00     0.001 A 
HETATM   11  C23 UNL     1      22.068   5.103  46.007  1.00  0.00     0.001 A 
HETATM   12  C24 UNL     1      22.640   6.004  46.847  1.00  0.00     0.015 A 
HETATM   13  C25 UNL     1      22.997   5.540  48.109  1.00  0.00     0.009 A 
ENDROOT
BRANCH   6  14
HETATM   14  C9  UNL     1      23.444   2.584  51.857  1.00  0.00     0.068 A 
HETATM   15  C10 UNL     1      24.602   2.182  52.307  1.00  0.00     0.132 A 
HETATM   16  C11 UNL     1      24.813   1.048  53.215  1.00  0.00     0.217 A 
HETATM   17  O5  UNL     1      25.933   0.643  53.656  1.00  0.00    -0.284 OA
HETATM   18  C12 UNL     1      23.689   0.238  53.721  1.00  0.00     0.031 A 
HETATM   19  C13 UNL     1      23.862  -0.835  54.578  1.00  0.00     0.016 A 
HETATM   20  C17 UNL     1      22.449   0.664  53.251  1.00  0.00     0.029 A 
HETATM   21  C14 UNL     1      22.772  -1.547  55.014  1.00  0.00     0.001 A 
HETATM   22  C15 UNL     1      21.534  -1.152  54.567  1.00  0.00     0.001 A 
HETATM   23  C16 UNL     1      21.386  -0.082  53.716  1.00  0.00     0.016 A 
HETATM   24  C18 UNL     1      22.346   1.792  52.357  1.00  0.00     0.197 A 
HETATM   25  O6  UNL     1      21.131   1.978  52.090  1.00  0.00    -0.286 OA
BRANCH  15  26
HETATM   26  O4  UNL     1      25.842   2.696  52.064  1.00  0.00    -0.356 OA
HETATM   27  H12 UNL     1      26.074   3.684  52.027  1.00  0.00     0.218 HD
ENDBRANCH  15  26
ENDBRANCH   6  14
BRANCH   1  28
HETATM   28  O1  UNL     1      23.850   7.764  47.877  1.00  0.00    -0.347 OA
BRANCH  28  29
HETATM   29  C4  UNL     1      25.096   8.405  48.087  1.00  0.00     0.206 C 
BRANCH  29  30
HETATM   30  C3  UNL     1      26.216   7.810  47.295  1.00  0.00     0.297 C 
BRANCH  30  31
HETATM   31  N1  UNL     1      27.359   7.422  48.058  1.00  0.00     0.082 N 
HETATM   32  C1  UNL     1      27.279   6.052  48.508  1.00  0.00     0.309 C 
HETATM   33  C2  UNL     1      27.467   8.285  49.216  1.00  0.00     0.309 C 
ENDBRANCH  30  31
ENDBRANCH  29  30
ENDBRANCH  28  29
ENDBRANCH   1  28
TORSDOF 6
ENDMDL
MODEL 4
REMARK VINA RESULT:      -8.3      7.899     11.208
REMARK  6 active torsions:
REMARK  status: ('A' for Active; 'I' for Inactive)
REMARK    1  A    between atoms: N1_2  and  C3_4 
REMARK    2  A    between atoms: C3_4  and  C4_5 
REMARK    3  A    between atoms: C4_5  and  O1_6 
REMARK    4  A    between atoms: O1_6  and  C5_7 
REMARK    5  A    between atoms: C8_12  and  C9_13 
REMARK    6  A    between atoms: C10_14  and  O4_15 
ROOT
HETATM    1  C5  UNL     1      27.574   9.006  49.313  1.00  0.00     0.102 C 
HETATM    2  C6  UNL     1      28.793   9.589  49.246  1.00  0.00     0.183 C 
HETATM    3  O2  UNL     1      30.142   9.211  49.024  1.00  0.00    -0.284 OA
HETATM    4  C7  UNL     1      30.702   7.903  49.005  1.00  0.00     0.298 C 
HETATM    5  O3  UNL     1      31.687   7.607  49.798  1.00  0.00    -0.259 OA
HETATM    6  C8  UNL     1      30.351   6.740  48.206  1.00  0.00     0.057 C 
HETATM    7  C19 UNL     1      29.135   6.225  48.161  1.00  0.00     0.031 C 
HETATM    8  C20 UNL     1      27.761   6.391  48.688  1.00  0.00    -0.022 A 
HETATM    9  C21 UNL     1      27.130   5.172  48.654  1.00  0.00     0.012 A 
HETATM   10  C22 UNL     1      25.831   5.147  49.116  1.00  0.00     0.001 A 
HETATM   11  C23 UNL     1      25.254   6.324  49.577  1.00  0.00     0.001 A 
HETATM   12  C24 UNL     1      25.867   7.536  49.616  1.00  0.00     0.015 A 
HETATM   13  C25 UNL     1      27.178   7.587  49.155  1.00  0.00     0.009 A 
ENDROOT
BRANCH   6  14
HETATM   14  C9  UNL     1      31.423   6.109  47.486  1.00  0.00     0.068 A 
HETATM   15  C10 UNL     1      32.166   5.124  47.914  1.00  0.00     0.132 A 
HETATM   16  C11 UNL     1      33.246   4.483  47.155  1.00  0.00     0.217 A 
HETATM   17  O5  UNL     1      33.979   3.528  47.560  1.00  0.00    -0.284 OA
HETATM   18  C12 UNL     1      33.594   4.909  45.787  1.00  0.00     0.031 A 
HETATM   19  C13 UNL     1      34.606   4.321  45.050  1.00  0.00     0.016 A 
HETATM   20  C17 UNL     1      32.802   5.956  45.320  1.00  0.00     0.029 A 
HETATM   21  C14 UNL     1      34.878   4.766  43.779  1.00  0.00     0.001 A 
HETATM   22  C15 UNL     1      34.114   5.797  43.290  1.00  0.00     0.001 A 
HETATM   23  C16 UNL     1      33.112   6.367  44.040  1.00  0.00     0.016 A 
HETATM   24  C18 UNL     1      31.762   6.521  46.146  1.00  0.00     0.197 A 
HETATM   25  O6  UNL     1      31.192   7.435  45.497  1.00  0.00    -0.286 OA
BRANCH  15  26
HETATM   26  O4  UNL     1      32.120   4.473  49.112  1.00  0.00    -0.356 OA
HETATM   27  H12 UNL     1      31.576   3.639  49.310  1.00  0.00     0.218 HD
ENDBRANCH  15  26
ENDBRANCH   6  14
BRANCH   1  28
HETATM   28  O1  UNL     1      26.460   9.831  49.572  1.00  0.00    -0.347 OA
BRANCH  28  29
HETATM   29  C4  UNL     1      26.322  10.909  48.664  1.00  0.00     0.206 C 
BRANCH  29  30
HETATM   30  C3  UNL     1      25.145  10.777  47.752  1.00  0.00     0.297 C 
BRANCH  30  31
HETATM   31  N1  UNL     1      25.455  10.384  46.414  1.00  0.00     0.082 N 
HETATM   32  C1  UNL     1      25.342   8.957  46.221  1.00  0.00     0.309 C 
HETATM   33  C2  UNL     1      26.811  10.788  46.107  1.00  0.00     0.309 C 
ENDBRANCH  30  31
ENDBRANCH  29  30
ENDBRANCH  28  29
ENDBRANCH   1  28
TORSDOF 6
ENDMDL
MODEL 5
REMARK VINA RESULT:      -8.3      3.351      8.069
REMARK  6 active torsions:
REMARK  status: ('A' for Active; 'I' for Inactive)
REMARK    1  A    between atoms: N1_2  and  C3_4 
REMARK    2  A    between atoms: C3_4  and  C4_5 
REMARK    3  A    between atoms: C4_5  and  O1_6 
REMARK    4  A    between atoms: O1_6  and  C5_7 
REMARK    5  A    between atoms: C8_12  and  C9_13 
REMARK    6  A    between atoms: C10_14  and  O4_15 
ROOT
HETATM    1  C5  UNL     1      24.341   7.428  48.466  1.00  0.00     0.102 C 
HETATM    2  C6  UNL     1      24.841   7.480  49.721  1.00  0.00     0.183 C 
HETATM    3  O2  UNL     1      24.839   6.692  50.901  1.00  0.00    -0.284 OA
HETATM    4  C7  UNL     1      24.032   5.562  51.207  1.00  0.00     0.298 C 
HETATM    5  O3  UNL     1      23.296   5.560  52.277  1.00  0.00    -0.259 OA
HETATM    6  C8  UNL     1      23.856   4.308  50.491  1.00  0.00     0.057 C 
HETATM    7  C19 UNL     1      23.484   4.236  49.226  1.00  0.00     0.031 C 
HETATM    8  C20 UNL     1      23.116   5.062  48.053  1.00  0.00    -0.022 A 
HETATM    9  C21 UNL     1      22.310   4.316  47.229  1.00  0.00     0.012 A 
HETATM   10  C22 UNL     1      21.871   4.942  46.080  1.00  0.00     0.001 A 
HETATM   11  C23 UNL     1      22.258   6.253  45.834  1.00  0.00     0.001 A 
HETATM   12  C24 UNL     1      23.055   7.002  46.640  1.00  0.00     0.015 A 
HETATM   13  C25 UNL     1      23.511   6.393  47.805  1.00  0.00     0.009 A 
ENDROOT
BRANCH   6  14
HETATM   14  C9  UNL     1      24.049   3.103  51.251  1.00  0.00     0.068 A 
HETATM   15  C10 UNL     1      23.147   2.490  51.969  1.00  0.00     0.132 A 
HETATM   16  C11 UNL     1      23.362   1.250  52.723  1.00  0.00     0.217 A 
HETATM   17  O5  UNL     1      22.496   0.646  53.430  1.00  0.00    -0.284 OA
HETATM   18  C12 UNL     1      24.665   0.559  52.730  1.00  0.00     0.031 A 
HETATM   19  C13 UNL     1      24.893  -0.611  53.433  1.00  0.00     0.016 A 
HETATM   20  C17 UNL     1      25.632   1.204  51.961  1.00  0.00     0.029 A 
HETATM   21  C14 UNL     1      26.131  -1.203  53.395  1.00  0.00     0.001 A 
HETATM   22  C15 UNL     1      27.106  -0.592  52.645  1.00  0.00     0.001 A 
HETATM   23  C16 UNL     1      26.857   0.571  51.955  1.00  0.00     0.016 A 
HETATM   24  C18 UNL     1      25.321   2.424  51.255  1.00  0.00     0.197 A 
HETATM   25  O6  UNL     1      26.350   2.795  50.634  1.00  0.00    -0.286 OA
BRANCH  15  26
HETATM   26  O4  UNL     1      21.842   2.829  52.179  1.00  0.00    -0.356 OA
HETATM   27  H12 UNL     1      21.429   3.734  51.977  1.00  0.00     0.218 HD
ENDBRANCH  15  26
ENDBRANCH   6  14
BRANCH   1  28
HETATM   28  O1  UNL     1      24.620   8.504  47.597  1.00  0.00    -0.347 OA
BRANCH  28  29
HETATM   29  C4  UNL     1      25.922   9.039  47.749  1.00  0.00     0.206 C 
BRANCH  29  30
HETATM   30  C3  UNL     1      26.960   8.330  46.939  1.00  0.00     0.297 C 
BRANCH  30  31
HETATM   31  N1  UNL     1      28.121   7.922  47.663  1.00  0.00     0.082 N 
HETATM   32  C1  UNL     1      28.053   6.538  48.073  1.00  0.00     0.309 C 
HETATM   33  C2  UNL     1      28.254   8.749  48.844  1.00  0.00     0.309 C 
ENDBRANCH  30  31
ENDBRANCH  29  30
ENDBRANCH  28  29
ENDBRANCH   1  28
TORSDOF 6
ENDMDL
MODEL 6
REMARK VINA RESULT:      -8.3      7.670     11.288
REMARK  6 active torsions:
REMARK  status: ('A' for Active; 'I' for Inactive)
REMARK    1  A    between atoms: N1_2  and  C3_4 
REMARK    2  A    between atoms: C3_4  and  C4_5 
REMARK    3  A    between atoms: C4_5  and  O1_6 
REMARK    4  A    between atoms: O1_6  and  C5_7 
REMARK    5  A    between atoms: C8_12  and  C9_13 
REMARK    6  A    between atoms: C10_14  and  O4_15 
ROOT
HETATM    1  C5  UNL     1      27.462   9.051  49.225  1.00  0.00     0.102 C 
HETATM    2  C6  UNL     1      28.625   9.719  49.053  1.00  0.00     0.183 C 
HETATM    3  O2  UNL     1      29.975   9.436  48.721  1.00  0.00    -0.284 OA
HETATM    4  C7  UNL     1      30.625   8.172  48.664  1.00  0.00     0.298 C 
HETATM    5  O3  UNL     1      31.692   7.958  49.373  1.00  0.00    -0.259 OA
HETATM    6  C8  UNL     1      30.295   6.977  47.904  1.00  0.00     0.057 C 
HETATM    7  C19 UNL     1      29.121   6.375  47.964  1.00  0.00     0.031 C 
HETATM    8  C20 UNL     1      27.787   6.448  48.603  1.00  0.00    -0.022 A 
HETATM    9  C21 UNL     1      27.245   5.186  48.629  1.00  0.00     0.012 A 
HETATM   10  C22 UNL     1      25.993   5.074  49.198  1.00  0.00     0.001 A 
HETATM   11  C23 UNL     1      25.373   6.212  49.698  1.00  0.00     0.001 A 
HETATM   12  C24 UNL     1      25.897   7.466  49.678  1.00  0.00     0.015 A 
HETATM   13  C25 UNL     1      27.158   7.605  49.109  1.00  0.00     0.009 A 
ENDROOT
BRANCH   6  14
HETATM   14  C9  UNL     1      31.347   6.416  47.101  1.00  0.00     0.068 A 
HETATM   15  C10 UNL     1      31.746   6.851  45.937  1.00  0.00     0.132 A 
HETATM   16  C11 UNL     1      32.835   6.270  45.142  1.00  0.00     0.217 A 
HETATM   17  O5  UNL     1      33.230   6.679  44.005  1.00  0.00    -0.284 OA
HETATM   18  C12 UNL     1      33.606   5.105  45.612  1.00  0.00     0.031 A 
HETATM   19  C13 UNL     1      34.637   4.540  44.882  1.00  0.00     0.016 A 
HETATM   20  C17 UNL     1      33.191   4.638  46.857  1.00  0.00     0.029 A 
HETATM   21  C14 UNL     1      35.316   3.456  45.380  1.00  0.00     0.001 A 
HETATM   22  C15 UNL     1      34.930   2.972  46.607  1.00  0.00     0.001 A 
HETATM   23  C16 UNL     1      33.902   3.549  47.314  1.00  0.00     0.016 A 
HETATM   24  C18 UNL     1      32.105   5.278  47.562  1.00  0.00     0.197 A 
HETATM   25  O6  UNL     1      31.934   4.680  48.655  1.00  0.00    -0.286 OA
BRANCH  15  26
HETATM   26  O4  UNL     1      31.278   7.905  45.208  1.00  0.00    -0.356 OA
HETATM   27  H12 UNL     1      31.631   8.856  45.253  1.00  0.00     0.218 HD
ENDBRANCH  15  26
ENDBRANCH   6  14
BRANCH   1  28
HETATM   28  O1  UNL     1      26.316   9.797  49.571  1.00  0.00    -0.347 OA
BRANCH  28  29
HETATM   29  C4  UNL     1      25.991  10.813  48.639  1.00  0.00     0.206 C 
BRANCH  29  30
HETATM   30  C3  UNL     1      24.853  10.458  47.737  1.00  0.00     0.297 C 
BRANCH  30  31
HETATM   31  N1  UNL     1      25.172   9.542  46.690  1.00  0.00     0.082 N 
HETATM   32  C1  UNL     1      25.354  10.203  45.418  1.00  0.00     0.309 C 
HETATM   33  C2  UNL     1      24.099   8.579  46.562  1.00  0.00     0.309 C 
ENDBRANCH  30  31
ENDBRANCH  29  30
ENDBRANCH  28  29
ENDBRANCH   1  28
TORSDOF 6
ENDMDL
MODEL 7
REMARK VINA RESULT:      -8.2      2.030      2.208
REMARK  6 active torsions:
REMARK  status: ('A' for Active; 'I' for Inactive)
REMARK    1  A    between atoms: N1_2  and  C3_4 
REMARK    2  A    between atoms: C3_4  and  C4_5 
REMARK    3  A    between atoms: C4_5  and  O1_6 
REMARK    4  A    between atoms: O1_6  and  C5_7 
REMARK    5  A    between atoms: C8_12  and  C9_13 
REMARK    6  A    between atoms: C10_14  and  O4_15 
ROOT
HETATM    1  C5  UNL     1      25.650   1.138  53.059  1.00  0.00     0.102 C 
HETATM    2  C6  UNL     1      26.590   1.973  52.561  1.00  0.00     0.183 C 
HETATM    3  O2  UNL     1      26.719   2.931  51.522  1.00  0.00    -0.284 OA
HETATM    4  C7  UNL     1      25.840   3.174  50.431  1.00  0.00     0.298 C 
HETATM    5  O3  UNL     1      26.286   3.113  49.212  1.00  0.00    -0.259 OA
HETATM    6  C8  UNL     1      24.423   3.501  50.417  1.00  0.00     0.057 C 
HETATM    7  C19 UNL     1      23.498   2.761  51.002  1.00  0.00     0.031 C 
HETATM    8  C20 UNL     1      23.300   1.529  51.799  1.00  0.00    -0.022 A 
HETATM    9  C21 UNL     1      22.021   1.075  51.590  1.00  0.00     0.012 A 
HETATM   10  C22 UNL     1      21.667  -0.077  52.263  1.00  0.00     0.001 A 
HETATM   11  C23 UNL     1      22.601  -0.692  53.087  1.00  0.00     0.001 A 
HETATM   12  C24 UNL     1      23.869  -0.253  53.303  1.00  0.00     0.015 A 
HETATM   13  C25 UNL     1      24.249   0.907  52.636  1.00  0.00     0.009 A 
ENDROOT
BRANCH   6  14
HETATM   14  C9  UNL     1      24.040   4.665  49.666  1.00  0.00     0.068 A 
HETATM   15  C10 UNL     1      24.344   5.902  49.951  1.00  0.00     0.132 A 
HETATM   16  C11 UNL     1      23.955   7.076  49.160  1.00  0.00     0.217 A 
HETATM   17  O5  UNL     1      24.239   8.285  49.428  1.00  0.00    -0.284 OA
HETATM   18  C12 UNL     1      23.162   6.952  47.923  1.00  0.00     0.031 A 
HETATM   19  C13 UNL     1      22.783   8.042  47.160  1.00  0.00     0.016 A 
HETATM   20  C17 UNL     1      22.838   5.634  47.609  1.00  0.00     0.029 A 
HETATM   21  C14 UNL     1      22.045   7.856  46.017  1.00  0.00     0.001 A 
HETATM   22  C15 UNL     1      21.709   6.567  45.679  1.00  0.00     0.001 A 
HETATM   23  C16 UNL     1      22.097   5.499  46.453  1.00  0.00     0.016 A 
HETATM   24  C18 UNL     1      23.267   4.546  48.454  1.00  0.00     0.197 A 
HETATM   25  O6  UNL     1      22.860   3.467  47.951  1.00  0.00    -0.286 OA
BRANCH  15  26
HETATM   26  O4  UNL     1      25.070   6.387  50.999  1.00  0.00    -0.356 OA
HETATM   27  H12 UNL     1      25.806   7.084  50.935  1.00  0.00     0.218 HD
ENDBRANCH  15  26
ENDBRANCH   6  14
BRANCH   1  28
HETATM   28  O1  UNL     1      26.001   0.330  54.161  1.00  0.00    -0.347 OA
BRANCH  28  29
HETATM   29  C4  UNL     1      27.176   0.751  54.829  1.00  0.00     0.206 C 
BRANCH  29  30
HETATM   30  C3  UNL     1      28.276  -0.262  54.804  1.00  0.00     0.297 C 
BRANCH  30  31
HETATM   31  N1  UNL     1      28.767  -0.591  53.505  1.00  0.00     0.082 N 
HETATM   32  C1  UNL     1      28.416  -1.935  53.109  1.00  0.00     0.309 C 
HETATM   33  C2  UNL     1      30.210  -0.469  53.502  1.00  0.00     0.309 C 
ENDBRANCH  30  31
ENDBRANCH  29  30
ENDBRANCH  28  29
ENDBRANCH   1  28
TORSDOF 6
ENDMDL
MODEL 8
REMARK VINA RESULT:      -8.2      4.719      9.235
REMARK  6 active torsions:
REMARK  status: ('A' for Active; 'I' for Inactive)
REMARK    1  A    between atoms: N1_2  and  C3_4 
REMARK    2  A    between atoms: C3_4  and  C4_5 
REMARK    3  A    between atoms: C4_5  and  O1_6 
REMARK    4  A    between atoms: O1_6  and  C5_7 
REMARK    5  A    between atoms: C8_12  and  C9_13 
REMARK    6  A    between atoms: C10_14  and  O4_15 
ROOT
HETATM    1  C5  UNL     1      17.294   1.392  50.120  1.00  0.00     0.102 C 
HETATM    2  C6  UNL     1      18.321   2.272  50.103  1.00  0.00     0.183 C 
HETATM    3  O2  UNL     1      19.522   2.520  50.816  1.00  0.00    -0.284 OA
HETATM    4  C7  UNL     1      19.946   1.961  52.053  1.00  0.00     0.298 C 
HETATM    5  O3  UNL     1      20.247   2.739  53.049  1.00  0.00    -0.259 OA
HETATM    6  C8  UNL     1      20.119   0.573  52.448  1.00  0.00     0.057 C 
HETATM    7  C19 UNL     1      19.164  -0.336  52.361  1.00  0.00     0.031 C 
HETATM    8  C20 UNL     1      17.755  -0.533  51.951  1.00  0.00    -0.022 A 
HETATM    9  C21 UNL     1      17.242  -1.598  52.649  1.00  0.00     0.012 A 
HETATM   10  C22 UNL     1      15.926  -1.919  52.386  1.00  0.00     0.001 A 
HETATM   11  C23 UNL     1      15.218  -1.167  51.458  1.00  0.00     0.001 A 
HETATM   12  C24 UNL     1      15.713  -0.111  50.760  1.00  0.00     0.015 A 
HETATM   13  C25 UNL     1      17.038   0.233  51.008  1.00  0.00     0.009 A 
ENDROOT
BRANCH   6  14
HETATM   14  C9  UNL     1      21.392   0.221  53.016  1.00  0.00     0.068 A 
HETATM   15  C10 UNL     1      21.587  -0.476  54.103  1.00  0.00     0.132 A 
HETATM   16  C11 UNL     1      22.898  -0.838  54.655  1.00  0.00     0.217 A 
HETATM   17  O5  UNL     1      23.103  -1.509  55.714  1.00  0.00    -0.284 OA
HETATM   18  C12 UNL     1      24.156  -0.435  53.999  1.00  0.00     0.031 A 
HETATM   19  C13 UNL     1      25.404  -0.765  54.499  1.00  0.00     0.016 A 
HETATM   20  C17 UNL     1      23.957   0.303  52.835  1.00  0.00     0.029 A 
HETATM   21  C14 UNL     1      26.537  -0.360  53.838  1.00  0.00     0.001 A 
HETATM   22  C15 UNL     1      26.373   0.370  52.685  1.00  0.00     0.001 A 
HETATM   23  C16 UNL     1      25.124   0.686  52.207  1.00  0.00     0.016 A 
HETATM   24  C18 UNL     1      22.624   0.609  52.374  1.00  0.00     0.197 A 
HETATM   25  O6  UNL     1      22.715   1.270  51.307  1.00  0.00    -0.286 OA
BRANCH  15  26
HETATM   26  O4  UNL     1      20.666  -1.019  54.950  1.00  0.00    -0.356 OA
HETATM   27  H12 UNL     1      20.344  -1.981  54.931  1.00  0.00     0.218 HD
ENDBRANCH  15  26
ENDBRANCH   6  14
BRANCH   1  28
HETATM   28  O1  UNL     1      16.270   1.550  49.163  1.00  0.00    -0.347 OA
BRANCH  28  29
HETATM   29  C4  UNL     1      16.276   2.814  48.523  1.00  0.00     0.206 C 
BRANCH  29  30
HETATM   30  C3  UNL     1      15.094   3.663  48.864  1.00  0.00     0.297 C 
BRANCH  30  31
HETATM   31  N1  UNL     1      14.254   3.147  49.898  1.00  0.00     0.082 N 
HETATM   32  C1  UNL     1      12.884   2.994  49.467  1.00  0.00     0.309 C 
HETATM   33  C2  UNL     1      14.287   4.052  51.027  1.00  0.00     0.309 C 
ENDBRANCH  30  31
ENDBRANCH  29  30
ENDBRANCH  28  29
ENDBRANCH   1  28
TORSDOF 6
ENDMDL
MODEL 9
REMARK VINA RESULT:      -8.0      3.275      5.137
REMARK  6 active torsions:
REMARK  status: ('A' for Active; 'I' for Inactive)
REMARK    1  A    between atoms: N1_2  and  C3_4 
REMARK    2  A    between atoms: C3_4  and  C4_5 
REMARK    3  A    between atoms: C4_5  and  O1_6 
REMARK    4  A    between atoms: O1_6  and  C5_7 
REMARK    5  A    between atoms: C8_12  and  C9_13 
REMARK    6  A    between atoms: C10_14  and  O4_15 
ROOT
HETATM    1  C5  UNL     1      22.734   1.471  52.529  1.00  0.00     0.102 C 
HETATM    2  C6  UNL     1      21.837   2.461  52.322  1.00  0.00     0.183 C 
HETATM    3  O2  UNL     1      21.802   3.767  51.769  1.00  0.00    -0.284 OA
HETATM    4  C7  UNL     1      22.894   4.603  51.407  1.00  0.00     0.298 C 
HETATM    5  O3  UNL     1      23.000   5.792  51.920  1.00  0.00    -0.259 OA
HETATM    6  C8  UNL     1      24.006   4.361  50.502  1.00  0.00     0.057 C 
HETATM    7  C19 UNL     1      24.826   3.330  50.612  1.00  0.00     0.031 C 
HETATM    8  C20 UNL     1      25.106   2.125  51.427  1.00  0.00    -0.022 A 
HETATM    9  C21 UNL     1      26.438   1.816  51.305  1.00  0.00     0.012 A 
HETATM   10  C22 UNL     1      26.873   0.711  52.008  1.00  0.00     0.001 A 
HETATM   11  C23 UNL     1      25.962  -0.002  52.776  1.00  0.00     0.001 A 
HETATM   12  C24 UNL     1      24.641   0.292  52.904  1.00  0.00     0.015 A 
HETATM   13  C25 UNL     1      24.179   1.402  52.205  1.00  0.00     0.009 A 
ENDROOT
BRANCH   6  14
HETATM   14  C9  UNL     1      24.230   5.347  49.481  1.00  0.00     0.068 A 
HETATM   15  C10 UNL     1      25.224   6.192  49.428  1.00  0.00     0.132 A 
HETATM   16  C11 UNL     1      25.442   7.181  48.366  1.00  0.00     0.217 A 
HETATM   17  O5  UNL     1      26.401   8.012  48.304  1.00  0.00    -0.284 OA
HETATM   18  C12 UNL     1      24.523   7.305  47.219  1.00  0.00     0.031 A 
HETATM   19  C13 UNL     1      24.707   8.229  46.205  1.00  0.00     0.016 A 
HETATM   20  C17 UNL     1      23.463   6.404  47.265  1.00  0.00     0.029 A 
HETATM   21  C14 UNL     1      23.814   8.291  45.164  1.00  0.00     0.001 A 
HETATM   22  C15 UNL     1      22.756   7.414  45.180  1.00  0.00     0.001 A 
HETATM   23  C16 UNL     1      22.594   6.505  46.198  1.00  0.00     0.016 A 
HETATM   24  C18 UNL     1      23.335   5.468  48.356  1.00  0.00     0.197 A 
HETATM   25  O6  UNL     1      22.311   4.765  48.159  1.00  0.00    -0.286 OA
BRANCH  15  26
HETATM   26  O4  UNL     1      26.261   6.352  50.300  1.00  0.00    -0.356 OA
HETATM   27  H12 UNL     1      26.668   7.240  50.575  1.00  0.00     0.218 HD
ENDBRANCH  15  26
ENDBRANCH   6  14
BRANCH   1  28
HETATM   28  O1  UNL     1      22.283   0.288  53.149  1.00  0.00    -0.347 OA
BRANCH  28  29
HETATM   29  C4  UNL     1      21.104  -0.246  52.573  1.00  0.00     0.206 C 
BRANCH  29  30
HETATM   30  C3  UNL     1      20.107  -0.720  53.582  1.00  0.00     0.297 C 
BRANCH  30  31
HETATM   31  N1  UNL     1      18.739  -0.546  53.211  1.00  0.00     0.082 N 
HETATM   32  C1  UNL     1      17.964  -1.752  53.392  1.00  0.00     0.309 C 
HETATM   33  C2  UNL     1      18.675  -0.160  51.817  1.00  0.00     0.309 C 
ENDBRANCH  30  31
ENDBRANCH  29  30
ENDBRANCH  28  29
ENDBRANCH   1  28
TORSDOF 6
ENDMDL
