MODEL 1
REMARK VINA RESULT:      -7.6      0.000      0.000
REMARK  6 active torsions:
REMARK  status: ('A' for Active; 'I' for Inactive)
REMARK    1  A    between atoms: O1_2  and  C2_3 
REMARK    2  A    between atoms: C2_3  and  N1_4 
REMARK    3  A    between atoms: N1_4  and  C3_5 
REMARK    4  A    between atoms: C6_8  and  N2_9 
REMARK    5  A    between atoms: C11_15  and  O2_16 
REMARK    6  A    between atoms: C11_15  and  O3_18 
ROOT
HETATM    1  N2  UNL     1      24.238   1.202  52.522  1.00  0.00    -0.340 N 
HETATM    2  C7  UNL     1      24.368   2.441  51.833  1.00  0.00     0.126 C 
HETATM    3  C8  UNL     1      25.399   2.657  51.066  1.00  0.00     0.102 C 
HETATM    4  N3  UNL     1      26.400   1.880  51.143  1.00  0.00    -0.247 NA
HETATM    5  C9  UNL     1      26.647   1.070  52.302  1.00  0.00     0.064 C 
HETATM    6  C10 UNL     1      27.842   0.860  52.796  1.00  0.00     0.075 C 
HETATM    7  C11 UNL     1      27.965  -0.009  54.017  1.00  0.00     0.204 C 
HETATM    8  C14 UNL     1      26.817   0.218  54.904  1.00  0.00     0.044 C 
HETATM    9  C15 UNL     1      25.606   0.449  54.407  1.00  0.00     0.006 C 
HETATM   10  C16 UNL     1      25.434   0.473  52.921  1.00  0.00     0.164 C 
ENDROOT
BRANCH   1  11
HETATM   11  C6  UNL     1      22.970   0.638  52.842  1.00  0.00     0.035 A 
HETATM   12  C5  UNL     1      21.792   1.389  52.788  1.00  0.00     0.032 A 
HETATM   13  C4  UNL     1      20.554   0.848  53.098  1.00  0.00     0.031 A 
HETATM   14  C3  UNL     1      20.507  -0.490  53.472  1.00  0.00     0.029 A 
HETATM   15  C18 UNL     1      21.648  -1.252  53.534  1.00  0.00     0.031 A 
HETATM   16  C17 UNL     1      22.853  -0.683  53.220  1.00  0.00     0.032 A 
BRANCH  14  17
HETATM   17  N1  UNL     1      19.239  -1.091  53.803  1.00  0.00    -0.369 N 
HETATM   18  H6  UNL     1      19.162  -1.672  54.670  1.00  0.00     0.161 HD
BRANCH  17  19
HETATM   19  C2  UNL     1      18.090  -0.890  52.941  1.00  0.00     0.289 C 
BRANCH  19  20
HETATM   20  O1  UNL     1      17.105  -1.857  53.108  1.00  0.00    -0.377 OA
HETATM   21  C1  UNL     1      17.732  -2.962  53.726  1.00  0.00     0.203 C 
ENDBRANCH  19  20
ENDBRANCH  17  19
ENDBRANCH  14  17
ENDBRANCH   1  11
BRANCH   7  22
HETATM   22  O2  UNL     1      28.047  -1.321  53.563  1.00  0.00    -0.353 OA
HETATM   23  C12 UNL     1      29.377  -1.656  53.364  1.00  0.00     0.206 C 
ENDBRANCH   7  22
BRANCH   7  24
HETATM   24  O3  UNL     1      29.196   0.325  54.575  1.00  0.00    -0.353 OA
HETATM   25  C13 UNL     1      29.423   1.698  54.630  1.00  0.00     0.206 C 
ENDBRANCH   7  24
TORSDOF 6
ENDMDL
MODEL 2
REMARK VINA RESULT:      -7.4      3.259      5.817
REMARK  6 active torsions:
REMARK  status: ('A' for Active; 'I' for Inactive)
REMARK    1  A    between atoms: O1_2  and  C2_3 
REMARK    2  A    between atoms: C2_3  and  N1_4 
REMARK    3  A    between atoms: N1_4  and  C3_5 
REMARK    4  A    between atoms: C6_8  and  N2_9 
REMARK    5  A    between atoms: C11_15  and  O2_16 
REMARK    6  A    between atoms: C11_15  and  O3_18 
ROOT
HETATM    1  N2  UNL     1      23.321   1.478  52.479  1.00  0.00    -0.340 N 
HETATM    2  C7  UNL     1      22.313   0.488  52.304  1.00  0.00     0.126 C 
HETATM    3  C8  UNL     1      22.247  -0.528  53.119  1.00  0.00     0.102 C 
HETATM    4  N3  UNL     1      23.227  -0.765  53.890  1.00  0.00    -0.247 NA
HETATM    5  C9  UNL     1      24.547  -0.274  53.618  1.00  0.00     0.064 C 
HETATM    6  C10 UNL     1      25.636  -0.971  53.831  1.00  0.00     0.075 C 
HETATM    7  C11 UNL     1      26.961  -0.340  53.501  1.00  0.00     0.204 C 
HETATM    8  C14 UNL     1      26.827   0.493  52.299  1.00  0.00     0.044 C 
HETATM    9  C15 UNL     1      25.717   1.187  52.069  1.00  0.00     0.006 C 
HETATM   10  C16 UNL     1      24.602   1.104  53.064  1.00  0.00     0.164 C 
ENDROOT
BRANCH   1  11
HETATM   11  C6  UNL     1      23.127   2.837  52.101  1.00  0.00     0.035 A 
HETATM   12  C5  UNL     1      22.394   3.191  50.965  1.00  0.00     0.032 A 
HETATM   13  C4  UNL     1      22.200   4.511  50.589  1.00  0.00     0.031 A 
HETATM   14  C3  UNL     1      22.763   5.501  51.387  1.00  0.00     0.029 A 
HETATM   15  C18 UNL     1      23.488   5.183  52.509  1.00  0.00     0.031 A 
HETATM   16  C17 UNL     1      23.658   3.868  52.849  1.00  0.00     0.032 A 
BRANCH  14  17
HETATM   17  N1  UNL     1      22.586   6.886  51.032  1.00  0.00    -0.369 N 
HETATM   18  H6  UNL     1      21.616   7.261  50.911  1.00  0.00     0.161 HD
BRANCH  17  19
HETATM   19  C2  UNL     1      23.740   7.745  50.846  1.00  0.00     0.289 C 
BRANCH  19  20
HETATM   20  O1  UNL     1      24.472   7.438  49.704  1.00  0.00    -0.377 OA
HETATM   21  C1  UNL     1      25.826   7.382  50.101  1.00  0.00     0.203 C 
ENDBRANCH  19  20
ENDBRANCH  17  19
ENDBRANCH  14  17
ENDBRANCH   1  11
BRANCH   7  22
HETATM   22  O2  UNL     1      27.343   0.389  54.623  1.00  0.00    -0.353 OA
HETATM   23  C12 UNL     1      28.718   0.303  54.779  1.00  0.00     0.206 C 
ENDBRANCH   7  22
BRANCH   7  24
HETATM   24  O3  UNL     1      27.845  -1.406  53.365  1.00  0.00    -0.353 OA
HETATM   25  C13 UNL     1      27.344  -2.442  52.580  1.00  0.00     0.206 C 
ENDBRANCH   7  24
TORSDOF 6
ENDMDL
MODEL 3
REMARK VINA RESULT:      -7.2      3.810      7.873
REMARK  6 active torsions:
REMARK  status: ('A' for Active; 'I' for Inactive)
REMARK    1  A    between atoms: O1_2  and  C2_3 
REMARK    2  A    between atoms: C2_3  and  N1_4 
REMARK    3  A    between atoms: N1_4  and  C3_5 
REMARK    4  A    between atoms: C6_8  and  N2_9 
REMARK    5  A    between atoms: C11_15  and  O2_16 
REMARK    6  A    between atoms: C11_15  and  O3_18 
ROOT
HETATM    1  N2  UNL     1      24.855   3.079  50.857  1.00  0.00    -0.340 N 
HETATM    2  C7  UNL     1      23.505   2.745  50.554  1.00  0.00     0.126 C 
HETATM    3  C8  UNL     1      22.720   2.287  51.488  1.00  0.00     0.102 C 
HETATM    4  N3  UNL     1      23.228   1.895  52.584  1.00  0.00    -0.247 NA
HETATM    5  C9  UNL     1      24.607   1.516  52.691  1.00  0.00     0.064 C 
HETATM    6  C10 UNL     1      25.025   0.504  53.411  1.00  0.00     0.075 C 
HETATM    7  C11 UNL     1      26.500   0.210  53.439  1.00  0.00     0.204 C 
HETATM    8  C14 UNL     1      27.084   0.483  52.119  1.00  0.00     0.044 C 
HETATM    9  C15 UNL     1      26.650   1.497  51.377  1.00  0.00     0.006 C 
HETATM   10  C16 UNL     1      25.553   2.360  51.916  1.00  0.00     0.164 C 
ENDROOT
BRANCH   1  11
HETATM   11  C6  UNL     1      25.563   4.099  50.159  1.00  0.00     0.035 A 
HETATM   12  C5  UNL     1      26.708   3.822  49.407  1.00  0.00     0.032 A 
HETATM   13  C4  UNL     1      27.403   4.808  48.725  1.00  0.00     0.031 A 
HETATM   14  C3  UNL     1      26.925   6.111  48.805  1.00  0.00     0.029 A 
HETATM   15  C18 UNL     1      25.802   6.412  49.535  1.00  0.00     0.031 A 
HETATM   16  C17 UNL     1      25.141   5.412  50.197  1.00  0.00     0.032 A 
BRANCH  14  17
HETATM   17  N1  UNL     1      27.618   7.167  48.110  1.00  0.00    -0.369 N 
HETATM   18  H6  UNL     1      27.744   7.097  47.074  1.00  0.00     0.161 HD
BRANCH  17  19
HETATM   19  C2  UNL     1      28.131   8.308  48.844  1.00  0.00     0.289 C 
BRANCH  19  20
HETATM   20  O1  UNL     1      29.515   8.297  48.974  1.00  0.00    -0.377 OA
HETATM   21  C1  UNL     1      29.890   9.604  49.355  1.00  0.00     0.203 C 
ENDBRANCH  19  20
ENDBRANCH  17  19
ENDBRANCH  14  17
ENDBRANCH   1  11
BRANCH   7  22
HETATM   22  O2  UNL     1      27.043   1.003  54.445  1.00  0.00    -0.353 OA
HETATM   23  C12 UNL     1      28.366   0.644  54.648  1.00  0.00     0.206 C 
ENDBRANCH   7  22
BRANCH   7  24
HETATM   24  O3  UNL     1      26.596  -1.117  53.846  1.00  0.00    -0.353 OA
HETATM   25  C13 UNL     1      26.832  -2.002  52.796  1.00  0.00     0.206 C 
ENDBRANCH   7  24
TORSDOF 6
ENDMDL
MODEL 4
REMARK VINA RESULT:      -7.1      1.721      1.906
REMARK  6 active torsions:
REMARK  status: ('A' for Active; 'I' for Inactive)
REMARK    1  A    between atoms: O1_2  and  C2_3 
REMARK    2  A    between atoms: C2_3  and  N1_4 
REMARK    3  A    between atoms: N1_4  and  C3_5 
REMARK    4  A    between atoms: C6_8  and  N2_9 
REMARK    5  A    between atoms: C11_15  and  O2_16 
REMARK    6  A    between atoms: C11_15  and  O3_18 
ROOT
HETATM    1  N2  UNL     1      24.036   2.016  51.600  1.00  0.00    -0.340 N 
HETATM    2  C7  UNL     1      24.646   3.272  51.320  1.00  0.00     0.126 C 
HETATM    3  C8  UNL     1      25.855   3.318  50.837  1.00  0.00     0.102 C 
HETATM    4  N3  UNL     1      26.572   2.270  50.867  1.00  0.00    -0.247 NA
HETATM    5  C9  UNL     1      26.308   1.192  51.776  1.00  0.00     0.064 C 
HETATM    6  C10 UNL     1      27.248   0.519  52.392  1.00  0.00     0.075 C 
HETATM    7  C11 UNL     1      26.837  -0.589  53.322  1.00  0.00     0.204 C 
HETATM    8  C14 UNL     1      25.601  -0.215  54.022  1.00  0.00     0.044 C 
HETATM    9  C15 UNL     1      24.653   0.483  53.406  1.00  0.00     0.006 C 
HETATM   10  C16 UNL     1      24.868   0.882  51.981  1.00  0.00     0.164 C 
ENDROOT
BRANCH   1  11
HETATM   11  C6  UNL     1      22.628   1.819  51.522  1.00  0.00     0.035 A 
HETATM   12  C5  UNL     1      21.746   2.425  52.421  1.00  0.00     0.032 A 
HETATM   13  C4  UNL     1      20.374   2.239  52.353  1.00  0.00     0.031 A 
HETATM   14  C3  UNL     1      19.881   1.416  51.346  1.00  0.00     0.029 A 
HETATM   15  C18 UNL     1      20.724   0.808  50.448  1.00  0.00     0.031 A 
HETATM   16  C17 UNL     1      22.074   1.016  50.547  1.00  0.00     0.032 A 
BRANCH  14  17
HETATM   17  N1  UNL     1      18.461   1.196  51.240  1.00  0.00    -0.369 N 
HETATM   18  H6  UNL     1      17.841   1.992  50.964  1.00  0.00     0.161 HD
BRANCH  17  19
HETATM   19  C2  UNL     1      17.904  -0.116  51.513  1.00  0.00     0.289 C 
BRANCH  19  20
HETATM   20  O1  UNL     1      18.538  -0.771  52.563  1.00  0.00    -0.377 OA
HETATM   21  C1  UNL     1      17.526  -1.439  53.286  1.00  0.00     0.203 C 
ENDBRANCH  19  20
ENDBRANCH  17  19
ENDBRANCH  14  17
ENDBRANCH   1  11
BRANCH   7  22
HETATM   22  O2  UNL     1      26.691  -1.730  52.539  1.00  0.00    -0.353 OA
HETATM   23  C12 UNL     1      27.754  -2.588  52.775  1.00  0.00     0.206 C 
ENDBRANCH   7  22
BRANCH   7  24
HETATM   24  O3  UNL     1      27.933  -0.784  54.157  1.00  0.00    -0.353 OA
HETATM   25  C13 UNL     1      28.348   0.377  54.805  1.00  0.00     0.206 C 
ENDBRANCH   7  24
TORSDOF 6
ENDMDL
MODEL 5
REMARK VINA RESULT:      -7.1      2.465      7.690
REMARK  6 active torsions:
REMARK  status: ('A' for Active; 'I' for Inactive)
REMARK    1  A    between atoms: O1_2  and  C2_3 
REMARK    2  A    between atoms: C2_3  and  N1_4 
REMARK    3  A    between atoms: N1_4  and  C3_5 
REMARK    4  A    between atoms: C6_8  and  N2_9 
REMARK    5  A    between atoms: C11_15  and  O2_16 
REMARK    6  A    between atoms: C11_15  and  O3_18 
ROOT
HETATM    1  N2  UNL     1      23.561   2.411  52.050  1.00  0.00    -0.340 N 
HETATM    2  C7  UNL     1      23.861   3.787  51.836  1.00  0.00     0.126 C 
HETATM    3  C8  UNL     1      22.984   4.701  52.140  1.00  0.00     0.102 C 
HETATM    4  N3  UNL     1      21.785   4.354  52.374  1.00  0.00    -0.247 NA
HETATM    5  C9  UNL     1      21.247   3.111  51.901  1.00  0.00     0.064 C 
HETATM    6  C10 UNL     1      20.028   2.981  51.438  1.00  0.00     0.075 C 
HETATM    7  C11 UNL     1      19.585   1.621  50.971  1.00  0.00     0.204 C 
HETATM    8  C14 UNL     1      20.710   0.928  50.329  1.00  0.00     0.044 C 
HETATM    9  C15 UNL     1      21.950   1.072  50.785  1.00  0.00     0.006 C 
HETATM   10  C16 UNL     1      22.179   1.956  51.970  1.00  0.00     0.164 C 
ENDROOT
BRANCH   1  11
HETATM   11  C6  UNL     1      24.570   1.449  52.344  1.00  0.00     0.035 A 
HETATM   12  C5  UNL     1      24.400   0.481  53.336  1.00  0.00     0.032 A 
HETATM   13  C4  UNL     1      25.375  -0.460  53.629  1.00  0.00     0.031 A 
HETATM   14  C3  UNL     1      26.555  -0.419  52.895  1.00  0.00     0.029 A 
HETATM   15  C18 UNL     1      26.750   0.522  51.913  1.00  0.00     0.031 A 
HETATM   16  C17 UNL     1      25.763   1.435  51.653  1.00  0.00     0.032 A 
BRANCH  14  17
HETATM   17  N1  UNL     1      27.596  -1.378  53.167  1.00  0.00    -0.369 N 
HETATM   18  H6  UNL     1      27.428  -2.388  52.948  1.00  0.00     0.161 HD
BRANCH  17  19
HETATM   19  C2  UNL     1      28.858  -0.944  53.737  1.00  0.00     0.289 C 
BRANCH  19  20
HETATM   20  O1  UNL     1      28.702  -0.093  54.825  1.00  0.00    -0.377 OA
HETATM   21  C1  UNL     1      29.334   1.121  54.477  1.00  0.00     0.203 C 
ENDBRANCH  19  20
ENDBRANCH  17  19
ENDBRANCH  14  17
ENDBRANCH   1  11
BRANCH   7  22
HETATM   22  O2  UNL     1      19.107   0.953  52.094  1.00  0.00    -0.353 OA
HETATM   23  C12 UNL     1      18.448  -0.199  51.696  1.00  0.00     0.206 C 
ENDBRANCH   7  22
BRANCH   7  24
HETATM   24  O3  UNL     1      18.504   1.864  50.129  1.00  0.00    -0.353 OA
HETATM   25  C13 UNL     1      18.856   2.525  48.954  1.00  0.00     0.206 C 
ENDBRANCH   7  24
TORSDOF 6
ENDMDL
MODEL 6
REMARK VINA RESULT:      -7.0      2.348      2.817
REMARK  6 active torsions:
REMARK  status: ('A' for Active; 'I' for Inactive)
REMARK    1  A    between atoms: O1_2  and  C2_3 
REMARK    2  A    between atoms: C2_3  and  N1_4 
REMARK    3  A    between atoms: N1_4  and  C3_5 
REMARK    4  A    between atoms: C6_8  and  N2_9 
REMARK    5  A    between atoms: C11_15  and  O2_16 
REMARK    6  A    between atoms: C11_15  and  O3_18 
ROOT
HETATM    1  N2  UNL     1      24.211   2.047  51.709  1.00  0.00    -0.340 N 
HETATM    2  C7  UNL     1      24.889   3.236  51.317  1.00  0.00     0.126 C 
HETATM    3  C8  UNL     1      26.086   3.166  50.805  1.00  0.00     0.102 C 
HETATM    4  N3  UNL     1      26.737   2.081  50.904  1.00  0.00    -0.247 NA
HETATM    5  C9  UNL     1      26.431   1.097  51.902  1.00  0.00     0.064 C 
HETATM    6  C10 UNL     1      27.344   0.416  52.549  1.00  0.00     0.075 C 
HETATM    7  C11 UNL     1      26.891  -0.587  53.574  1.00  0.00     0.204 C 
HETATM    8  C14 UNL     1      25.699  -0.082  54.269  1.00  0.00     0.044 C 
HETATM    9  C15 UNL     1      24.780   0.625  53.619  1.00  0.00     0.006 C 
HETATM   10  C16 UNL     1      24.982   0.896  52.162  1.00  0.00     0.164 C 
ENDROOT
BRANCH   1  11
HETATM   11  C6  UNL     1      22.791   1.934  51.678  1.00  0.00     0.035 A 
HETATM   12  C5  UNL     1      22.150   0.849  51.076  1.00  0.00     0.032 A 
HETATM   13  C4  UNL     1      20.769   0.731  51.041  1.00  0.00     0.031 A 
HETATM   14  C3  UNL     1      20.017   1.740  51.632  1.00  0.00     0.029 A 
HETATM   15  C18 UNL     1      20.621   2.818  52.231  1.00  0.00     0.031 A 
HETATM   16  C17 UNL     1      21.987   2.901  52.246  1.00  0.00     0.032 A 
BRANCH  14  17
HETATM   17  N1  UNL     1      18.578   1.656  51.618  1.00  0.00    -0.369 N 
HETATM   18  H6  UNL     1      18.118   0.757  51.889  1.00  0.00     0.161 HD
BRANCH  17  19
HETATM   19  C2  UNL     1      17.785   2.808  51.231  1.00  0.00     0.289 C 
BRANCH  19  20
HETATM   20  O1  UNL     1      16.916   3.233  52.229  1.00  0.00    -0.377 OA
HETATM   21  C1  UNL     1      16.245   4.366  51.719  1.00  0.00     0.203 C 
ENDBRANCH  19  20
ENDBRANCH  17  19
ENDBRANCH  14  17
ENDBRANCH   1  11
BRANCH   7  22
HETATM   22  O2  UNL     1      26.654  -1.775  52.889  1.00  0.00    -0.353 OA
HETATM   23  C12 UNL     1      27.832  -2.501  52.809  1.00  0.00     0.206 C 
ENDBRANCH   7  22
BRANCH   7  24
HETATM   24  O3  UNL     1      27.994  -0.785  54.399  1.00  0.00    -0.353 OA
HETATM   25  C13 UNL     1      28.579   0.402  54.833  1.00  0.00     0.206 C 
ENDBRANCH   7  24
TORSDOF 6
ENDMDL
MODEL 7
REMARK VINA RESULT:      -7.0      3.968      7.418
REMARK  6 active torsions:
REMARK  status: ('A' for Active; 'I' for Inactive)
REMARK    1  A    between atoms: O1_2  and  C2_3 
REMARK    2  A    between atoms: C2_3  and  N1_4 
REMARK    3  A    between atoms: N1_4  and  C3_5 
REMARK    4  A    between atoms: C6_8  and  N2_9 
REMARK    5  A    between atoms: C11_15  and  O2_16 
REMARK    6  A    between atoms: C11_15  and  O3_18 
ROOT
HETATM    1  N2  UNL     1      23.669   2.114  50.938  1.00  0.00    -0.340 N 
HETATM    2  C7  UNL     1      22.482   1.488  50.463  1.00  0.00     0.126 C 
HETATM    3  C8  UNL     1      21.964   1.850  49.323  1.00  0.00     0.102 C 
HETATM    4  N3  UNL     1      22.363   2.925  48.777  1.00  0.00    -0.247 NA
HETATM    5  C9  UNL     1      23.002   3.967  49.527  1.00  0.00     0.064 C 
HETATM    6  C10 UNL     1      22.786   5.243  49.321  1.00  0.00     0.075 C 
HETATM    7  C11 UNL     1      23.521   6.237  50.178  1.00  0.00     0.204 C 
HETATM    8  C14 UNL     1      23.657   5.711  51.542  1.00  0.00     0.044 C 
HETATM    9  C15 UNL     1      23.858   4.414  51.756  1.00  0.00     0.006 C 
HETATM   10  C16 UNL     1      23.945   3.499  50.576  1.00  0.00     0.164 C 
ENDROOT
BRANCH   1  11
HETATM   11  C6  UNL     1      24.610   1.436  51.765  1.00  0.00     0.035 A 
HETATM   12  C5  UNL     1      25.984   1.497  51.523  1.00  0.00     0.032 A 
HETATM   13  C4  UNL     1      26.907   0.840  52.322  1.00  0.00     0.031 A 
HETATM   14  C3  UNL     1      26.424   0.101  53.396  1.00  0.00     0.029 A 
HETATM   15  C18 UNL     1      25.078   0.024  53.658  1.00  0.00     0.031 A 
HETATM   16  C17 UNL     1      24.197   0.686  52.847  1.00  0.00     0.032 A 
BRANCH  14  17
HETATM   17  N1  UNL     1      27.350  -0.598  54.252  1.00  0.00    -0.369 N 
HETATM   18  H6  UNL     1      27.201  -1.617  54.439  1.00  0.00     0.161 HD
BRANCH  17  19
HETATM   19  C2  UNL     1      28.471   0.108  54.844  1.00  0.00     0.289 C 
BRANCH  19  20
HETATM   20  O1  UNL     1      29.620   0.060  54.064  1.00  0.00    -0.377 OA
HETATM   21  C1  UNL     1      29.745  -1.274  53.618  1.00  0.00     0.203 C 
ENDBRANCH  19  20
ENDBRANCH  17  19
ENDBRANCH  14  17
ENDBRANCH   1  11
BRANCH   7  22
HETATM   22  O2  UNL     1      24.748   6.462  49.560  1.00  0.00    -0.353 OA
HETATM   23  C12 UNL     1      25.474   7.381  50.302  1.00  0.00     0.206 C 
ENDBRANCH   7  22
BRANCH   7  24
HETATM   24  O3  UNL     1      22.778   7.411  50.087  1.00  0.00    -0.353 OA
HETATM   25  C13 UNL     1      21.553   7.342  50.746  1.00  0.00     0.206 C 
ENDBRANCH   7  24
TORSDOF 6
ENDMDL
MODEL 8
REMARK VINA RESULT:      -6.8      4.136      8.007
REMARK  6 active torsions:
REMARK  status: ('A' for Active; 'I' for Inactive)
REMARK    1  A    between atoms: O1_2  and  C2_3 
REMARK    2  A    between atoms: C2_3  and  N1_4 
REMARK    3  A    between atoms: N1_4  and  C3_5 
REMARK    4  A    between atoms: C6_8  and  N2_9 
REMARK    5  A    between atoms: C11_15  and  O2_16 
REMARK    6  A    between atoms: C11_15  and  O3_18 
ROOT
HETATM    1  N2  UNL     1      25.091   3.924  49.996  1.00  0.00    -0.340 N 
HETATM    2  C7  UNL     1      26.063   4.762  49.381  1.00  0.00     0.126 C 
HETATM    3  C8  UNL     1      25.705   5.898  48.850  1.00  0.00     0.102 C 
HETATM    4  N3  UNL     1      24.471   6.125  48.652  1.00  0.00    -0.247 NA
HETATM    5  C9  UNL     1      23.508   5.066  48.561  1.00  0.00     0.064 C 
HETATM    6  C10 UNL     1      22.511   5.067  47.711  1.00  0.00     0.075 C 
HETATM    7  C11 UNL     1      21.569   3.894  47.716  1.00  0.00     0.204 C 
HETATM    8  C14 UNL     1      22.316   2.661  47.995  1.00  0.00     0.044 C 
HETATM    9  C15 UNL     1      23.339   2.660  48.844  1.00  0.00     0.006 C 
HETATM   10  C16 UNL     1      23.716   3.944  49.513  1.00  0.00     0.164 C 
ENDROOT
BRANCH   1  11
HETATM   11  C6  UNL     1      25.410   3.055  51.078  1.00  0.00     0.035 A 
HETATM   12  C5  UNL     1      24.679   3.058  52.268  1.00  0.00     0.032 A 
HETATM   13  C4  UNL     1      24.982   2.215  53.327  1.00  0.00     0.031 A 
HETATM   14  C3  UNL     1      26.056   1.345  53.175  1.00  0.00     0.029 A 
HETATM   15  C18 UNL     1      26.792   1.320  52.016  1.00  0.00     0.031 A 
HETATM   16  C17 UNL     1      26.463   2.167  50.992  1.00  0.00     0.032 A 
BRANCH  14  17
HETATM   17  N1  UNL     1      26.405   0.452  54.251  1.00  0.00    -0.369 N 
HETATM   18  H6  UNL     1      25.652  -0.111  54.710  1.00  0.00     0.161 HD
BRANCH  17  19
HETATM   19  C2  UNL     1      27.785   0.341  54.687  1.00  0.00     0.289 C 
BRANCH  19  20
HETATM   20  O1  UNL     1      28.383  -0.855  54.306  1.00  0.00    -0.377 OA
HETATM   21  C1  UNL     1      29.609  -0.510  53.695  1.00  0.00     0.203 C 
ENDBRANCH  19  20
ENDBRANCH  17  19
ENDBRANCH  14  17
ENDBRANCH   1  11
BRANCH   7  22
HETATM   22  O2  UNL     1      20.600   4.169  48.676  1.00  0.00    -0.353 OA
HETATM   23  C12 UNL     1      19.616   3.195  48.626  1.00  0.00     0.206 C 
ENDBRANCH   7  22
BRANCH   7  24
HETATM   24  O3  UNL     1      20.952   3.922  46.469  1.00  0.00    -0.353 OA
HETATM   25  C13 UNL     1      21.848   3.837  45.406  1.00  0.00     0.206 C 
ENDBRANCH   7  24
TORSDOF 6
ENDMDL
MODEL 9
REMARK VINA RESULT:      -6.5      3.739      8.219
REMARK  6 active torsions:
REMARK  status: ('A' for Active; 'I' for Inactive)
REMARK    1  A    between atoms: O1_2  and  C2_3 
REMARK    2  A    between atoms: C2_3  and  N1_4 
REMARK    3  A    between atoms: N1_4  and  C3_5 
REMARK    4  A    between atoms: C6_8  and  N2_9 
REMARK    5  A    between atoms: C11_15  and  O2_16 
REMARK    6  A    between atoms: C11_15  and  O3_18 
ROOT
HETATM    1  N2  UNL     1      22.132   3.241  51.075  1.00  0.00    -0.340 N 
HETATM    2  C7  UNL     1      20.987   3.923  50.575  1.00  0.00     0.126 C 
HETATM    3  C8  UNL     1      19.943   4.090  51.336  1.00  0.00     0.102 C 
HETATM    4  N3  UNL     1      19.850   3.423  52.413  1.00  0.00    -0.247 NA
HETATM    5  C9  UNL     1      20.579   2.204  52.618  1.00  0.00     0.064 C 
HETATM    6  C10 UNL     1      20.078   1.156  53.223  1.00  0.00     0.075 C 
HETATM    7  C11 UNL     1      20.948  -0.062  53.374  1.00  0.00     0.204 C 
HETATM    8  C14 UNL     1      21.794  -0.217  52.183  1.00  0.00     0.044 C 
HETATM    9  C15 UNL     1      22.289   0.845  51.556  1.00  0.00     0.006 C 
HETATM   10  C16 UNL     1      21.967   2.206  52.088  1.00  0.00     0.164 C 
ENDROOT
BRANCH   1  11
HETATM   11  C6  UNL     1      23.451   3.530  50.620  1.00  0.00     0.035 A 
HETATM   12  C5  UNL     1      24.579   2.956  51.210  1.00  0.00     0.032 A 
HETATM   13  C4  UNL     1      25.865   3.231  50.774  1.00  0.00     0.031 A 
HETATM   14  C3  UNL     1      26.013   4.114  49.709  1.00  0.00     0.029 A 
HETATM   15  C18 UNL     1      24.922   4.694  49.110  1.00  0.00     0.031 A 
HETATM   16  C17 UNL     1      23.667   4.397  49.568  1.00  0.00     0.032 A 
BRANCH  14  17
HETATM   17  N1  UNL     1      27.334   4.429  49.224  1.00  0.00    -0.369 N 
HETATM   18  H6  UNL     1      28.117   3.761  49.412  1.00  0.00     0.161 HD
BRANCH  17  19
HETATM   19  C2  UNL     1      27.566   5.656  48.487  1.00  0.00     0.289 C 
BRANCH  19  20
HETATM   20  O1  UNL     1      28.882   5.798  48.062  1.00  0.00    -0.377 OA
HETATM   21  C1  UNL     1      28.947   7.026  47.367  1.00  0.00     0.203 C 
ENDBRANCH  19  20
ENDBRANCH  17  19
ENDBRANCH  14  17
ENDBRANCH   1  11
BRANCH   7  22
HETATM   22  O2  UNL     1      21.684   0.118  54.541  1.00  0.00    -0.353 OA
HETATM   23  C12 UNL     1      22.264  -1.086  54.908  1.00  0.00     0.206 C 
ENDBRANCH   7  22
BRANCH   7  24
HETATM   24  O3  UNL     1      20.061  -1.114  53.588  1.00  0.00    -0.353 OA
HETATM   25  C13 UNL     1      18.768  -0.845  53.148  1.00  0.00     0.206 C 
ENDBRANCH   7  24
TORSDOF 6
ENDMDL
