MODEL 1
REMARK VINA RESULT:      -7.4      0.000      0.000
REMARK  8 active torsions:
REMARK  status: ('A' for Active; 'I' for Inactive)
REMARK    1  A    between atoms: C2_2  and  N1_3 
REMARK    2  A    between atoms: C5_7  and  N3_8 
REMARK    3  A    between atoms: N3_8  and  C6_9 
REMARK    4  A    between atoms: C6_9  and  C7_10 
REMARK    5  A    between atoms: C12_18  and  N5_19 
REMARK    6  A    between atoms: N5_19  and  C13_20 
REMARK    7  A    between atoms: C13_20  and  C14_21 
REMARK    8  A    between atoms: C14_21  and  N6_22 
ROOT
HETATM    1  N1  UNL     1      23.233   0.016  53.297  1.00  0.00    -0.324 N 
HETATM    2  C3  UNL     1      22.666   0.786  52.359  1.00  0.00     0.212 A 
HETATM    3  N2  UNL     1      23.590   1.430  51.616  1.00  0.00    -0.236 NA
HETATM    4  C4  UNL     1      24.823   1.089  52.060  1.00  0.00     0.150 A 
HETATM    5  C5  UNL     1      26.183   1.366  51.770  1.00  0.00     0.176 A 
HETATM    6  N4  UNL     1      27.130   0.774  52.503  1.00  0.00    -0.043 NA
HETATM    7  C12 UNL     1      26.865  -0.069  53.500  1.00  0.00     0.726 A 
HETATM    8  N7  UNL     1      25.582  -0.308  53.748  1.00  0.00    -0.042 NA
HETATM    9  C15 UNL     1      24.566   0.221  53.089  1.00  0.00     0.182 A 
ENDROOT
BRANCH   5  10
HETATM   10  N3  UNL     1      26.203   2.274  50.695  1.00  0.00    -0.368 N 
HETATM   11  H7  UNL     1      26.599   1.553  49.997  1.00  0.00     0.161 HD
BRANCH  10  12
HETATM   12  C6  UNL     1      26.225   3.175  49.627  1.00  0.00     0.159 C 
BRANCH  12  13
HETATM   13  C7  UNL     1      25.734   4.553  49.985  1.00  0.00    -0.017 A 
HETATM   14  C8  UNL     1      26.352   5.633  49.476  1.00  0.00     0.042 A 
HETATM   15 CL1  UNL     1      27.724   5.535  48.399  1.00  0.00    -0.084 Cl
HETATM   16  C9  UNL     1      25.835   6.940  49.838  1.00  0.00     0.048 A 
HETATM   17  C10 UNL     1      24.793   7.042  50.639  1.00  0.00     0.136 A 
HETATM   18  O1  UNL     1      24.147   5.942  51.169  1.00  0.00    -0.359 OA
HETATM   19  C11 UNL     1      24.569   4.638  50.891  1.00  0.00     0.212 A 
ENDBRANCH  12  13
ENDBRANCH  10  12
ENDBRANCH   5  10
BRANCH   7  20
HETATM   20  N5  UNL     1      27.980  -0.615  54.181  1.00  0.00    -0.221 N 
HETATM   21  H14 UNL     1      27.981  -0.868  55.173  1.00  0.00     0.177 HD
BRANCH  20  22
HETATM   22  C13 UNL     1      29.168  -0.817  53.422  1.00  0.00     0.168 C 
BRANCH  22  23
HETATM   23  C14 UNL     1      29.599  -2.263  53.459  1.00  0.00     0.286 C 
BRANCH  23  24
HETATM   24  N6  UNL     1      28.496  -3.134  53.145  1.00  0.00     0.079 N 
HETATM   25  H19 UNL     1      28.781  -4.111  53.371  1.00  0.00     0.312 HD
HETATM   26  H20 UNL     1      28.231  -3.114  52.146  1.00  0.00     0.312 HD
ENDBRANCH  23  24
ENDBRANCH  22  23
ENDBRANCH  20  22
ENDBRANCH   7  20
BRANCH   1  27
HETATM   27  C2  UNL     1      22.665  -0.825  54.315  1.00  0.00     0.127 C 
HETATM   28  C1  UNL     1      21.298  -0.314  54.697  1.00  0.00     0.027 C 
ENDBRANCH   1  27
TORSDOF 8
ENDMDL
MODEL 2
REMARK VINA RESULT:      -7.3      2.057      2.427
REMARK  8 active torsions:
REMARK  status: ('A' for Active; 'I' for Inactive)
REMARK    1  A    between atoms: C2_2  and  N1_3 
REMARK    2  A    between atoms: C5_7  and  N3_8 
REMARK    3  A    between atoms: N3_8  and  C6_9 
REMARK    4  A    between atoms: C6_9  and  C7_10 
REMARK    5  A    between atoms: C12_18  and  N5_19 
REMARK    6  A    between atoms: N5_19  and  C13_20 
REMARK    7  A    between atoms: C13_20  and  C14_21 
REMARK    8  A    between atoms: C14_21  and  N6_22 
ROOT
HETATM    1  N1  UNL     1      22.747  -0.060  52.764  1.00  0.00    -0.324 N 
HETATM    2  C3  UNL     1      22.078   0.636  51.836  1.00  0.00     0.212 A 
HETATM    3  N2  UNL     1      22.744   1.753  51.473  1.00  0.00    -0.236 NA
HETATM    4  C4  UNL     1      23.900   1.820  52.175  1.00  0.00     0.150 A 
HETATM    5  C5  UNL     1      25.029   2.667  52.305  1.00  0.00     0.176 A 
HETATM    6  N4  UNL     1      25.992   2.328  53.167  1.00  0.00    -0.043 NA
HETATM    7  C12 UNL     1      25.949   1.228  53.917  1.00  0.00     0.726 A 
HETATM    8  N7  UNL     1      24.878   0.455  53.774  1.00  0.00    -0.042 NA
HETATM    9  C15 UNL     1      23.869   0.693  52.954  1.00  0.00     0.182 A 
ENDROOT
BRANCH   5  10
HETATM   10  N3  UNL     1      24.842   3.749  51.424  1.00  0.00    -0.368 N 
HETATM   11  H7  UNL     1      23.830   3.933  51.747  1.00  0.00     0.161 HD
BRANCH  10  12
HETATM   12  C6  UNL     1      24.657   4.823  50.550  1.00  0.00     0.159 C 
BRANCH  12  13
HETATM   13  C7  UNL     1      25.878   5.165  49.739  1.00  0.00    -0.017 A 
HETATM   14  C8  UNL     1      26.105   6.441  49.383  1.00  0.00     0.042 A 
HETATM   15 CL1  UNL     1      25.043   7.761  49.813  1.00  0.00    -0.084 Cl
HETATM   16  C9  UNL     1      27.302   6.726  48.614  1.00  0.00     0.048 A 
HETATM   17  C10 UNL     1      28.127   5.750  48.287  1.00  0.00     0.136 A 
HETATM   18  O1  UNL     1      27.908   4.435  48.645  1.00  0.00    -0.359 OA
HETATM   19  C11 UNL     1      26.782   4.052  49.380  1.00  0.00     0.212 A 
ENDBRANCH  12  13
ENDBRANCH  10  12
ENDBRANCH   5  10
BRANCH   7  20
HETATM   20  N5  UNL     1      27.048   1.008  54.782  1.00  0.00    -0.221 N 
HETATM   21  H14 UNL     1      27.174   1.477  55.683  1.00  0.00     0.177 HD
BRANCH  20  22
HETATM   22  C13 UNL     1      28.032   0.072  54.354  1.00  0.00     0.168 C 
BRANCH  22  23
HETATM   23  C14 UNL     1      29.313   0.768  53.964  1.00  0.00     0.286 C 
BRANCH  23  24
HETATM   24  N6  UNL     1      29.231   2.181  54.232  1.00  0.00     0.079 N 
HETATM   25  H19 UNL     1      28.442   2.338  54.896  1.00  0.00     0.312 HD
HETATM   26  H20 UNL     1      29.041   2.747  53.388  1.00  0.00     0.312 HD
ENDBRANCH  23  24
ENDBRANCH  22  23
ENDBRANCH  20  22
ENDBRANCH   7  20
BRANCH   1  27
HETATM   27  C2  UNL     1      22.432  -1.281  53.454  1.00  0.00     0.127 C 
HETATM   28  C1  UNL     1      21.539  -0.987  54.635  1.00  0.00     0.027 C 
ENDBRANCH   1  27
TORSDOF 8
ENDMDL
MODEL 3
REMARK VINA RESULT:      -7.0      1.387      1.506
REMARK  8 active torsions:
REMARK  status: ('A' for Active; 'I' for Inactive)
REMARK    1  A    between atoms: C2_2  and  N1_3 
REMARK    2  A    between atoms: C5_7  and  N3_8 
REMARK    3  A    between atoms: N3_8  and  C6_9 
REMARK    4  A    between atoms: C6_9  and  C7_10 
REMARK    5  A    between atoms: C12_18  and  N5_19 
REMARK    6  A    between atoms: N5_19  and  C13_20 
REMARK    7  A    between atoms: C13_20  and  C14_21 
REMARK    8  A    between atoms: C14_21  and  N6_22 
ROOT
HETATM    1  N1  UNL     1      23.941   0.835  52.575  1.00  0.00    -0.324 N 
HETATM    2  C3  UNL     1      23.403   1.383  51.477  1.00  0.00     0.212 A 
HETATM    3  N2  UNL     1      24.285   2.175  50.830  1.00  0.00    -0.236 NA
HETATM    4  C4  UNL     1      25.458   2.166  51.507  1.00  0.00     0.150 A 
HETATM    5  C5  UNL     1      26.752   2.735  51.418  1.00  0.00     0.176 A 
HETATM    6  N4  UNL     1      27.653   2.436  52.358  1.00  0.00    -0.043 NA
HETATM    7  C12 UNL     1      27.399   1.625  53.384  1.00  0.00     0.726 A 
HETATM    8  N7  UNL     1      26.177   1.108  53.441  1.00  0.00    -0.042 NA
HETATM    9  C15 UNL     1      25.211   1.334  52.568  1.00  0.00     0.182 A 
ENDROOT
BRANCH   5  10
HETATM   10  N3  UNL     1      26.773   3.546  50.268  1.00  0.00    -0.368 N 
HETATM   11  H7  UNL     1      27.364   4.319  50.733  1.00  0.00     0.161 HD
BRANCH  10  12
HETATM   12  C6  UNL     1      26.793   4.352  49.126  1.00  0.00     0.159 C 
BRANCH  12  13
HETATM   13  C7  UNL     1      26.259   5.741  49.353  1.00  0.00    -0.017 A 
HETATM   14  C8  UNL     1      26.881   6.793  48.792  1.00  0.00     0.042 A 
HETATM   15 CL1  UNL     1      28.307   6.644  47.793  1.00  0.00    -0.084 Cl
HETATM   16  C9  UNL     1      26.323   8.111  49.027  1.00  0.00     0.048 A 
HETATM   17  C10 UNL     1      25.241   8.251  49.768  1.00  0.00     0.136 A 
HETATM   18  O1  UNL     1      24.591   7.180  50.349  1.00  0.00    -0.359 OA
HETATM   19  C11 UNL     1      25.049   5.869  50.192  1.00  0.00     0.212 A 
ENDBRANCH  12  13
ENDBRANCH  10  12
ENDBRANCH   5  10
BRANCH   7  20
HETATM   20  N5  UNL     1      28.460   1.407  54.296  1.00  0.00    -0.221 N 
HETATM   21  H14 UNL     1      29.115   2.132  54.601  1.00  0.00     0.177 HD
BRANCH  20  22
HETATM   22  C13 UNL     1      28.611   0.088  54.811  1.00  0.00     0.168 C 
BRANCH  22  23
HETATM   23  C14 UNL     1      29.109  -0.860  53.748  1.00  0.00     0.286 C 
BRANCH  23  24
HETATM   24  N6  UNL     1      28.061  -1.754  53.328  1.00  0.00     0.079 N 
HETATM   25  H19 UNL     1      27.733  -1.450  52.386  1.00  0.00     0.312 HD
HETATM   26  H20 UNL     1      27.240  -1.746  53.957  1.00  0.00     0.312 HD
ENDBRANCH  23  24
ENDBRANCH  22  23
ENDBRANCH  20  22
ENDBRANCH   7  20
BRANCH   1  27
HETATM   27  C2  UNL     1      23.392  -0.044  53.570  1.00  0.00     0.127 C 
HETATM   28  C1  UNL     1      21.934   0.276  53.789  1.00  0.00     0.027 C 
ENDBRANCH   1  27
TORSDOF 8
ENDMDL
MODEL 4
REMARK VINA RESULT:      -6.9      1.879      4.545
REMARK  8 active torsions:
REMARK  status: ('A' for Active; 'I' for Inactive)
REMARK    1  A    between atoms: C2_2  and  N1_3 
REMARK    2  A    between atoms: C5_7  and  N3_8 
REMARK    3  A    between atoms: N3_8  and  C6_9 
REMARK    4  A    between atoms: C6_9  and  C7_10 
REMARK    5  A    between atoms: C12_18  and  N5_19 
REMARK    6  A    between atoms: N5_19  and  C13_20 
REMARK    7  A    between atoms: C13_20  and  C14_21 
REMARK    8  A    between atoms: C14_21  and  N6_22 
ROOT
HETATM    1  N1  UNL     1      27.843   0.765  53.824  1.00  0.00    -0.324 N 
HETATM    2  C3  UNL     1      28.224   1.862  53.156  1.00  0.00     0.212 A 
HETATM    3  N2  UNL     1      27.173   2.487  52.583  1.00  0.00    -0.236 NA
HETATM    4  C4  UNL     1      26.045   1.796  52.868  1.00  0.00     0.150 A 
HETATM    5  C5  UNL     1      24.653   1.862  52.612  1.00  0.00     0.176 A 
HETATM    6  N4  UNL     1      23.859   0.915  53.119  1.00  0.00    -0.043 NA
HETATM    7  C12 UNL     1      24.308  -0.097  53.860  1.00  0.00     0.726 A 
HETATM    8  N7  UNL     1      25.618  -0.133  54.082  1.00  0.00    -0.042 NA
HETATM    9  C15 UNL     1      26.493   0.749  53.631  1.00  0.00     0.182 A 
ENDROOT
BRANCH   5  10
HETATM   10  N3  UNL     1      24.428   3.001  51.816  1.00  0.00    -0.368 N 
HETATM   11  H7  UNL     1      24.067   3.597  52.640  1.00  0.00     0.161 HD
BRANCH  10  12
HETATM   12  C6  UNL     1      24.205   4.133  51.027  1.00  0.00     0.159 C 
BRANCH  12  13
HETATM   13  C7  UNL     1      25.377   4.508  50.159  1.00  0.00    -0.017 A 
HETATM   14  C8  UNL     1      25.609   5.803  49.878  1.00  0.00     0.042 A 
HETATM   15 CL1  UNL     1      24.611   7.108  50.473  1.00  0.00    -0.084 Cl
HETATM   16  C9  UNL     1      26.758   6.118  49.049  1.00  0.00     0.048 A 
HETATM   17  C10 UNL     1      27.534   5.153  48.598  1.00  0.00     0.136 A 
HETATM   18  O1  UNL     1      27.309   3.820  48.877  1.00  0.00    -0.359 OA
HETATM   19  C11 UNL     1      26.227   3.407  49.660  1.00  0.00     0.212 A 
ENDBRANCH  12  13
ENDBRANCH  10  12
ENDBRANCH   5  10
BRANCH   7  20
HETATM   20  N5  UNL     1      23.340  -1.019  54.326  1.00  0.00    -0.221 N 
HETATM   21  H14 UNL     1      23.374  -1.476  55.242  1.00  0.00     0.177 HD
BRANCH  20  22
HETATM   22  C13 UNL     1      22.258  -1.320  53.451  1.00  0.00     0.168 C 
BRANCH  22  23
HETATM   23  C14 UNL     1      20.929  -1.136  54.144  1.00  0.00     0.286 C 
BRANCH  23  24
HETATM   24  N6  UNL     1      20.900   0.107  54.872  1.00  0.00     0.079 N 
HETATM   25  H19 UNL     1      19.927   0.480  54.837  1.00  0.00     0.312 HD
HETATM   26  H20 UNL     1      21.522   0.830  54.473  1.00  0.00     0.312 HD
ENDBRANCH  23  24
ENDBRANCH  22  23
ENDBRANCH  20  22
ENDBRANCH   7  20
BRANCH   1  27
HETATM   27  C2  UNL     1      28.595  -0.213  54.562  1.00  0.00     0.127 C 
HETATM   28  C1  UNL     1      29.741  -0.721  53.722  1.00  0.00     0.027 C 
ENDBRANCH   1  27
TORSDOF 8
ENDMDL
MODEL 5
REMARK VINA RESULT:      -6.9      2.867      6.035
REMARK  8 active torsions:
REMARK  status: ('A' for Active; 'I' for Inactive)
REMARK    1  A    between atoms: C2_2  and  N1_3 
REMARK    2  A    between atoms: C5_7  and  N3_8 
REMARK    3  A    between atoms: N3_8  and  C6_9 
REMARK    4  A    between atoms: C6_9  and  C7_10 
REMARK    5  A    between atoms: C12_18  and  N5_19 
REMARK    6  A    between atoms: N5_19  and  C13_20 
REMARK    7  A    between atoms: C13_20  and  C14_21 
REMARK    8  A    between atoms: C14_21  and  N6_22 
ROOT
HETATM    1  N1  UNL     1      27.598   0.614  53.277  1.00  0.00    -0.324 N 
HETATM    2  C3  UNL     1      26.690  -0.228  53.789  1.00  0.00     0.212 A 
HETATM    3  N2  UNL     1      25.459  -0.005  53.281  1.00  0.00    -0.236 NA
HETATM    4  C4  UNL     1      25.530   1.018  52.398  1.00  0.00     0.150 A 
HETATM    5  C5  UNL     1      24.678   1.753  51.536  1.00  0.00     0.176 A 
HETATM    6  N4  UNL     1      25.200   2.737  50.799  1.00  0.00    -0.043 NA
HETATM    7  C12 UNL     1      26.491   3.069  50.830  1.00  0.00     0.726 A 
HETATM    8  N7  UNL     1      27.264   2.363  51.648  1.00  0.00    -0.042 NA
HETATM    9  C15 UNL     1      26.854   1.372  52.420  1.00  0.00     0.182 A 
ENDROOT
BRANCH   5  10
HETATM   10  N3  UNL     1      23.382   1.225  51.682  1.00  0.00    -0.368 N 
HETATM   11  H7  UNL     1      23.421   0.674  50.756  1.00  0.00     0.161 HD
BRANCH  10  12
HETATM   12  C6  UNL     1      22.094   0.700  51.827  1.00  0.00     0.159 C 
BRANCH  12  13
HETATM   13  C7  UNL     1      20.998   1.687  51.523  1.00  0.00    -0.017 A 
HETATM   14  C8  UNL     1      20.599   1.868  50.252  1.00  0.00     0.042 A 
HETATM   15 CL1  UNL     1      21.292   1.010  48.897  1.00  0.00    -0.084 Cl
HETATM   16  C9  UNL     1      19.531   2.819  50.009  1.00  0.00     0.048 A 
HETATM   17  C10 UNL     1      18.983   3.472  51.015  1.00  0.00     0.136 A 
HETATM   18  O1  UNL     1      19.381   3.296  52.325  1.00  0.00    -0.359 OA
HETATM   19  C11 UNL     1      20.406   2.410  52.668  1.00  0.00     0.212 A 
ENDBRANCH  12  13
ENDBRANCH  10  12
ENDBRANCH   5  10
BRANCH   7  20
HETATM   20  N5  UNL     1      26.890   4.135  49.989  1.00  0.00    -0.221 N 
HETATM   21  H14 UNL     1      27.864   4.413  49.835  1.00  0.00     0.177 HD
BRANCH  20  22
HETATM   22  C13 UNL     1      25.859   4.856  49.322  1.00  0.00     0.168 C 
BRANCH  22  23
HETATM   23  C14 UNL     1      26.228   6.311  49.160  1.00  0.00     0.286 C 
BRANCH  23  24
HETATM   24  N6  UNL     1      26.148   7.003  50.421  1.00  0.00     0.079 N 
HETATM   25  H19 UNL     1      25.640   6.389  51.095  1.00  0.00     0.312 HD
HETATM   26  H20 UNL     1      25.628   7.895  50.366  1.00  0.00     0.312 HD
ENDBRANCH  23  24
ENDBRANCH  22  23
ENDBRANCH  20  22
ENDBRANCH   7  20
BRANCH   1  27
HETATM   27  C2  UNL     1      29.005   0.767  53.524  1.00  0.00     0.127 C 
HETATM   28  C1  UNL     1      29.637  -0.586  53.745  1.00  0.00     0.027 C 
ENDBRANCH   1  27
TORSDOF 8
ENDMDL
MODEL 6
REMARK VINA RESULT:      -6.9      3.245      6.085
REMARK  8 active torsions:
REMARK  status: ('A' for Active; 'I' for Inactive)
REMARK    1  A    between atoms: C2_2  and  N1_3 
REMARK    2  A    between atoms: C5_7  and  N3_8 
REMARK    3  A    between atoms: N3_8  and  C6_9 
REMARK    4  A    between atoms: C6_9  and  C7_10 
REMARK    5  A    between atoms: C12_18  and  N5_19 
REMARK    6  A    between atoms: N5_19  and  C13_20 
REMARK    7  A    between atoms: C13_20  and  C14_21 
REMARK    8  A    between atoms: C14_21  and  N6_22 
ROOT
HETATM    1  N1  UNL     1      20.526  -0.483  53.430  1.00  0.00    -0.324 N 
HETATM    2  C3  UNL     1      21.238  -1.468  53.993  1.00  0.00     0.212 A 
HETATM    3  N2  UNL     1      22.564  -1.300  53.798  1.00  0.00    -0.236 NA
HETATM    4  C4  UNL     1      22.759  -0.168  53.080  1.00  0.00     0.150 A 
HETATM    5  C5  UNL     1      23.829   0.585  52.537  1.00  0.00     0.176 A 
HETATM    6  N4  UNL     1      23.551   1.704  51.862  1.00  0.00    -0.043 NA
HETATM    7  C12 UNL     1      22.311   2.154  51.670  1.00  0.00     0.726 A 
HETATM    8  N7  UNL     1      21.330   1.426  52.191  1.00  0.00    -0.042 NA
HETATM    9  C15 UNL     1      21.490   0.306  52.875  1.00  0.00     0.182 A 
ENDROOT
BRANCH   5  10
HETATM   10  N3  UNL     1      25.022  -0.087  52.864  1.00  0.00    -0.368 N 
HETATM   11  H7  UNL     1      25.465   0.775  53.338  1.00  0.00     0.161 HD
BRANCH  10  12
HETATM   12  C6  UNL     1      26.206  -0.753  53.189  1.00  0.00     0.159 C 
BRANCH  12  13
HETATM   13  C7  UNL     1      27.341   0.166  53.554  1.00  0.00    -0.017 A 
HETATM   14  C8  UNL     1      28.596  -0.313  53.606  1.00  0.00     0.042 A 
HETATM   15 CL1  UNL     1      29.002  -1.979  53.270  1.00  0.00    -0.084 Cl
HETATM   16  C9  UNL     1      29.659   0.613  53.948  1.00  0.00     0.048 A 
HETATM   17  C10 UNL     1      29.382   1.878  54.195  1.00  0.00     0.136 A 
HETATM   18  O1  UNL     1      28.099   2.385  54.144  1.00  0.00    -0.359 OA
HETATM   19  C11 UNL     1      27.002   1.578  53.832  1.00  0.00     0.212 A 
ENDBRANCH  12  13
ENDBRANCH  10  12
ENDBRANCH   5  10
BRANCH   7  20
HETATM   20  N5  UNL     1      22.181   3.357  50.934  1.00  0.00    -0.221 N 
HETATM   21  H14 UNL     1      22.213   3.412  49.912  1.00  0.00     0.177 HD
BRANCH  20  22
HETATM   22  C13 UNL     1      21.996   4.556  51.679  1.00  0.00     0.168 C 
BRANCH  22  23
HETATM   23  C14 UNL     1      23.292   5.315  51.823  1.00  0.00     0.286 C 
BRANCH  23  24
HETATM   24  N6  UNL     1      23.763   5.269  53.184  1.00  0.00     0.079 N 
HETATM   25  H19 UNL     1      22.934   5.193  53.811  1.00  0.00     0.312 HD
HETATM   26  H20 UNL     1      24.286   6.116  53.465  1.00  0.00     0.312 HD
ENDBRANCH  23  24
ENDBRANCH  22  23
ENDBRANCH  20  22
ENDBRANCH   7  20
BRANCH   1  27
HETATM   27  C2  UNL     1      19.110  -0.248  53.360  1.00  0.00     0.127 C 
HETATM   28  C1  UNL     1      18.368  -1.560  53.438  1.00  0.00     0.027 C 
ENDBRANCH   1  27
TORSDOF 8
ENDMDL
MODEL 7
REMARK VINA RESULT:      -6.8      1.465      4.301
REMARK  8 active torsions:
REMARK  status: ('A' for Active; 'I' for Inactive)
REMARK    1  A    between atoms: C2_2  and  N1_3 
REMARK    2  A    between atoms: C5_7  and  N3_8 
REMARK    3  A    between atoms: N3_8  and  C6_9 
REMARK    4  A    between atoms: C6_9  and  C7_10 
REMARK    5  A    between atoms: C12_18  and  N5_19 
REMARK    6  A    between atoms: N5_19  and  C13_20 
REMARK    7  A    between atoms: C13_20  and  C14_21 
REMARK    8  A    between atoms: C14_21  and  N6_22 
ROOT
HETATM    1  N1  UNL     1      27.632   1.050  53.632  1.00  0.00    -0.324 N 
HETATM    2  C3  UNL     1      28.060   1.966  52.753  1.00  0.00     0.212 A 
HETATM    3  N2  UNL     1      27.076   2.347  51.911  1.00  0.00    -0.236 NA
HETATM    4  C4  UNL     1      25.946   1.670  52.225  1.00  0.00     0.150 A 
HETATM    5  C5  UNL     1      24.601   1.567  51.789  1.00  0.00     0.176 A 
HETATM    6  N4  UNL     1      23.782   0.725  52.424  1.00  0.00    -0.043 NA
HETATM    7  C12 UNL     1      24.162  -0.030  53.453  1.00  0.00     0.726 A 
HETATM    8  N7  UNL     1      25.428   0.087  53.838  1.00  0.00    -0.042 NA
HETATM    9  C15 UNL     1      26.323   0.887  53.284  1.00  0.00     0.182 A 
ENDROOT
BRANCH   5  10
HETATM   10  N3  UNL     1      24.447   2.447  50.701  1.00  0.00    -0.368 N 
HETATM   11  H7  UNL     1      25.303   3.046  50.968  1.00  0.00     0.161 HD
BRANCH  10  12
HETATM   12  C6  UNL     1      24.293   3.322  49.622  1.00  0.00     0.159 C 
BRANCH  12  13
HETATM   13  C7  UNL     1      24.479   4.771  49.983  1.00  0.00    -0.017 A 
HETATM   14  C8  UNL     1      25.646   5.380  49.710  1.00  0.00     0.042 A 
HETATM   15 CL1  UNL     1      26.994   4.574  48.945  1.00  0.00    -0.084 Cl
HETATM   16  C9  UNL     1      25.775   6.782  50.063  1.00  0.00     0.048 A 
HETATM   17  C10 UNL     1      24.769   7.418  50.631  1.00  0.00     0.136 A 
HETATM   18  O1  UNL     1      23.565   6.806  50.916  1.00  0.00    -0.359 OA
HETATM   19  C11 UNL     1      23.338   5.458  50.624  1.00  0.00     0.212 A 
ENDBRANCH  12  13
ENDBRANCH  10  12
ENDBRANCH   5  10
BRANCH   7  20
HETATM   20  N5  UNL     1      23.175  -0.872  54.020  1.00  0.00    -0.221 N 
HETATM   21  H14 UNL     1      23.331  -1.478  54.831  1.00  0.00     0.177 HD
BRANCH  20  22
HETATM   22  C13 UNL     1      21.888  -0.863  53.411  1.00  0.00     0.168 C 
BRANCH  22  23
HETATM   23  C14 UNL     1      20.871  -1.569  54.274  1.00  0.00     0.286 C 
BRANCH  23  24
HETATM   24  N6  UNL     1      19.534  -1.152  53.934  1.00  0.00     0.079 N 
HETATM   25  H19 UNL     1      19.496  -0.111  53.989  1.00  0.00     0.312 HD
HETATM   26  H20 UNL     1      18.814  -1.521  54.578  1.00  0.00     0.312 HD
ENDBRANCH  23  24
ENDBRANCH  22  23
ENDBRANCH  20  22
ENDBRANCH   7  20
BRANCH   1  27
HETATM   27  C2  UNL     1      28.310   0.349  54.688  1.00  0.00     0.127 C 
HETATM   28  C1  UNL     1      29.456  -0.452  54.119  1.00  0.00     0.027 C 
ENDBRANCH   1  27
TORSDOF 8
ENDMDL
MODEL 8
REMARK VINA RESULT:      -6.5      3.545      6.014
REMARK  8 active torsions:
REMARK  status: ('A' for Active; 'I' for Inactive)
REMARK    1  A    between atoms: C2_2  and  N1_3 
REMARK    2  A    between atoms: C5_7  and  N3_8 
REMARK    3  A    between atoms: N3_8  and  C6_9 
REMARK    4  A    between atoms: C6_9  and  C7_10 
REMARK    5  A    between atoms: C12_18  and  N5_19 
REMARK    6  A    between atoms: N5_19  and  C13_20 
REMARK    7  A    between atoms: C13_20  and  C14_21 
REMARK    8  A    between atoms: C14_21  and  N6_22 
ROOT
HETATM    1  N1  UNL     1      25.296   2.856  51.138  1.00  0.00    -0.324 N 
HETATM    2  C3  UNL     1      24.080   3.416  51.093  1.00  0.00     0.212 A 
HETATM    3  N2  UNL     1      23.177   2.708  51.804  1.00  0.00    -0.236 NA
HETATM    4  C4  UNL     1      23.797   1.634  52.349  1.00  0.00     0.150 A 
HETATM    5  C5  UNL     1      23.488   0.519  53.169  1.00  0.00     0.176 A 
HETATM    6  N4  UNL     1      24.463  -0.340  53.479  1.00  0.00    -0.043 NA
HETATM    7  C12 UNL     1      25.719  -0.206  53.057  1.00  0.00     0.726 A 
HETATM    8  N7  UNL     1      25.977   0.847  52.290  1.00  0.00    -0.042 NA
HETATM    9  C15 UNL     1      25.093   1.758  51.922  1.00  0.00     0.182 A 
ENDROOT
BRANCH   5  10
HETATM   10  N3  UNL     1      22.117   0.595  53.478  1.00  0.00    -0.368 N 
HETATM   11  H7  UNL     1      22.286   0.993  54.466  1.00  0.00     0.161 HD
BRANCH  10  12
HETATM   12  C6  UNL     1      20.756   0.670  53.785  1.00  0.00     0.159 C 
BRANCH  12  13
HETATM   13  C7  UNL     1      19.859   0.664  52.576  1.00  0.00    -0.017 A 
HETATM   14  C8  UNL     1      18.953  -0.317  52.424  1.00  0.00     0.042 A 
HETATM   15 CL1  UNL     1      18.747  -1.619  53.571  1.00  0.00    -0.084 Cl
HETATM   16  C9  UNL     1      18.100  -0.274  51.250  1.00  0.00     0.048 A 
HETATM   17  C10 UNL     1      18.227   0.703  50.375  1.00  0.00     0.136 A 
HETATM   18  O1  UNL     1      19.152   1.718  50.517  1.00  0.00    -0.359 OA
HETATM   19  C11 UNL     1      20.026   1.768  51.607  1.00  0.00     0.212 A 
ENDBRANCH  12  13
ENDBRANCH  10  12
ENDBRANCH   5  10
BRANCH   7  20
HETATM   20  N5  UNL     1      26.636  -1.201  53.474  1.00  0.00    -0.221 N 
HETATM   21  H14 UNL     1      26.374  -2.046  53.989  1.00  0.00     0.177 HD
BRANCH  20  22
HETATM   22  C13 UNL     1      28.007  -0.997  53.147  1.00  0.00     0.168 C 
BRANCH  22  23
HETATM   23  C14 UNL     1      28.711  -0.202  54.219  1.00  0.00     0.286 C 
BRANCH  23  24
HETATM   24  N6  UNL     1      29.762   0.604  53.651  1.00  0.00     0.079 N 
HETATM   25  H19 UNL     1      29.951   0.256  52.686  1.00  0.00     0.312 HD
HETATM   26  H20 UNL     1      30.650   0.549  54.178  1.00  0.00     0.312 HD
ENDBRANCH  23  24
ENDBRANCH  22  23
ENDBRANCH  20  22
ENDBRANCH   7  20
BRANCH   1  27
HETATM   27  C2  UNL     1      26.544   3.232  50.532  1.00  0.00     0.127 C 
HETATM   28  C1  UNL     1      26.295   4.204  49.405  1.00  0.00     0.027 C 
ENDBRANCH   1  27
TORSDOF 8
ENDMDL
MODEL 9
REMARK VINA RESULT:      -6.4      3.425      7.691
REMARK  8 active torsions:
REMARK  status: ('A' for Active; 'I' for Inactive)
REMARK    1  A    between atoms: C2_2  and  N1_3 
REMARK    2  A    between atoms: C5_7  and  N3_8 
REMARK    3  A    between atoms: N3_8  and  C6_9 
REMARK    4  A    between atoms: C6_9  and  C7_10 
REMARK    5  A    between atoms: C12_18  and  N5_19 
REMARK    6  A    between atoms: N5_19  and  C13_20 
REMARK    7  A    between atoms: C13_20  and  C14_21 
REMARK    8  A    between atoms: C14_21  and  N6_22 
ROOT
HETATM    1  N1  UNL     1      26.022   5.117  49.221  1.00  0.00    -0.324 N 
HETATM    2  C3  UNL     1      26.933   4.141  49.330  1.00  0.00     0.212 A 
HETATM    3  N2  UNL     1      26.520   3.164  50.165  1.00  0.00    -0.236 NA
HETATM    4  C4  UNL     1      25.292   3.484  50.638  1.00  0.00     0.150 A 
HETATM    5  C5  UNL     1      24.306   2.955  51.507  1.00  0.00     0.176 A 
HETATM    6  N4  UNL     1      23.176   3.643  51.694  1.00  0.00    -0.043 NA
HETATM    7  C12 UNL     1      22.924   4.810  51.103  1.00  0.00     0.726 A 
HETATM    8  N7  UNL     1      23.867   5.280  50.294  1.00  0.00    -0.042 NA
HETATM    9  C15 UNL     1      25.018   4.685  50.037  1.00  0.00     0.182 A 
ENDROOT
BRANCH   5  10
HETATM   10  N3  UNL     1      24.800   1.735  52.006  1.00  0.00    -0.368 N 
HETATM   11  H7  UNL     1      25.384   2.203  52.782  1.00  0.00     0.161 HD
BRANCH  10  12
HETATM   12  C6  UNL     1      25.292   0.524  52.501  1.00  0.00     0.159 C 
BRANCH  12  13
HETATM   13  C7  UNL     1      26.669   0.626  53.100  1.00  0.00    -0.017 A 
HETATM   14  C8  UNL     1      27.459  -0.461  53.143  1.00  0.00     0.042 A 
HETATM   15 CL1  UNL     1      26.974  -2.024  52.533  1.00  0.00    -0.084 Cl
HETATM   16  C9  UNL     1      28.783  -0.311  53.718  1.00  0.00     0.048 A 
HETATM   17  C10 UNL     1      29.179   0.860  54.175  1.00  0.00     0.136 A 
HETATM   18  O1  UNL     1      28.380   1.986  54.137  1.00  0.00    -0.359 OA
HETATM   19  C11 UNL     1      27.084   1.949  53.612  1.00  0.00     0.212 A 
ENDBRANCH  12  13
ENDBRANCH  10  12
ENDBRANCH   5  10
BRANCH   7  20
HETATM   20  N5  UNL     1      21.679   5.415  51.403  1.00  0.00    -0.221 N 
HETATM   21  H14 UNL     1      21.576   6.294  51.917  1.00  0.00     0.177 HD
BRANCH  20  22
HETATM   22  C13 UNL     1      20.507   4.744  50.952  1.00  0.00     0.168 C 
BRANCH  22  23
HETATM   23  C14 UNL     1      19.996   5.343  49.664  1.00  0.00     0.286 C 
BRANCH  23  24
HETATM   24  N6  UNL     1      18.619   5.743  49.797  1.00  0.00     0.079 N 
HETATM   25  H19 UNL     1      18.530   6.316  50.664  1.00  0.00     0.312 HD
HETATM   26  H20 UNL     1      17.968   4.945  49.888  1.00  0.00     0.312 HD
ENDBRANCH  23  24
ENDBRANCH  22  23
ENDBRANCH  20  22
ENDBRANCH   7  20
BRANCH   1  27
HETATM   27  C2  UNL     1      26.025   6.347  48.477  1.00  0.00     0.127 C 
HETATM   28  C1  UNL     1      27.442   6.736  48.134  1.00  0.00     0.027 C 
ENDBRANCH   1  27
TORSDOF 8
ENDMDL
