MODEL 1
REMARK VINA RESULT:      -8.5      0.000      0.000
REMARK  5 active torsions:
REMARK  status: ('A' for Active; 'I' for Inactive)
REMARK    1  A    between atoms: C3_3  and  C4_4 
REMARK    2  A    between atoms: C4_4  and  N1_5 
REMARK    3  A    between atoms: C13_16  and  O2_17 
REMARK    4  A    between atoms: O2_17  and  C14_18 
REMARK    5  A    between atoms: C14_18  and  C15_19 
ROOT
HETATM    1  C1  UNL     1      22.966   3.887  48.302  1.00  0.00     0.044 C 
HETATM    2  C2  UNL     1      23.219   2.994  49.514  1.00  0.00    -0.063 A 
HETATM    3  C3  UNL     1      22.071   2.388  49.904  1.00  0.00     0.025 A 
HETATM    4  C7  UNL     1      21.749   1.436  50.986  1.00  0.00     0.206 A 
HETATM    5  O1  UNL     1      20.480   1.172  50.909  1.00  0.00    -0.285 OA
HETATM    6  C8  UNL     1      22.556   0.813  52.019  1.00  0.00     0.086 A 
HETATM    7  C9  UNL     1      21.871  -0.055  52.872  1.00  0.00     0.035 A 
HETATM    8  C10 UNL     1      22.645  -0.632  53.828  1.00  0.00     0.020 A 
HETATM    9  C11 UNL     1      23.881  -0.116  53.580  1.00  0.00     0.092 A 
HETATM   10  N2  UNL     1      23.780   0.719  52.519  1.00  0.00    -0.345 N 
HETATM   11  C12 UNL     1      24.569   1.591  51.693  1.00  0.00     0.208 A 
HETATM   12  C13 UNL     1      25.831   2.059  51.543  1.00  0.00     0.084 A 
HETATM   13  C21 UNL     1      25.532   2.932  50.351  1.00  0.00     0.060 A 
HETATM   14 CL1  UNL     1      26.825   3.889  49.592  1.00  0.00    -0.121 Cl
HETATM   15  C22 UNL     1      24.236   2.477  50.496  1.00  0.00     0.123 A 
ENDROOT
BRANCH  12  16
HETATM   16  O2  UNL     1      27.228   2.239  51.800  1.00  0.00    -0.377 OA
BRANCH  16  17
HETATM   17  C14 UNL     1      27.622   2.062  53.160  1.00  0.00     0.207 C 
BRANCH  17  18
HETATM   18  C15 UNL     1      28.215   0.707  53.228  1.00  0.00    -0.035 A 
HETATM   19  C16 UNL     1      29.554   0.478  53.567  1.00  0.00     0.009 A 
HETATM   20  C17 UNL     1      30.045  -0.805  53.601  1.00  0.00     0.001 A 
HETATM   21  C18 UNL     1      29.282  -1.929  53.314  1.00  0.00     0.000 A 
HETATM   22  C19 UNL     1      27.943  -1.751  52.972  1.00  0.00     0.001 A 
HETATM   23  C20 UNL     1      27.500  -0.456  52.952  1.00  0.00     0.009 A 
ENDBRANCH  17  18
ENDBRANCH  16  17
ENDBRANCH  12  16
BRANCH   3  24
HETATM   24  C4  UNL     1      20.797   2.668  49.130  1.00  0.00     0.314 C 
BRANCH  24  25
HETATM   25  N1  UNL     1      20.387   4.042  49.333  1.00  0.00     0.084 N 
HETATM   26  C5  UNL     1      19.793   4.332  50.586  1.00  0.00     0.309 C 
HETATM   27  C6  UNL     1      19.420   4.349  48.301  1.00  0.00     0.309 C 
ENDBRANCH  24  25
ENDBRANCH   3  24
TORSDOF 5
ENDMDL
MODEL 2
REMARK VINA RESULT:      -8.5      3.098      7.938
REMARK  5 active torsions:
REMARK  status: ('A' for Active; 'I' for Inactive)
REMARK    1  A    between atoms: C3_3  and  C4_4 
REMARK    2  A    between atoms: C4_4  and  N1_5 
REMARK    3  A    between atoms: C13_16  and  O2_17 
REMARK    4  A    between atoms: O2_17  and  C14_18 
REMARK    5  A    between atoms: C14_18  and  C15_19 
ROOT
HETATM    1  C1  UNL     1      25.775  -0.772  54.169  1.00  0.00     0.044 C 
HETATM    2  C2  UNL     1      25.047   0.207  53.251  1.00  0.00    -0.063 A 
HETATM    3  C3  UNL     1      25.934   0.890  52.486  1.00  0.00     0.025 A 
HETATM    4  C7  UNL     1      25.783   1.926  51.446  1.00  0.00     0.206 A 
HETATM    5  O1  UNL     1      26.972   2.239  51.030  1.00  0.00    -0.285 OA
HETATM    6  C8  UNL     1      24.620   2.582  50.874  1.00  0.00     0.086 A 
HETATM    7  C9  UNL     1      24.893   3.528  49.883  1.00  0.00     0.035 A 
HETATM    8  C10 UNL     1      23.793   4.126  49.358  1.00  0.00     0.020 A 
HETATM    9  C11 UNL     1      22.767   3.541  50.036  1.00  0.00     0.092 A 
HETATM   10  N2  UNL     1      23.297   2.650  50.908  1.00  0.00    -0.345 N 
HETATM   11  C12 UNL     1      22.918   1.697  51.915  1.00  0.00     0.208 A 
HETATM   12  C13 UNL     1      21.830   1.191  52.543  1.00  0.00     0.084 A 
HETATM   13  C21 UNL     1      22.593   0.244  53.435  1.00  0.00     0.060 A 
HETATM   14 CL1  UNL     1      21.727  -0.801  54.584  1.00  0.00    -0.121 Cl
HETATM   15  C22 UNL     1      23.715   0.757  52.814  1.00  0.00     0.123 A 
ENDROOT
BRANCH  12  16
HETATM   16  O2  UNL     1      20.452   0.999  52.883  1.00  0.00    -0.377 OA
BRANCH  16  17
HETATM   17  C14 UNL     1      19.542   1.066  51.786  1.00  0.00     0.207 C 
BRANCH  17  18
HETATM   18  C15 UNL     1      18.505   0.048  52.068  1.00  0.00    -0.035 A 
HETATM   19  C16 UNL     1      17.303  -0.033  51.354  1.00  0.00     0.009 A 
HETATM   20  C17 UNL     1      16.376  -0.996  51.673  1.00  0.00     0.001 A 
HETATM   21  C18 UNL     1      16.553  -1.926  52.689  1.00  0.00     0.000 A 
HETATM   22  C19 UNL     1      17.734  -1.886  53.426  1.00  0.00     0.001 A 
HETATM   23  C20 UNL     1      18.626  -0.910  53.071  1.00  0.00     0.009 A 
ENDBRANCH  17  18
ENDBRANCH  16  17
ENDBRANCH  12  16
BRANCH   3  24
HETATM   24  C4  UNL     1      27.414   0.597  52.646  1.00  0.00     0.314 C 
BRANCH  24  25
HETATM   25  N1  UNL     1      27.919   1.237  53.842  1.00  0.00     0.084 N 
HETATM   26  C5  UNL     1      28.623   2.450  53.644  1.00  0.00     0.309 C 
HETATM   27  C6  UNL     1      28.820   0.297  54.474  1.00  0.00     0.309 C 
ENDBRANCH  24  25
ENDBRANCH   3  24
TORSDOF 5
ENDMDL
MODEL 3
REMARK VINA RESULT:      -8.4      2.096      7.223
REMARK  5 active torsions:
REMARK  status: ('A' for Active; 'I' for Inactive)
REMARK    1  A    between atoms: C3_3  and  C4_4 
REMARK    2  A    between atoms: C4_4  and  N1_5 
REMARK    3  A    between atoms: C13_16  and  O2_17 
REMARK    4  A    between atoms: O2_17  and  C14_18 
REMARK    5  A    between atoms: C14_18  and  C15_19 
ROOT
HETATM    1  C1  UNL     1      27.169   1.658  52.101  1.00  0.00     0.044 C 
HETATM    2  C2  UNL     1      25.748   1.185  52.395  1.00  0.00    -0.063 A 
HETATM    3  C3  UNL     1      25.749   0.272  53.397  1.00  0.00     0.025 A 
HETATM    4  C7  UNL     1      24.679  -0.486  54.074  1.00  0.00     0.206 A 
HETATM    5  O1  UNL     1      25.239  -1.233  54.975  1.00  0.00    -0.285 OA
HETATM    6  C8  UNL     1      23.237  -0.519  53.900  1.00  0.00     0.086 A 
HETATM    7  C9  UNL     1      22.551  -1.382  54.757  1.00  0.00     0.035 A 
HETATM    8  C10 UNL     1      21.203  -1.394  54.583  1.00  0.00     0.020 A 
HETATM    9  C11 UNL     1      21.013  -0.499  53.573  1.00  0.00     0.092 A 
HETATM   10  N2  UNL     1      22.224  -0.017  53.208  1.00  0.00    -0.345 N 
HETATM   11  C12 UNL     1      22.842   0.897  52.287  1.00  0.00     0.208 A 
HETATM   12  C13 UNL     1      22.547   1.752  51.279  1.00  0.00     0.084 A 
HETATM   13  C21 UNL     1      23.967   2.183  51.020  1.00  0.00     0.060 A 
HETATM   14 CL1  UNL     1      24.327   3.373  49.748  1.00  0.00    -0.121 Cl
HETATM   15  C22 UNL     1      24.290   1.307  52.037  1.00  0.00     0.123 A 
ENDROOT
BRANCH  12  16
HETATM   16  O2  UNL     1      21.755   2.479  50.333  1.00  0.00    -0.377 OA
BRANCH  16  17
HETATM   17  C14 UNL     1      20.602   3.123  50.875  1.00  0.00     0.207 C 
BRANCH  17  18
HETATM   18  C15 UNL     1      20.837   4.573  50.694  1.00  0.00    -0.035 A 
HETATM   19  C16 UNL     1      21.805   5.284  51.415  1.00  0.00     0.009 A 
HETATM   20  C17 UNL     1      21.965   6.633  51.207  1.00  0.00     0.001 A 
HETATM   21  C18 UNL     1      21.210   7.367  50.302  1.00  0.00     0.000 A 
HETATM   22  C19 UNL     1      20.235   6.703  49.561  1.00  0.00     0.001 A 
HETATM   23  C20 UNL     1      20.113   5.361  49.802  1.00  0.00     0.009 A 
ENDBRANCH  17  18
ENDBRANCH  16  17
ENDBRANCH  12  16
BRANCH   3  24
HETATM   24  C4  UNL     1      27.072  -0.115  54.031  1.00  0.00     0.314 C 
BRANCH  24  25
HETATM   25  N1  UNL     1      27.898  -0.811  53.067  1.00  0.00     0.084 N 
HETATM   26  C5  UNL     1      27.468  -2.112  52.707  1.00  0.00     0.309 C 
HETATM   27  C6  UNL     1      29.219  -0.923  53.648  1.00  0.00     0.309 C 
ENDBRANCH  24  25
ENDBRANCH   3  24
TORSDOF 5
ENDMDL
MODEL 4
REMARK VINA RESULT:      -8.3      2.321      7.417
REMARK  5 active torsions:
REMARK  status: ('A' for Active; 'I' for Inactive)
REMARK    1  A    between atoms: C3_3  and  C4_4 
REMARK    2  A    between atoms: C4_4  and  N1_5 
REMARK    3  A    between atoms: C13_16  and  O2_17 
REMARK    4  A    between atoms: O2_17  and  C14_18 
REMARK    5  A    between atoms: C14_18  and  C15_19 
ROOT
HETATM    1  C1  UNL     1      26.977   1.754  52.008  1.00  0.00     0.044 C 
HETATM    2  C2  UNL     1      25.584   1.214  52.320  1.00  0.00    -0.063 A 
HETATM    3  C3  UNL     1      25.633   0.347  53.361  1.00  0.00     0.025 A 
HETATM    4  C7  UNL     1      24.604  -0.441  54.068  1.00  0.00     0.206 A 
HETATM    5  O1  UNL     1      25.201  -1.114  55.003  1.00  0.00    -0.285 OA
HETATM    6  C8  UNL     1      23.168  -0.563  53.893  1.00  0.00     0.086 A 
HETATM    7  C9  UNL     1      22.527  -1.426  54.785  1.00  0.00     0.035 A 
HETATM    8  C10 UNL     1      21.184  -1.522  54.609  1.00  0.00     0.020 A 
HETATM    9  C11 UNL     1      20.947  -0.685  53.561  1.00  0.00     0.092 A 
HETATM   10  N2  UNL     1      22.131  -0.150  53.177  1.00  0.00    -0.345 N 
HETATM   11  C12 UNL     1      22.700   0.756  52.218  1.00  0.00     0.208 A 
HETATM   12  C13 UNL     1      22.361   1.548  51.173  1.00  0.00     0.084 A 
HETATM   13  C21 UNL     1      23.756   2.048  50.898  1.00  0.00     0.060 A 
HETATM   14 CL1  UNL     1      24.053   3.200  49.576  1.00  0.00    -0.121 Cl
HETATM   15  C22 UNL     1      24.124   1.236  51.953  1.00  0.00     0.123 A 
ENDROOT
BRANCH  12  16
HETATM   16  O2  UNL     1      21.534   2.187  50.194  1.00  0.00    -0.377 OA
BRANCH  16  17
HETATM   17  C14 UNL     1      20.699   1.308  49.440  1.00  0.00     0.207 C 
BRANCH  17  18
HETATM   18  C15 UNL     1      19.373   1.362  50.094  1.00  0.00    -0.035 A 
HETATM   19  C16 UNL     1      18.551   2.497  50.057  1.00  0.00     0.009 A 
HETATM   20  C17 UNL     1      17.334   2.486  50.695  1.00  0.00     0.001 A 
HETATM   21  C18 UNL     1      16.843   1.392  51.396  1.00  0.00     0.000 A 
HETATM   22  C19 UNL     1      17.624   0.241  51.459  1.00  0.00     0.001 A 
HETATM   23  C20 UNL     1      18.827   0.299  50.809  1.00  0.00     0.009 A 
ENDBRANCH  17  18
ENDBRANCH  16  17
ENDBRANCH  12  16
BRANCH   3  24
HETATM   24  C4  UNL     1      26.973   0.064  54.014  1.00  0.00     0.314 C 
BRANCH  24  25
HETATM   25  N1  UNL     1      27.824  -0.667  53.100  1.00  0.00     0.084 N 
HETATM   26  C5  UNL     1      27.382  -1.965  52.746  1.00  0.00     0.309 C 
HETATM   27  C6  UNL     1      29.116  -0.796  53.740  1.00  0.00     0.309 C 
ENDBRANCH  24  25
ENDBRANCH   3  24
TORSDOF 5
ENDMDL
MODEL 5
REMARK VINA RESULT:      -8.3      2.073      7.342
REMARK  5 active torsions:
REMARK  status: ('A' for Active; 'I' for Inactive)
REMARK    1  A    between atoms: C3_3  and  C4_4 
REMARK    2  A    between atoms: C4_4  and  N1_5 
REMARK    3  A    between atoms: C13_16  and  O2_17 
REMARK    4  A    between atoms: O2_17  and  C14_18 
REMARK    5  A    between atoms: C14_18  and  C15_19 
ROOT
HETATM    1  C1  UNL     1      27.269   1.919  52.328  1.00  0.00     0.044 C 
HETATM    2  C2  UNL     1      25.873   1.342  52.550  1.00  0.00    -0.063 A 
HETATM    3  C3  UNL     1      25.884   0.458  53.578  1.00  0.00     0.025 A 
HETATM    4  C7  UNL     1      24.836  -0.366  54.212  1.00  0.00     0.206 A 
HETATM    5  O1  UNL     1      25.395  -1.042  55.169  1.00  0.00    -0.285 OA
HETATM    6  C8  UNL     1      23.415  -0.518  53.954  1.00  0.00     0.086 A 
HETATM    7  C9  UNL     1      22.746  -1.411  54.793  1.00  0.00     0.035 A 
HETATM    8  C10 UNL     1      21.417  -1.536  54.539  1.00  0.00     0.020 A 
HETATM    9  C11 UNL     1      21.221  -0.686  53.492  1.00  0.00     0.092 A 
HETATM   10  N2  UNL     1      22.411  -0.117  53.187  1.00  0.00    -0.345 N 
HETATM   11  C12 UNL     1      23.012   0.819  52.277  1.00  0.00     0.208 A 
HETATM   12  C13 UNL     1      22.714   1.621  51.226  1.00  0.00     0.084 A 
HETATM   13  C21 UNL     1      24.110   2.158  51.040  1.00  0.00     0.060 A 
HETATM   14 CL1  UNL     1      24.454   3.340  49.756  1.00  0.00    -0.121 Cl
HETATM   15  C22 UNL     1      24.436   1.337  52.101  1.00  0.00     0.123 A 
ENDROOT
BRANCH  12  16
HETATM   16  O2  UNL     1      21.928   2.258  50.212  1.00  0.00    -0.377 OA
BRANCH  16  17
HETATM   17  C14 UNL     1      21.556   1.419  49.119  1.00  0.00     0.207 C 
BRANCH  17  18
HETATM   18  C15 UNL     1      21.236   2.339  48.005  1.00  0.00    -0.035 A 
HETATM   19  C16 UNL     1      22.189   2.766  47.071  1.00  0.00     0.009 A 
HETATM   20  C17 UNL     1      21.828   3.631  46.066  1.00  0.00     0.001 A 
HETATM   21  C18 UNL     1      20.541   4.128  45.903  1.00  0.00     0.000 A 
HETATM   22  C19 UNL     1      19.559   3.730  46.807  1.00  0.00     0.001 A 
HETATM   23  C20 UNL     1      19.966   2.869  47.790  1.00  0.00     0.009 A 
ENDBRANCH  17  18
ENDBRANCH  16  17
ENDBRANCH  12  16
BRANCH   3  24
HETATM   24  C4  UNL     1      27.191   0.195  54.302  1.00  0.00     0.314 C 
BRANCH  24  25
HETATM   25  N1  UNL     1      28.134  -0.440  53.406  1.00  0.00     0.084 N 
HETATM   26  C5  UNL     1      27.803  -1.753  52.988  1.00  0.00     0.309 C 
HETATM   27  C6  UNL     1      29.401  -0.501  54.103  1.00  0.00     0.309 C 
ENDBRANCH  24  25
ENDBRANCH   3  24
TORSDOF 5
ENDMDL
MODEL 6
REMARK VINA RESULT:      -8.3      3.075      5.610
REMARK  5 active torsions:
REMARK  status: ('A' for Active; 'I' for Inactive)
REMARK    1  A    between atoms: C3_3  and  C4_4 
REMARK    2  A    between atoms: C4_4  and  N1_5 
REMARK    3  A    between atoms: C13_16  and  O2_17 
REMARK    4  A    between atoms: O2_17  and  C14_18 
REMARK    5  A    between atoms: C14_18  and  C15_19 
ROOT
HETATM    1  C1  UNL     1      22.834  -0.298  53.293  1.00  0.00     0.044 C 
HETATM    2  C2  UNL     1      22.916   1.097  52.678  1.00  0.00    -0.063 A 
HETATM    3  C3  UNL     1      21.716   1.722  52.759  1.00  0.00     0.025 A 
HETATM    4  C7  UNL     1      21.242   3.057  52.340  1.00  0.00     0.206 A 
HETATM    5  O1  UNL     1      19.987   3.144  52.660  1.00  0.00    -0.285 OA
HETATM    6  C8  UNL     1      21.903   4.174  51.690  1.00  0.00     0.086 A 
HETATM    7  C9  UNL     1      21.100   5.294  51.461  1.00  0.00     0.035 A 
HETATM    8  C10 UNL     1      21.737   6.330  50.857  1.00  0.00     0.020 A 
HETATM    9  C11 UNL     1      23.005   5.861  50.692  1.00  0.00     0.092 A 
HETATM   10  N2  UNL     1      23.054   4.603  51.191  1.00  0.00    -0.345 N 
HETATM   11  C12 UNL     1      23.957   3.502  51.386  1.00  0.00     0.208 A 
HETATM   12  C13 UNL     1      25.238   3.125  51.159  1.00  0.00     0.084 A 
HETATM   13  C21 UNL     1      25.107   1.754  51.770  1.00  0.00     0.060 A 
HETATM   14 CL1  UNL     1      26.504   0.654  51.816  1.00  0.00    -0.121 Cl
HETATM   15  C22 UNL     1      23.794   2.114  51.998  1.00  0.00     0.123 A 
ENDROOT
BRANCH  12  16
HETATM   16  O2  UNL     1      26.596   3.210  50.714  1.00  0.00    -0.377 OA
BRANCH  16  17
HETATM   17  C14 UNL     1      26.772   3.194  49.297  1.00  0.00     0.207 C 
BRANCH  17  18
HETATM   18  C15 UNL     1      27.084   4.591  48.921  1.00  0.00    -0.035 A 
HETATM   19  C16 UNL     1      26.133   5.619  48.951  1.00  0.00     0.009 A 
HETATM   20  C17 UNL     1      26.485   6.894  48.578  1.00  0.00     0.001 A 
HETATM   21  C18 UNL     1      27.761   7.248  48.159  1.00  0.00     0.000 A 
HETATM   22  C19 UNL     1      28.742   6.259  48.114  1.00  0.00     0.001 A 
HETATM   23  C20 UNL     1      28.344   5.006  48.494  1.00  0.00     0.009 A 
ENDBRANCH  17  18
ENDBRANCH  16  17
ENDBRANCH  12  16
BRANCH   3  24
HETATM   24  C4  UNL     1      20.553   0.992  53.403  1.00  0.00     0.314 C 
BRANCH  24  25
HETATM   25  N1  UNL     1      20.131  -0.107  52.561  1.00  0.00     0.084 N 
HETATM   26  C5  UNL     1      19.467   0.252  51.362  1.00  0.00     0.309 C 
HETATM   27  C6  UNL     1      19.223  -0.915  53.347  1.00  0.00     0.309 C 
ENDBRANCH  24  25
ENDBRANCH   3  24
TORSDOF 5
ENDMDL
MODEL 7
REMARK VINA RESULT:      -8.3      2.228      7.600
REMARK  5 active torsions:
REMARK  status: ('A' for Active; 'I' for Inactive)
REMARK    1  A    between atoms: C3_3  and  C4_4 
REMARK    2  A    between atoms: C4_4  and  N1_5 
REMARK    3  A    between atoms: C13_16  and  O2_17 
REMARK    4  A    between atoms: O2_17  and  C14_18 
REMARK    5  A    between atoms: C14_18  and  C15_19 
ROOT
HETATM    1  C1  UNL     1      25.464  -0.738  55.038  1.00  0.00     0.044 C 
HETATM    2  C2  UNL     1      25.213   0.217  53.874  1.00  0.00    -0.063 A 
HETATM    3  C3  UNL     1      26.380   0.750  53.438  1.00  0.00     0.025 A 
HETATM    4  C7  UNL     1      26.715   1.701  52.360  1.00  0.00     0.206 A 
HETATM    5  O1  UNL     1      28.002   1.872  52.376  1.00  0.00    -0.285 OA
HETATM    6  C8  UNL     1      25.904   2.404  51.382  1.00  0.00     0.086 A 
HETATM    7  C9  UNL     1      26.607   3.232  50.505  1.00  0.00     0.035 A 
HETATM    8  C10 UNL     1      25.831   3.876  49.595  1.00  0.00     0.020 A 
HETATM    9  C11 UNL     1      24.575   3.444  49.896  1.00  0.00     0.092 A 
HETATM   10  N2  UNL     1      24.667   2.589  50.943  1.00  0.00    -0.345 N 
HETATM   11  C12 UNL     1      23.859   1.764  51.798  1.00  0.00     0.208 A 
HETATM   12  C13 UNL     1      22.572   1.411  52.027  1.00  0.00     0.084 A 
HETATM   13  C21 UNL     1      22.868   0.483  53.177  1.00  0.00     0.060 A 
HETATM   14 CL1  UNL     1      21.546  -0.379  53.998  1.00  0.00    -0.121 Cl
HETATM   15  C22 UNL     1      24.185   0.841  52.968  1.00  0.00     0.123 A 
ENDROOT
BRANCH  12  16
HETATM   16  O2  UNL     1      21.149   1.370  51.868  1.00  0.00    -0.377 OA
BRANCH  16  17
HETATM   17  C14 UNL     1      20.692   0.766  50.658  1.00  0.00     0.207 C 
BRANCH  17  18
HETATM   18  C15 UNL     1      21.067   1.706  49.579  1.00  0.00    -0.035 A 
HETATM   19  C16 UNL     1      20.617   3.032  49.532  1.00  0.00     0.009 A 
HETATM   20  C17 UNL     1      20.995   3.850  48.495  1.00  0.00     0.001 A 
HETATM   21  C18 UNL     1      21.819   3.443  47.454  1.00  0.00     0.000 A 
HETATM   22  C19 UNL     1      22.292   2.133  47.458  1.00  0.00     0.001 A 
HETATM   23  C20 UNL     1      21.890   1.356  48.510  1.00  0.00     0.009 A 
ENDBRANCH  17  18
ENDBRANCH  16  17
ENDBRANCH  12  16
BRANCH   3  24
HETATM   24  C4  UNL     1      27.670   0.345  54.125  1.00  0.00     0.314 C 
BRANCH  24  25
HETATM   25  N1  UNL     1      28.448  -0.510  53.253  1.00  0.00     0.084 N 
HETATM   26  C5  UNL     1      27.960  -1.828  53.082  1.00  0.00     0.309 C 
HETATM   27  C6  UNL     1      29.776  -0.597  53.824  1.00  0.00     0.309 C 
ENDBRANCH  24  25
ENDBRANCH   3  24
TORSDOF 5
ENDMDL
MODEL 8
REMARK VINA RESULT:      -8.1      2.131      3.512
REMARK  5 active torsions:
REMARK  status: ('A' for Active; 'I' for Inactive)
REMARK    1  A    between atoms: C3_3  and  C4_4 
REMARK    2  A    between atoms: C4_4  and  N1_5 
REMARK    3  A    between atoms: C13_16  and  O2_17 
REMARK    4  A    between atoms: O2_17  and  C14_18 
REMARK    5  A    between atoms: C14_18  and  C15_19 
ROOT
HETATM    1  C1  UNL     1      19.823   0.405  51.509  1.00  0.00     0.044 C 
HETATM    2  C2  UNL     1      21.233   0.969  51.348  1.00  0.00    -0.063 A 
HETATM    3  C3  UNL     1      21.278   1.843  50.313  1.00  0.00     0.025 A 
HETATM    4  C7  UNL     1      22.358   2.667  49.734  1.00  0.00     0.206 A 
HETATM    5  O1  UNL     1      21.852   3.333  48.741  1.00  0.00    -0.285 OA
HETATM    6  C8  UNL     1      23.760   2.828  50.073  1.00  0.00     0.086 A 
HETATM    7  C9  UNL     1      24.471   3.726  49.273  1.00  0.00     0.035 A 
HETATM    8  C10 UNL     1      25.779   3.867  49.609  1.00  0.00     0.020 A 
HETATM    9  C11 UNL     1      25.919   3.026  50.672  1.00  0.00     0.092 A 
HETATM   10  N2  UNL     1      24.718   2.444  50.905  1.00  0.00    -0.345 N 
HETATM   11  C12 UNL     1      24.072   1.505  51.780  1.00  0.00     0.208 A 
HETATM   12  C13 UNL     1      24.321   0.686  52.830  1.00  0.00     0.084 A 
HETATM   13  C21 UNL     1      22.917   0.152  52.946  1.00  0.00     0.060 A 
HETATM   14 CL1  UNL     1      22.509  -1.038  54.203  1.00  0.00    -0.121 Cl
HETATM   15  C22 UNL     1      22.646   0.971  51.868  1.00  0.00     0.123 A 
ENDROOT
BRANCH  12  16
HETATM   16  O2  UNL     1      25.060   0.028  53.865  1.00  0.00    -0.377 OA
BRANCH  16  17
HETATM   17  C14 UNL     1      25.877  -1.058  53.430  1.00  0.00     0.207 C 
BRANCH  17  18
HETATM   18  C15 UNL     1      27.273  -0.597  53.599  1.00  0.00    -0.035 A 
HETATM   19  C16 UNL     1      27.604   0.634  54.182  1.00  0.00     0.009 A 
HETATM   20  C17 UNL     1      28.921   1.008  54.300  1.00  0.00     0.001 A 
HETATM   21  C18 UNL     1      29.984   0.226  53.868  1.00  0.00     0.000 A 
HETATM   22  C19 UNL     1      29.705  -1.007  53.282  1.00  0.00     0.001 A 
HETATM   23  C20 UNL     1      28.380  -1.336  53.187  1.00  0.00     0.009 A 
ENDBRANCH  17  18
ENDBRANCH  16  17
ENDBRANCH  12  16
BRANCH   3  24
HETATM   24  C4  UNL     1      20.009   2.112  49.527  1.00  0.00     0.314 C 
BRANCH  24  25
HETATM   25  N1  UNL     1      19.508   3.436  49.832  1.00  0.00     0.084 N 
HETATM   26  C5  UNL     1      19.003   3.619  51.142  1.00  0.00     0.309 C 
HETATM   27  C6  UNL     1      18.434   3.704  48.899  1.00  0.00     0.309 C 
ENDBRANCH  24  25
ENDBRANCH   3  24
TORSDOF 5
ENDMDL
MODEL 9
REMARK VINA RESULT:      -8.1      3.818      6.442
REMARK  5 active torsions:
REMARK  status: ('A' for Active; 'I' for Inactive)
REMARK    1  A    between atoms: C3_3  and  C4_4 
REMARK    2  A    between atoms: C4_4  and  N1_5 
REMARK    3  A    between atoms: C13_16  and  O2_17 
REMARK    4  A    between atoms: O2_17  and  C14_18 
REMARK    5  A    between atoms: C14_18  and  C15_19 
ROOT
HETATM    1  C1  UNL     1      27.910   5.049  48.557  1.00  0.00     0.044 C 
HETATM    2  C2  UNL     1      26.531   5.281  49.170  1.00  0.00    -0.063 A 
HETATM    3  C3  UNL     1      26.036   6.482  48.782  1.00  0.00     0.025 A 
HETATM    4  C7  UNL     1      24.772   7.192  49.062  1.00  0.00     0.206 A 
HETATM    5  O1  UNL     1      24.811   8.324  48.430  1.00  0.00    -0.285 OA
HETATM    6  C8  UNL     1      23.608   6.847  49.859  1.00  0.00     0.086 A 
HETATM    7  C9  UNL     1      22.588   7.801  49.872  1.00  0.00     0.035 A 
HETATM    8  C10 UNL     1      21.506   7.459  50.619  1.00  0.00     0.020 A 
HETATM    9  C11 UNL     1      21.841   6.231  51.106  1.00  0.00     0.092 A 
HETATM   10  N2  UNL     1      23.073   5.918  50.638  1.00  0.00    -0.345 N 
HETATM   11  C12 UNL     1      24.065   4.879  50.684  1.00  0.00     0.208 A 
HETATM   12  C13 UNL     1      24.308   3.666  51.235  1.00  0.00     0.084 A 
HETATM   13  C21 UNL     1      25.669   3.483  50.612  1.00  0.00     0.060 A 
HETATM   14 CL1  UNL     1      26.611   2.009  50.929  1.00  0.00    -0.121 Cl
HETATM   15  C22 UNL     1      25.445   4.726  50.052  1.00  0.00     0.123 A 
ENDROOT
BRANCH  12  16
HETATM   16  O2  UNL     1      24.091   2.485  52.015  1.00  0.00    -0.377 OA
BRANCH  16  17
HETATM   17  C14 UNL     1      23.041   1.637  51.551  1.00  0.00     0.207 C 
BRANCH  17  18
HETATM   18  C15 UNL     1      22.707   0.757  52.694  1.00  0.00    -0.035 A 
HETATM   19  C16 UNL     1      23.659  -0.036  53.347  1.00  0.00     0.009 A 
HETATM   20  C17 UNL     1      23.281  -0.840  54.396  1.00  0.00     0.001 A 
HETATM   21  C18 UNL     1      21.979  -0.924  54.871  1.00  0.00     0.000 A 
HETATM   22  C19 UNL     1      20.998  -0.153  54.253  1.00  0.00     0.001 A 
HETATM   23  C20 UNL     1      21.421   0.632  53.214  1.00  0.00     0.009 A 
ENDBRANCH  17  18
ENDBRANCH  16  17
ENDBRANCH  12  16
BRANCH   3  24
HETATM   24  C4  UNL     1      26.869   7.353  47.860  1.00  0.00     0.314 C 
BRANCH  24  25
HETATM   25  N1  UNL     1      28.037   7.842  48.563  1.00  0.00     0.084 N 
HETATM   26  C5  UNL     1      27.808   8.888  49.489  1.00  0.00     0.309 C 
HETATM   27  C6  UNL     1      28.958   8.329  47.558  1.00  0.00     0.309 C 
ENDBRANCH  24  25
ENDBRANCH   3  24
TORSDOF 5
ENDMDL
