MODEL 1
REMARK VINA RESULT:      -9.6      0.000      0.000
REMARK  6 active torsions:
REMARK  status: ('A' for Active; 'I' for Inactive)
REMARK    1  A    between atoms: C7_9  and  N3_10 
REMARK       I    between atoms: N3_10  and  C8_11 
REMARK    2  A    between atoms: C8_11  and  C9_13 
REMARK    3  A    between atoms: C10_14  and  N4_15 
REMARK    4  A    between atoms: N4_15  and  C11_16 
REMARK    5  A    between atoms: C11_16  and  C12_17 
REMARK    6  A    between atoms: C12_17  and  C13_18 
ROOT
HETATM    1  C9  UNL     1      27.556   1.665  52.812  1.00  0.00     0.054 A 
HETATM    2  C10 UNL     1      27.524   0.335  52.812  1.00  0.00     0.042 A 
HETATM    3  C19 UNL     1      28.573  -0.450  53.445  1.00  0.00     0.046 A 
HETATM    4  C20 UNL     1      29.618   0.099  54.058  1.00  0.00     0.085 A 
HETATM    5  N5  UNL     1      29.642   1.519  54.052  1.00  0.00    -0.394 N 
HETATM    6  C21 UNL     1      28.661   2.409  53.474  1.00  0.00     0.165 A 
HETATM    7  H24 UNL     1      30.436   2.076  54.499  1.00  0.00     0.159 HD
ENDROOT
BRANCH   1   8
HETATM    8  C8  UNL     1      26.519   2.437  52.169  1.00  0.00     0.256 C 
HETATM    9  N3  UNL     1      26.529   3.006  50.884  1.00  0.00    -0.323 N 
HETATM   10  H12 UNL     1      27.482   2.756  50.489  1.00  0.00     0.169 HD
HETATM   11  O1  UNL     1      25.453   2.629  52.846  1.00  0.00    -0.268 OA
BRANCH   9  12
HETATM   12  C7  UNL     1      25.570   3.740  50.145  1.00  0.00     0.034 C 
HETATM   13  C6  UNL     1      24.330   2.910  49.938  1.00  0.00     0.027 C 
HETATM   14  C5  UNL     1      23.181   3.061  49.196  1.00  0.00     0.005 C 
HETATM   15  C4  UNL     1      22.511   3.954  48.267  1.00  0.00     0.300 C 
HETATM   16  N2  UNL     1      22.921   5.097  47.684  1.00  0.00     0.099 NA
HETATM   17  C3  UNL     1      21.982   6.061  47.177  1.00  0.00     0.293 C 
HETATM   18  C25 UNL     1      23.519   5.790  48.828  1.00  0.00     0.329 C 
HETATM   19  C2  UNL     1      22.535   7.469  47.233  1.00  0.00     0.152 C 
HETATM   20  N1  UNL     1      23.984   7.477  47.402  1.00  0.00    -0.385 N 
HETATM   21  C1  UNL     1      25.211   8.147  46.950  1.00  0.00     0.149 C 
HETATM   22  C24 UNL     1      24.707   6.584  48.228  1.00  0.00     0.035 C 
HETATM   23  C23 UNL     1      25.400   5.850  48.952  1.00  0.00     0.029 C 
HETATM   24  C22 UNL     1      26.001   4.884  49.761  1.00  0.00     0.031 C 
ENDBRANCH   9  12
ENDBRANCH   1   8
BRANCH   2  25
HETATM   25  N4  UNL     1      26.412  -0.308  52.148  1.00  0.00    -0.389 N 
HETATM   26  H13 UNL     1      26.212  -0.048  51.158  1.00  0.00     0.159 HD
BRANCH  25  27
HETATM   27  C11 UNL     1      25.865  -1.202  53.151  1.00  0.00     0.124 C 
BRANCH  27  28
HETATM   28  C12 UNL     1      25.056  -0.517  54.201  1.00  0.00     0.058 C 
BRANCH  28  29
HETATM   29  C13 UNL     1      23.613  -0.533  53.884  1.00  0.00    -0.055 A 
HETATM   30  C14 UNL     1      22.752  -1.118  54.822  1.00  0.00     0.007 A 
HETATM   31  C15 UNL     1      21.371  -1.173  54.614  1.00  0.00     0.002 A 
HETATM   32  C16 UNL     1      20.810  -0.648  53.469  1.00  0.00     0.024 A 
HETATM   33  C17 UNL     1      21.678  -0.073  52.553  1.00  0.00     0.034 A 
HETATM   34 CL1  UNL     1      21.024   0.622  51.060  1.00  0.00    -0.084 Cl
HETATM   35  C18 UNL     1      23.043  -0.006  52.733  1.00  0.00     0.031 A 
ENDBRANCH  28  29
ENDBRANCH  27  28
ENDBRANCH  25  27
ENDBRANCH   2  25
TORSDOF 6
ENDMDL
MODEL 2
REMARK VINA RESULT:      -9.5      0.780      2.152
REMARK  6 active torsions:
REMARK  status: ('A' for Active; 'I' for Inactive)
REMARK    1  A    between atoms: C7_9  and  N3_10 
REMARK       I    between atoms: N3_10  and  C8_11 
REMARK    2  A    between atoms: C8_11  and  C9_13 
REMARK    3  A    between atoms: C10_14  and  N4_15 
REMARK    4  A    between atoms: N4_15  and  C11_16 
REMARK    5  A    between atoms: C11_16  and  C12_17 
REMARK    6  A    between atoms: C12_17  and  C13_18 
ROOT
HETATM    1  C9  UNL     1      27.551   1.550  52.811  1.00  0.00     0.054 A 
HETATM    2  C10 UNL     1      27.521   0.220  52.831  1.00  0.00     0.042 A 
HETATM    3  C19 UNL     1      28.583  -0.554  53.455  1.00  0.00     0.046 A 
HETATM    4  C20 UNL     1      29.639   0.004  54.040  1.00  0.00     0.085 A 
HETATM    5  N5  UNL     1      29.662   1.424  54.011  1.00  0.00    -0.394 N 
HETATM    6  C21 UNL     1      28.668   2.304  53.440  1.00  0.00     0.165 A 
HETATM    7  H24 UNL     1      30.464   1.988  54.435  1.00  0.00     0.159 HD
ENDROOT
BRANCH   1   8
HETATM    8  C8  UNL     1      26.501   2.311  52.178  1.00  0.00     0.256 C 
HETATM    9  N3  UNL     1      26.419   2.734  50.839  1.00  0.00    -0.323 N 
HETATM   10  H12 UNL     1      27.316   2.382  50.393  1.00  0.00     0.169 HD
HETATM   11  O1  UNL     1      25.516   2.645  52.919  1.00  0.00    -0.268 OA
BRANCH   9  12
HETATM   12  C7  UNL     1      25.436   3.442  50.108  1.00  0.00     0.034 C 
HETATM   13  C6  UNL     1      26.023   4.712  49.548  1.00  0.00     0.027 C 
HETATM   14  C5  UNL     1      25.505   5.811  48.903  1.00  0.00     0.005 C 
HETATM   15  C4  UNL     1      24.265   6.395  48.422  1.00  0.00     0.300 C 
HETATM   16  N2  UNL     1      22.987   5.988  48.546  1.00  0.00     0.099 NA
HETATM   17  C3  UNL     1      21.966   6.426  47.633  1.00  0.00     0.293 C 
HETATM   18  C25 UNL     1      23.120   4.563  48.230  1.00  0.00     0.329 C 
HETATM   19  C2  UNL     1      20.868   5.396  47.479  1.00  0.00     0.152 C 
HETATM   20  N1  UNL     1      20.891   4.411  48.555  1.00  0.00    -0.385 N 
HETATM   21  C1  UNL     1      20.023   3.651  49.464  1.00  0.00     0.149 C 
HETATM   22  C24 UNL     1      22.065   3.863  49.125  1.00  0.00     0.035 C 
HETATM   23  C23 UNL     1      23.052   3.324  49.651  1.00  0.00     0.029 C 
HETATM   24  C22 UNL     1      24.279   2.894  50.160  1.00  0.00     0.031 C 
ENDBRANCH   9  12
ENDBRANCH   1   8
BRANCH   2  25
HETATM   25  N4  UNL     1      26.397  -0.433  52.199  1.00  0.00    -0.389 N 
HETATM   26  H13 UNL     1      26.208  -0.227  51.194  1.00  0.00     0.159 HD
BRANCH  25  27
HETATM   27  C11 UNL     1      25.823  -1.254  53.249  1.00  0.00     0.124 C 
BRANCH  27  28
HETATM   28  C12 UNL     1      25.003  -0.493  54.237  1.00  0.00     0.058 C 
BRANCH  28  29
HETATM   29  C13 UNL     1      23.563  -0.539  53.912  1.00  0.00    -0.055 A 
HETATM   30  C14 UNL     1      22.710  -1.146  54.843  1.00  0.00     0.007 A 
HETATM   31  C15 UNL     1      21.332  -1.231  54.627  1.00  0.00     0.002 A 
HETATM   32  C16 UNL     1      20.765  -0.714  53.481  1.00  0.00     0.024 A 
HETATM   33  C17 UNL     1      21.626  -0.117  52.571  1.00  0.00     0.034 A 
HETATM   34 CL1  UNL     1      20.965   0.568  51.077  1.00  0.00    -0.084 Cl
HETATM   35  C18 UNL     1      22.988  -0.021  52.760  1.00  0.00     0.031 A 
ENDBRANCH  28  29
ENDBRANCH  27  28
ENDBRANCH  25  27
ENDBRANCH   2  25
TORSDOF 6
ENDMDL
MODEL 3
REMARK VINA RESULT:      -9.3      1.595      1.718
REMARK  6 active torsions:
REMARK  status: ('A' for Active; 'I' for Inactive)
REMARK    1  A    between atoms: C7_9  and  N3_10 
REMARK       I    between atoms: N3_10  and  C8_11 
REMARK    2  A    between atoms: C8_11  and  C9_13 
REMARK    3  A    between atoms: C10_14  and  N4_15 
REMARK    4  A    between atoms: N4_15  and  C11_16 
REMARK    5  A    between atoms: C11_16  and  C12_17 
REMARK    6  A    between atoms: C12_17  and  C13_18 
ROOT
HETATM    1  C9  UNL     1      27.476   1.658  52.684  1.00  0.00     0.054 A 
HETATM    2  C10 UNL     1      27.544   0.333  52.775  1.00  0.00     0.042 A 
HETATM    3  C19 UNL     1      28.622  -0.324  53.500  1.00  0.00     0.046 A 
HETATM    4  C20 UNL     1      29.595   0.344  54.113  1.00  0.00     0.085 A 
HETATM    5  N5  UNL     1      29.512   1.758  54.009  1.00  0.00    -0.394 N 
HETATM    6  C21 UNL     1      28.492   2.528  53.335  1.00  0.00     0.165 A 
HETATM    7  H24 UNL     1      30.242   2.403  54.446  1.00  0.00     0.159 HD
ENDROOT
BRANCH   1   8
HETATM    8  C8  UNL     1      26.412   2.302  51.952  1.00  0.00     0.256 C 
HETATM    9  N3  UNL     1      25.374   3.108  52.454  1.00  0.00    -0.323 N 
HETATM   10  H12 UNL     1      25.534   3.126  53.503  1.00  0.00     0.169 HD
HETATM   11  O1  UNL     1      26.407   2.127  50.687  1.00  0.00    -0.268 OA
BRANCH   9  12
HETATM   12  C7  UNL     1      24.314   3.813  51.836  1.00  0.00     0.034 C 
HETATM   13  C6  UNL     1      22.998   3.406  52.447  1.00  0.00     0.027 C 
HETATM   14  C5  UNL     1      21.678   3.656  52.149  1.00  0.00     0.005 C 
HETATM   15  C4  UNL     1      20.814   4.344  51.206  1.00  0.00     0.300 C 
HETATM   16  N2  UNL     1      21.095   5.025  50.079  1.00  0.00     0.099 NA
HETATM   17  C3  UNL     1      20.189   6.007  49.547  1.00  0.00     0.293 C 
HETATM   18  C25 UNL     1      22.232   5.835  50.523  1.00  0.00     0.329 C 
HETATM   19  C2  UNL     1      20.918   7.093  48.785  1.00  0.00     0.152 C 
HETATM   20  N1  UNL     1      22.277   6.693  48.436  1.00  0.00    -0.385 N 
HETATM   21  C1  UNL     1      23.267   6.738  47.352  1.00  0.00     0.149 C 
HETATM   22  C24 UNL     1      23.143   5.952  49.275  1.00  0.00     0.035 C 
HETATM   23  C23 UNL     1      23.962   5.327  49.969  1.00  0.00     0.029 C 
HETATM   24  C22 UNL     1      24.702   4.555  50.867  1.00  0.00     0.031 C 
ENDBRANCH   9  12
ENDBRANCH   1   8
BRANCH   2  25
HETATM   25  N4  UNL     1      26.514  -0.438  52.116  1.00  0.00    -0.389 N 
HETATM   26  H13 UNL     1      26.373  -0.299  51.092  1.00  0.00     0.159 HD
BRANCH  25  27
HETATM   27  C11 UNL     1      25.938  -1.245  53.176  1.00  0.00     0.124 C 
BRANCH  27  28
HETATM   28  C12 UNL     1      25.137  -0.468  54.166  1.00  0.00     0.058 C 
BRANCH  28  29
HETATM   29  C13 UNL     1      23.690  -0.531  53.877  1.00  0.00    -0.055 A 
HETATM   30  C14 UNL     1      22.850  -1.023  54.885  1.00  0.00     0.007 A 
HETATM   31  C15 UNL     1      21.467  -1.113  54.707  1.00  0.00     0.002 A 
HETATM   32  C16 UNL     1      20.882  -0.714  53.524  1.00  0.00     0.024 A 
HETATM   33  C17 UNL     1      21.729  -0.230  52.538  1.00  0.00     0.034 A 
HETATM   34 CL1  UNL     1      21.044   0.299  50.992  1.00  0.00    -0.084 Cl
HETATM   35  C18 UNL     1      23.096  -0.132  52.688  1.00  0.00     0.031 A 
ENDBRANCH  28  29
ENDBRANCH  27  28
ENDBRANCH  25  27
ENDBRANCH   2  25
TORSDOF 6
ENDMDL
MODEL 4
REMARK VINA RESULT:      -9.0      3.188      6.422
REMARK  6 active torsions:
REMARK  status: ('A' for Active; 'I' for Inactive)
REMARK    1  A    between atoms: C7_9  and  N3_10 
REMARK       I    between atoms: N3_10  and  C8_11 
REMARK    2  A    between atoms: C8_11  and  C9_13 
REMARK    3  A    between atoms: C10_14  and  N4_15 
REMARK    4  A    between atoms: N4_15  and  C11_16 
REMARK    5  A    between atoms: C11_16  and  C12_17 
REMARK    6  A    between atoms: C12_17  and  C13_18 
ROOT
HETATM    1  C9  UNL     1      26.347   1.178  53.681  1.00  0.00     0.054 A 
HETATM    2  C10 UNL     1      27.314   1.886  53.106  1.00  0.00     0.042 A 
HETATM    3  C19 UNL     1      28.717   1.632  53.397  1.00  0.00     0.046 A 
HETATM    4  C20 UNL     1      29.123   0.689  54.243  1.00  0.00     0.085 A 
HETATM    5  N5  UNL     1      28.081  -0.060  54.852  1.00  0.00    -0.394 N 
HETATM    6  C21 UNL     1      26.659   0.082  54.638  1.00  0.00     0.165 A 
HETATM    7  H24 UNL     1      28.279  -0.835  55.560  1.00  0.00     0.159 HD
ENDROOT
BRANCH   1   8
HETATM    8  C8  UNL     1      24.957   1.444  53.399  1.00  0.00     0.256 C 
HETATM    9  N3  UNL     1      23.999   0.574  52.849  1.00  0.00    -0.323 N 
HETATM   10  H12 UNL     1      24.530  -0.327  52.668  1.00  0.00     0.169 HD
HETATM   11  O1  UNL     1      24.534   2.615  53.685  1.00  0.00    -0.268 OA
BRANCH   9  12
HETATM   12  C7  UNL     1      22.619   0.711  52.566  1.00  0.00     0.034 C 
HETATM   13  C6  UNL     1      21.813  -0.171  53.485  1.00  0.00     0.027 C 
HETATM   14  C5  UNL     1      20.487  -0.531  53.558  1.00  0.00     0.005 C 
HETATM   15  C4  UNL     1      19.200  -0.350  52.909  1.00  0.00     0.300 C 
HETATM   16  N2  UNL     1      18.860   0.299  51.779  1.00  0.00     0.099 NA
HETATM   17  C3  UNL     1      17.516   0.757  51.550  1.00  0.00     0.293 C 
HETATM   18  C25 UNL     1      19.609   1.548  51.943  1.00  0.00     0.329 C 
HETATM   19  C2  UNL     1      17.483   1.990  50.672  1.00  0.00     0.152 C 
HETATM   20  N1  UNL     1      18.741   2.183  49.958  1.00  0.00    -0.385 N 
HETATM   21  C1  UNL     1      19.300   2.564  48.654  1.00  0.00     0.149 C 
HETATM   22  C24 UNL     1      20.026   1.948  50.504  1.00  0.00     0.035 C 
HETATM   23  C23 UNL     1      21.181   1.786  50.928  1.00  0.00     0.029 C 
HETATM   24  C22 UNL     1      22.385   1.472  51.563  1.00  0.00     0.031 C 
ENDBRANCH   9  12
ENDBRANCH   1   8
BRANCH   2  25
HETATM   25  N4  UNL     1      26.923   2.930  52.185  1.00  0.00    -0.389 N 
HETATM   26  H13 UNL     1      26.830   3.901  52.553  1.00  0.00     0.159 HD
BRANCH  25  27
HETATM   27  C11 UNL     1      26.766   2.246  50.915  1.00  0.00     0.124 C 
BRANCH  27  28
HETATM   28  C12 UNL     1      25.708   2.827  50.037  1.00  0.00     0.058 C 
BRANCH  28  29
HETATM   29  C13 UNL     1      26.135   4.103  49.428  1.00  0.00    -0.055 A 
HETATM   30  C14 UNL     1      25.174   5.115  49.308  1.00  0.00     0.007 A 
HETATM   31  C15 UNL     1      25.485   6.359  48.752  1.00  0.00     0.002 A 
HETATM   32  C16 UNL     1      26.760   6.630  48.302  1.00  0.00     0.024 A 
HETATM   33  C17 UNL     1      27.698   5.616  48.429  1.00  0.00     0.034 A 
HETATM   34 CL1  UNL     1      29.356   5.896  47.871  1.00  0.00    -0.084 Cl
HETATM   35  C18 UNL     1      27.417   4.380  48.973  1.00  0.00     0.031 A 
ENDBRANCH  28  29
ENDBRANCH  27  28
ENDBRANCH  25  27
ENDBRANCH   2  25
TORSDOF 6
ENDMDL
MODEL 5
REMARK VINA RESULT:      -8.8      3.619      6.016
REMARK  6 active torsions:
REMARK  status: ('A' for Active; 'I' for Inactive)
REMARK    1  A    between atoms: C7_9  and  N3_10 
REMARK       I    between atoms: N3_10  and  C8_11 
REMARK    2  A    between atoms: C8_11  and  C9_13 
REMARK    3  A    between atoms: C10_14  and  N4_15 
REMARK    4  A    between atoms: N4_15  and  C11_16 
REMARK    5  A    between atoms: C11_16  and  C12_17 
REMARK    6  A    between atoms: C12_17  and  C13_18 
ROOT
HETATM    1  C9  UNL     1      24.398   3.471  49.918  1.00  0.00     0.054 A 
HETATM    2  C10 UNL     1      24.043   3.041  51.125  1.00  0.00     0.042 A 
HETATM    3  C19 UNL     1      22.894   2.167  51.312  1.00  0.00     0.046 A 
HETATM    4  C20 UNL     1      22.134   1.744  50.306  1.00  0.00     0.085 A 
HETATM    5  N5  UNL     1      22.522   2.210  49.022  1.00  0.00    -0.394 N 
HETATM    6  C21 UNL     1      23.644   3.064  48.702  1.00  0.00     0.165 A 
HETATM    7  H24 UNL     1      21.983   1.952  48.137  1.00  0.00     0.159 HD
ENDROOT
BRANCH   1   8
HETATM    8  C8  UNL     1      25.531   4.349  49.741  1.00  0.00     0.256 C 
HETATM    9  N3  UNL     1      25.537   5.677  49.281  1.00  0.00    -0.323 N 
HETATM   10  H12 UNL     1      24.518   5.892  49.072  1.00  0.00     0.169 HD
HETATM   11  O1  UNL     1      26.674   3.867  50.042  1.00  0.00    -0.268 OA
BRANCH   9  12
HETATM   12  C7  UNL     1      26.566   6.633  49.104  1.00  0.00     0.034 C 
HETATM   13  C6  UNL     1      26.349   7.802  50.030  1.00  0.00     0.027 C 
HETATM   14  C5  UNL     1      26.937   9.037  50.178  1.00  0.00     0.005 C 
HETATM   15  C4  UNL     1      27.969   9.902  49.632  1.00  0.00     0.300 C 
HETATM   16  N2  UNL     1      28.777   9.753  48.565  1.00  0.00     0.099 NA
HETATM   17  C3  UNL     1      30.019  10.471  48.457  1.00  0.00     0.293 C 
HETATM   18  C25 UNL     1      29.214   8.366  48.741  1.00  0.00     0.329 C 
HETATM   19  C2  UNL     1      31.044   9.703  47.650  1.00  0.00     0.152 C 
HETATM   20  N1  UNL     1      30.430   8.641  46.860  1.00  0.00    -0.385 N 
HETATM   21  C1  UNL     1      30.465   7.995  45.541  1.00  0.00     0.149 C 
HETATM   22  C24 UNL     1      29.367   7.817  47.300  1.00  0.00     0.035 C 
HETATM   23  C23 UNL     1      28.454   7.043  47.631  1.00  0.00     0.029 C 
HETATM   24  C22 UNL     1      27.378   6.329  48.162  1.00  0.00     0.031 C 
ENDBRANCH   9  12
ENDBRANCH   1   8
BRANCH   2  25
HETATM   25  N4  UNL     1      24.833   3.482  52.252  1.00  0.00    -0.389 N 
HETATM   26  H13 UNL     1      25.267   4.429  52.209  1.00  0.00     0.159 HD
BRANCH  25  27
HETATM   27  C11 UNL     1      24.775   2.373  53.186  1.00  0.00     0.124 C 
BRANCH  27  28
HETATM   28  C12 UNL     1      26.043   2.142  53.938  1.00  0.00     0.058 C 
BRANCH  28  29
HETATM   29  C13 UNL     1      26.668   0.852  53.583  1.00  0.00    -0.055 A 
HETATM   30  C14 UNL     1      25.863  -0.106  52.952  1.00  0.00     0.007 A 
HETATM   31  C15 UNL     1      26.367  -1.352  52.571  1.00  0.00     0.002 A 
HETATM   32  C16 UNL     1      27.686  -1.680  52.807  1.00  0.00     0.024 A 
HETATM   33  C17 UNL     1      28.467  -0.720  53.433  1.00  0.00     0.034 A 
HETATM   34 CL1  UNL     1      30.171  -1.076  53.766  1.00  0.00    -0.084 Cl
HETATM   35  C18 UNL     1      27.995   0.516  53.819  1.00  0.00     0.031 A 
ENDBRANCH  28  29
ENDBRANCH  27  28
ENDBRANCH  25  27
ENDBRANCH   2  25
TORSDOF 6
ENDMDL
MODEL 6
REMARK VINA RESULT:      -8.8      4.490      9.280
REMARK  6 active torsions:
REMARK  status: ('A' for Active; 'I' for Inactive)
REMARK    1  A    between atoms: C7_9  and  N3_10 
REMARK       I    between atoms: N3_10  and  C8_11 
REMARK    2  A    between atoms: C8_11  and  C9_13 
REMARK    3  A    between atoms: C10_14  and  N4_15 
REMARK    4  A    between atoms: N4_15  and  C11_16 
REMARK    5  A    between atoms: C11_16  and  C12_17 
REMARK    6  A    between atoms: C12_17  and  C13_18 
ROOT
HETATM    1  C9  UNL     1      26.514   6.671  48.285  1.00  0.00     0.054 A 
HETATM    2  C10 UNL     1      27.807   6.908  48.088  1.00  0.00     0.042 A 
HETATM    3  C19 UNL     1      28.261   7.853  47.078  1.00  0.00     0.046 A 
HETATM    4  C20 UNL     1      27.427   8.533  46.296  1.00  0.00     0.085 A 
HETATM    5  N5  UNL     1      26.048   8.272  46.515  1.00  0.00    -0.394 N 
HETATM    6  C21 UNL     1      25.471   7.374  47.490  1.00  0.00     0.165 A 
HETATM    7  H24 UNL     1      25.282   8.746  45.941  1.00  0.00     0.159 HD
ENDROOT
BRANCH   1   8
HETATM    8  C8  UNL     1      26.071   5.722  49.279  1.00  0.00     0.256 C 
HETATM    9  N3  UNL     1      26.071   4.319  49.202  1.00  0.00    -0.323 N 
HETATM   10  H12 UNL     1      26.456   4.104  48.236  1.00  0.00     0.169 HD
HETATM   11  O1  UNL     1      25.625   6.211  50.371  1.00  0.00    -0.268 OA
BRANCH   9  12
HETATM   12  C7  UNL     1      25.702   3.301  50.114  1.00  0.00     0.034 C 
HETATM   13  C6  UNL     1      24.214   3.071  50.058  1.00  0.00     0.027 C 
HETATM   14  C5  UNL     1      23.324   2.330  50.801  1.00  0.00     0.005 C 
HETATM   15  C4  UNL     1      23.229   1.439  51.944  1.00  0.00     0.300 C 
HETATM   16  N2  UNL     1      24.155   1.043  52.838  1.00  0.00     0.099 NA
HETATM   17  C3  UNL     1      23.999  -0.170  53.595  1.00  0.00     0.293 C 
HETATM   18  C25 UNL     1      25.280   0.734  51.952  1.00  0.00     0.329 C 
HETATM   19  C2  UNL     1      25.334  -0.784  53.958  1.00  0.00     0.152 C 
HETATM   20  N1  UNL     1      26.429   0.170  53.812  1.00  0.00    -0.385 N 
HETATM   21  C1  UNL     1      27.665   0.639  54.451  1.00  0.00     0.149 C 
HETATM   22  C24 UNL     1      26.540   1.120  52.768  1.00  0.00     0.035 C 
HETATM   23  C23 UNL     1      26.713   1.958  51.869  1.00  0.00     0.029 C 
HETATM   24  C22 UNL     1      26.685   2.878  50.819  1.00  0.00     0.031 C 
ENDBRANCH   9  12
ENDBRANCH   1   8
BRANCH   2  25
HETATM   25  N4  UNL     1      28.753   6.184  48.907  1.00  0.00    -0.389 N 
HETATM   26  H13 UNL     1      28.456   5.895  49.863  1.00  0.00     0.159 HD
BRANCH  25  27
HETATM   27  C11 UNL     1      29.934   6.067  48.071  1.00  0.00     0.124 C 
BRANCH  27  28
HETATM   28  C12 UNL     1      31.214   6.348  48.784  1.00  0.00     0.058 C 
BRANCH  28  29
HETATM   29  C13 UNL     1      32.279   5.398  48.402  1.00  0.00    -0.055 A 
HETATM   30  C14 UNL     1      33.606   5.793  48.615  1.00  0.00     0.007 A 
HETATM   31  C15 UNL     1      34.680   4.960  48.293  1.00  0.00     0.002 A 
HETATM   32  C16 UNL     1      34.464   3.710  47.751  1.00  0.00     0.024 A 
HETATM   33  C17 UNL     1      33.144   3.336  47.546  1.00  0.00     0.034 A 
HETATM   34 CL1  UNL     1      32.794   1.744  46.852  1.00  0.00    -0.084 Cl
HETATM   35  C18 UNL     1      32.066   4.139  47.855  1.00  0.00     0.031 A 
ENDBRANCH  28  29
ENDBRANCH  27  28
ENDBRANCH  25  27
ENDBRANCH   2  25
TORSDOF 6
ENDMDL
MODEL 7
REMARK VINA RESULT:      -8.7      2.936      5.990
REMARK  6 active torsions:
REMARK  status: ('A' for Active; 'I' for Inactive)
REMARK    1  A    between atoms: C7_9  and  N3_10 
REMARK       I    between atoms: N3_10  and  C8_11 
REMARK    2  A    between atoms: C8_11  and  C9_13 
REMARK    3  A    between atoms: C10_14  and  N4_15 
REMARK    4  A    between atoms: N4_15  and  C11_16 
REMARK    5  A    between atoms: C11_16  and  C12_17 
REMARK    6  A    between atoms: C12_17  and  C13_18 
ROOT
HETATM    1  C9  UNL     1      26.431   0.527  53.646  1.00  0.00     0.054 A 
HETATM    2  C10 UNL     1      27.289   1.003  52.748  1.00  0.00     0.042 A 
HETATM    3  C19 UNL     1      28.677   1.273  53.092  1.00  0.00     0.046 A 
HETATM    4  C20 UNL     1      29.176   1.064  54.307  1.00  0.00     0.085 A 
HETATM    5  N5  UNL     1      28.251   0.557  55.258  1.00  0.00    -0.394 N 
HETATM    6  C21 UNL     1      26.859   0.235  55.040  1.00  0.00     0.165 A 
HETATM    7  H24 UNL     1      28.528   0.362  56.271  1.00  0.00     0.159 HD
ENDROOT
BRANCH   1   8
HETATM    8  C8  UNL     1      25.052   0.275  53.302  1.00  0.00     0.256 C 
HETATM    9  N3  UNL     1      23.956   1.148  53.407  1.00  0.00    -0.323 N 
HETATM   10  H12 UNL     1      24.363   2.040  53.816  1.00  0.00     0.169 HD
HETATM   11  O1  UNL     1      24.786  -0.885  52.838  1.00  0.00    -0.268 OA
BRANCH   9  12
HETATM   12  C7  UNL     1      22.587   1.026  53.071  1.00  0.00     0.034 C 
HETATM   13  C6  UNL     1      21.921   0.017  53.971  1.00  0.00     0.027 C 
HETATM   14  C5  UNL     1      20.683  -0.581  53.999  1.00  0.00     0.005 C 
HETATM   15  C4  UNL     1      19.411  -0.646  53.299  1.00  0.00     0.300 C 
HETATM   16  N2  UNL     1      19.003  -0.079  52.148  1.00  0.00     0.099 NA
HETATM   17  C3  UNL     1      17.608   0.121  51.861  1.00  0.00     0.293 C 
HETATM   18  C25 UNL     1      19.502   1.287  52.321  1.00  0.00     0.329 C 
HETATM   19  C2  UNL     1      17.383   1.320  50.965  1.00  0.00     0.152 C 
HETATM   20  N1  UNL     1      18.612   1.736  50.296  1.00  0.00    -0.385 N 
HETATM   21  C1  UNL     1      19.142   2.204  49.009  1.00  0.00     0.149 C 
HETATM   22  C24 UNL     1      19.894   1.746  50.894  1.00  0.00     0.035 C 
HETATM   23  C23 UNL     1      21.042   1.804  51.364  1.00  0.00     0.029 C 
HETATM   24  C22 UNL     1      22.257   1.723  52.048  1.00  0.00     0.031 C 
ENDBRANCH   9  12
ENDBRANCH   1   8
BRANCH   2  25
HETATM   25  N4  UNL     1      26.790   1.256  51.414  1.00  0.00    -0.389 N 
HETATM   26  H13 UNL     1      26.572   0.437  50.807  1.00  0.00     0.159 HD
BRANCH  25  27
HETATM   27  C11 UNL     1      26.739   2.703  51.320  1.00  0.00     0.124 C 
BRANCH  27  28
HETATM   28  C12 UNL     1      26.509   3.215  49.937  1.00  0.00     0.058 C 
BRANCH  28  29
HETATM   29  C13 UNL     1      25.238   3.960  49.829  1.00  0.00    -0.055 A 
HETATM   30  C14 UNL     1      24.158   3.311  49.215  1.00  0.00     0.007 A 
HETATM   31  C15 UNL     1      22.914   3.932  49.074  1.00  0.00     0.002 A 
HETATM   32  C16 UNL     1      22.710   5.214  49.541  1.00  0.00     0.024 A 
HETATM   33  C17 UNL     1      23.790   5.840  50.145  1.00  0.00     0.034 A 
HETATM   34 CL1  UNL     1      23.597   7.488  50.767  1.00  0.00    -0.084 Cl
HETATM   35  C18 UNL     1      25.027   5.250  50.297  1.00  0.00     0.031 A 
ENDBRANCH  28  29
ENDBRANCH  27  28
ENDBRANCH  25  27
ENDBRANCH   2  25
TORSDOF 6
ENDMDL
MODEL 8
REMARK VINA RESULT:      -8.6      2.992      5.494
REMARK  6 active torsions:
REMARK  status: ('A' for Active; 'I' for Inactive)
REMARK    1  A    between atoms: C7_9  and  N3_10 
REMARK       I    between atoms: N3_10  and  C8_11 
REMARK    2  A    between atoms: C8_11  and  C9_13 
REMARK    3  A    between atoms: C10_14  and  N4_15 
REMARK    4  A    between atoms: N4_15  and  C11_16 
REMARK    5  A    between atoms: C11_16  and  C12_17 
REMARK    6  A    between atoms: C12_17  and  C13_18 
ROOT
HETATM    1  C9  UNL     1      21.777   0.747  52.874  1.00  0.00     0.054 A 
HETATM    2  C10 UNL     1      22.727   0.098  53.540  1.00  0.00     0.042 A 
HETATM    3  C19 UNL     1      22.413  -1.022  54.415  1.00  0.00     0.046 A 
HETATM    4  C20 UNL     1      21.173  -1.466  54.605  1.00  0.00     0.085 A 
HETATM    5  N5  UNL     1      20.166  -0.765  53.890  1.00  0.00    -0.394 N 
HETATM    6  C21 UNL     1      20.348   0.346  52.983  1.00  0.00     0.165 A 
HETATM    7  H24 UNL     1      19.132  -1.019  53.970  1.00  0.00     0.159 HD
ENDROOT
BRANCH   1   8
HETATM    8  C8  UNL     1      22.095   1.865  52.018  1.00  0.00     0.256 C 
HETATM    9  N3  UNL     1      21.984   3.237  52.304  1.00  0.00    -0.323 N 
HETATM   10  H12 UNL     1      21.595   3.274  53.291  1.00  0.00     0.169 HD
HETATM   11  O1  UNL     1      22.536   1.582  50.854  1.00  0.00    -0.268 OA
BRANCH   9  12
HETATM   12  C7  UNL     1      22.297   4.405  51.568  1.00  0.00     0.034 C 
HETATM   13  C6  UNL     1      23.791   4.580  51.486  1.00  0.00     0.027 C 
HETATM   14  C5  UNL     1      24.621   5.579  51.033  1.00  0.00     0.005 C 
HETATM   15  C4  UNL     1      24.622   6.907  50.445  1.00  0.00     0.300 C 
HETATM   16  N2  UNL     1      23.613   7.758  50.174  1.00  0.00     0.099 NA
HETATM   17  C3  UNL     1      23.751   8.799  49.192  1.00  0.00     0.293 C 
HETATM   18  C25 UNL     1      22.646   6.849  49.554  1.00  0.00     0.329 C 
HETATM   19  C2  UNL     1      22.426   9.142  48.545  1.00  0.00     0.152 C 
HETATM   20  N1  UNL     1      21.296   8.643  49.322  1.00  0.00    -0.385 N 
HETATM   21  C1  UNL     1      19.953   9.001  49.796  1.00  0.00     0.149 C 
HETATM   22  C24 UNL     1      21.261   7.394  49.987  1.00  0.00     0.035 C 
HETATM   23  C23 UNL     1      21.154   6.304  50.572  1.00  0.00     0.029 C 
HETATM   24  C22 UNL     1      21.259   5.073  51.222  1.00  0.00     0.031 C 
ENDBRANCH   9  12
ENDBRANCH   1   8
BRANCH   2  25
HETATM   25  N4  UNL     1      24.090   0.551  53.373  1.00  0.00    -0.389 N 
HETATM   26  H13 UNL     1      24.248   1.543  53.093  1.00  0.00     0.159 HD
BRANCH  25  27
HETATM   27  C11 UNL     1      24.895  -0.617  53.677  1.00  0.00     0.124 C 
BRANCH  27  28
HETATM   28  C12 UNL     1      25.875  -0.976  52.611  1.00  0.00     0.058 C 
BRANCH  28  29
HETATM   29  C13 UNL     1      27.260  -0.639  52.998  1.00  0.00    -0.055 A 
HETATM   30  C14 UNL     1      28.201  -1.677  53.001  1.00  0.00     0.007 A 
HETATM   31  C15 UNL     1      29.537  -1.455  53.345  1.00  0.00     0.002 A 
HETATM   32  C16 UNL     1      29.974  -0.194  53.694  1.00  0.00     0.024 A 
HETATM   33  C17 UNL     1      29.028   0.820  53.686  1.00  0.00     0.034 A 
HETATM   34 CL1  UNL     1      29.521   2.465  54.125  1.00  0.00    -0.084 Cl
HETATM   35  C18 UNL     1      27.705   0.628  53.351  1.00  0.00     0.031 A 
ENDBRANCH  28  29
ENDBRANCH  27  28
ENDBRANCH  25  27
ENDBRANCH   2  25
TORSDOF 6
ENDMDL
MODEL 9
REMARK VINA RESULT:      -8.6      2.678      3.306
REMARK  6 active torsions:
REMARK  status: ('A' for Active; 'I' for Inactive)
REMARK    1  A    between atoms: C7_9  and  N3_10 
REMARK       I    between atoms: N3_10  and  C8_11 
REMARK    2  A    between atoms: C8_11  and  C9_13 
REMARK    3  A    between atoms: C10_14  and  N4_15 
REMARK    4  A    between atoms: N4_15  and  C11_16 
REMARK    5  A    between atoms: C11_16  and  C12_17 
REMARK    6  A    between atoms: C12_17  and  C13_18 
ROOT
HETATM    1  C9  UNL     1      25.070   1.649  53.216  1.00  0.00     0.054 A 
HETATM    2  C10 UNL     1      24.676   0.393  53.405  1.00  0.00     0.042 A 
HETATM    3  C19 UNL     1      25.427  -0.518  54.257  1.00  0.00     0.046 A 
HETATM    4  C20 UNL     1      26.539  -0.163  54.894  1.00  0.00     0.085 A 
HETATM    5  N5  UNL     1      26.951   1.180  54.684  1.00  0.00    -0.394 N 
HETATM    6  C21 UNL     1      26.290   2.183  53.880  1.00  0.00     0.165 A 
HETATM    7  H24 UNL     1      27.836   1.578  55.130  1.00  0.00     0.159 HD
ENDROOT
BRANCH   1   8
HETATM    8  C8  UNL     1      24.329   2.544  52.359  1.00  0.00     0.256 C 
HETATM    9  N3  UNL     1      23.631   3.711  52.717  1.00  0.00    -0.323 N 
HETATM   10  H12 UNL     1      23.754   3.784  53.769  1.00  0.00     0.169 HD
HETATM   11  O1  UNL     1      24.302   2.248  51.118  1.00  0.00    -0.268 OA
BRANCH   9  12
HETATM   12  C7  UNL     1      22.911   4.673  51.969  1.00  0.00     0.034 C 
HETATM   13  C6  UNL     1      21.509   4.184  51.711  1.00  0.00     0.027 C 
HETATM   14  C5  UNL     1      20.458   4.629  50.943  1.00  0.00     0.005 C 
HETATM   15  C4  UNL     1      20.063   5.675  50.016  1.00  0.00     0.300 C 
HETATM   16  N2  UNL     1      20.763   6.687  49.470  1.00  0.00     0.099 NA
HETATM   17  C3  UNL     1      20.112   7.864  48.960  1.00  0.00     0.293 C 
HETATM   18  C25 UNL     1      21.480   7.192  50.644  1.00  0.00     0.329 C 
HETATM   19  C2  UNL     1      20.998   9.087  49.062  1.00  0.00     0.152 C 
HETATM   20  N1  UNL     1      22.398   8.729  49.269  1.00  0.00    -0.385 N 
HETATM   21  C1  UNL     1      23.766   9.076  48.864  1.00  0.00     0.149 C 
HETATM   22  C24 UNL     1      22.848   7.671  50.094  1.00  0.00     0.035 C 
HETATM   23  C23 UNL     1      23.311   6.776  50.819  1.00  0.00     0.029 C 
HETATM   24  C22 UNL     1      23.626   5.677  51.622  1.00  0.00     0.031 C 
ENDBRANCH   9  12
ENDBRANCH   1   8
BRANCH   2  25
HETATM   25  N4  UNL     1      23.477  -0.042  52.725  1.00  0.00    -0.389 N 
HETATM   26  H13 UNL     1      23.425   0.084  51.691  1.00  0.00     0.159 HD
BRANCH  25  27
HETATM   27  C11 UNL     1      22.638  -0.571  53.783  1.00  0.00     0.124 C 
BRANCH  27  28
HETATM   28  C12 UNL     1      21.503   0.320  54.164  1.00  0.00     0.058 C 
BRANCH  28  29
HETATM   29  C13 UNL     1      20.270  -0.010  53.421  1.00  0.00    -0.055 A 
HETATM   30  C14 UNL     1      19.927   0.813  52.339  1.00  0.00     0.007 A 
HETATM   31  C15 UNL     1      18.783   0.576  51.572  1.00  0.00     0.002 A 
HETATM   32  C16 UNL     1      17.950  -0.485  51.858  1.00  0.00     0.024 A 
HETATM   33  C17 UNL     1      18.305  -1.287  52.932  1.00  0.00     0.034 A 
HETATM   34 CL1  UNL     1      17.279  -2.668  53.356  1.00  0.00    -0.084 Cl
HETATM   35  C18 UNL     1      19.427  -1.076  53.705  1.00  0.00     0.031 A 
ENDBRANCH  28  29
ENDBRANCH  27  28
ENDBRANCH  25  27
ENDBRANCH   2  25
TORSDOF 6
ENDMDL
