MODEL 1
REMARK VINA RESULT:      -7.7      0.000      0.000
REMARK  4 active torsions:
REMARK  status: ('A' for Active; 'I' for Inactive)
REMARK    1  A    between atoms: N3_14  and  C10_15 
REMARK    2  A    between atoms: C10_15  and  C11_16 
REMARK    3  A    between atoms: C11_16  and  C12_17 
REMARK    4  A    between atoms: C12_17  and  N4_18 
ROOT
HETATM    1  O1  UNL     1      21.728  -1.468  54.380  1.00  0.00    -0.271 OA
HETATM    2  C1  UNL     1      21.569  -0.477  53.584  1.00  0.00     0.247 C 
HETATM    3  C2  UNL     1      20.121  -0.352  53.464  1.00  0.00     0.278 C 
HETATM    4  O2  UNL     1      19.620   0.815  52.736  1.00  0.00    -0.341 OA
HETATM    5  C3  UNL     1      20.267   1.771  51.962  1.00  0.00     0.076 C 
HETATM    6  C4  UNL     1      20.318   3.080  52.083  1.00  0.00     0.067 C 
HETATM    7  C5  UNL     1      21.695   3.613  51.928  1.00  0.00     0.068 A 
HETATM    8  N1  UNL     1      22.075   4.737  52.447  1.00  0.00    -0.244 NA
HETATM    9  C6  UNL     1      23.480   4.876  52.082  1.00  0.00     0.228 A 
HETATM   10  N2  UNL     1      23.901   3.885  51.384  1.00  0.00    -0.267 NA
HETATM   11  C7  UNL     1      22.901   2.981  51.171  1.00  0.00     0.196 A 
HETATM   12  C8  UNL     1      22.861   1.572  51.457  1.00  0.00    -0.003 C 
HETATM   13  C9  UNL     1      23.512   0.782  52.272  1.00  0.00     0.104 C 
HETATM   14  N3  UNL     1      22.931  -0.080  53.283  1.00  0.00    -0.326 N 
HETATM   15  P1  UNL     1      21.260   1.002  50.500  1.00  0.00    -0.035 P 
HETATM   16  H23 UNL     1      21.116   1.741  49.322  1.00  0.00     0.069 HD
ENDROOT
BRANCH  14  17
HETATM   17  C10 UNL     1      24.052  -0.526  54.051  1.00  0.00     0.133 C 
BRANCH  17  18
HETATM   18  C11 UNL     1      25.389  -0.295  53.386  1.00  0.00     0.050 C 
BRANCH  18  19
HETATM   19  C12 UNL     1      26.327   0.443  54.322  1.00  0.00     0.274 C 
BRANCH  19  20
HETATM   20  N4  UNL     1      27.648  -0.158  54.316  1.00  0.00     0.088 N 
HETATM   21  C13 UNL     1      27.590  -1.184  53.270  1.00  0.00     0.272 C 
HETATM   22  C14 UNL     1      28.912  -1.810  52.982  1.00  0.00     0.030 C 
HETATM   23  C15 UNL     1      30.028  -1.211  53.815  1.00  0.00     0.003 C 
HETATM   24  C16 UNL     1      29.958   0.293  53.572  1.00  0.00     0.030 C 
HETATM   25  C17 UNL     1      28.625   0.847  54.000  1.00  0.00     0.272 C 
ENDBRANCH  19  20
ENDBRANCH  18  19
ENDBRANCH  17  18
ENDBRANCH  14  17
TORSDOF 4
ENDMDL
MODEL 2
REMARK VINA RESULT:      -7.3      3.283      4.407
REMARK  4 active torsions:
REMARK  status: ('A' for Active; 'I' for Inactive)
REMARK    1  A    between atoms: N3_14  and  C10_15 
REMARK    2  A    between atoms: C10_15  and  C11_16 
REMARK    3  A    between atoms: C11_16  and  C12_17 
REMARK    4  A    between atoms: C12_17  and  N4_18 
ROOT
HETATM    1  O1  UNL     1      27.139   3.235  50.717  1.00  0.00    -0.271 OA
HETATM    2  C1  UNL     1      25.933   3.526  50.398  1.00  0.00     0.247 C 
HETATM    3  C2  UNL     1      26.074   4.633  49.460  1.00  0.00     0.278 C 
HETATM    4  O2  UNL     1      24.855   5.082  48.786  1.00  0.00    -0.341 OA
HETATM    5  C3  UNL     1      23.516   4.772  48.990  1.00  0.00     0.076 C 
HETATM    6  C4  UNL     1      22.620   4.261  48.172  1.00  0.00     0.067 C 
HETATM    7  C5  UNL     1      21.834   3.168  48.797  1.00  0.00     0.068 A 
HETATM    8  N1  UNL     1      21.261   2.233  48.110  1.00  0.00    -0.244 NA
HETATM    9  C6  UNL     1      20.623   1.366  49.092  1.00  0.00     0.228 A 
HETATM   10  N2  UNL     1      20.812   1.773  50.295  1.00  0.00    -0.267 NA
HETATM   11  C7  UNL     1      21.554   2.918  50.310  1.00  0.00     0.196 A 
HETATM   12  C8  UNL     1      22.782   3.208  51.000  1.00  0.00    -0.003 C 
HETATM   13  C9  UNL     1      23.747   2.481  51.500  1.00  0.00     0.104 C 
HETATM   14  N3  UNL     1      25.156   2.572  51.167  1.00  0.00    -0.326 N 
HETATM   15  P1  UNL     1      22.928   5.141  50.787  1.00  0.00    -0.035 P 
HETATM   16  H23 UNL     1      21.658   5.725  50.814  1.00  0.00     0.069 HD
ENDROOT
BRANCH  14  17
HETATM   17  C10 UNL     1      25.737   1.419  51.781  1.00  0.00     0.133 C 
BRANCH  17  18
HETATM   18  C11 UNL     1      24.783   0.632  52.649  1.00  0.00     0.050 C 
BRANCH  18  19
HETATM   19  C12 UNL     1      25.518  -0.479  53.375  1.00  0.00     0.274 C 
BRANCH  19  20
HETATM   20  N4  UNL     1      26.954  -0.274  53.327  1.00  0.00     0.088 N 
HETATM   21  C13 UNL     1      27.319   0.148  54.684  1.00  0.00     0.272 C 
HETATM   22  C14 UNL     1      28.791   0.246  54.895  1.00  0.00     0.030 C 
HETATM   23  C15 UNL     1      29.580  -0.152  53.663  1.00  0.00     0.003 C 
HETATM   24  C16 UNL     1      29.072  -1.539  53.283  1.00  0.00     0.030 C 
HETATM   25  C17 UNL     1      27.598  -1.510  52.979  1.00  0.00     0.272 C 
ENDBRANCH  19  20
ENDBRANCH  18  19
ENDBRANCH  17  18
ENDBRANCH  14  17
TORSDOF 4
ENDMDL
MODEL 3
REMARK VINA RESULT:      -7.3      2.950      4.123
REMARK  4 active torsions:
REMARK  status: ('A' for Active; 'I' for Inactive)
REMARK    1  A    between atoms: N3_14  and  C10_15 
REMARK    2  A    between atoms: C10_15  and  C11_16 
REMARK    3  A    between atoms: C11_16  and  C12_17 
REMARK    4  A    between atoms: C12_17  and  N4_18 
ROOT
HETATM    1  O1  UNL     1      26.746   2.993  50.794  1.00  0.00    -0.271 OA
HETATM    2  C1  UNL     1      25.583   3.518  50.681  1.00  0.00     0.247 C 
HETATM    3  C2  UNL     1      25.617   4.168  49.376  1.00  0.00     0.278 C 
HETATM    4  O2  UNL     1      24.354   4.725  48.888  1.00  0.00    -0.341 OA
HETATM    5  C3  UNL     1      23.126   4.919  49.509  1.00  0.00     0.076 C 
HETATM    6  C4  UNL     1      21.928   4.471  49.198  1.00  0.00     0.067 C 
HETATM    7  C5  UNL     1      21.199   3.931  50.372  1.00  0.00     0.068 A 
HETATM    8  N1  UNL     1      20.260   3.046  50.269  1.00  0.00    -0.244 NA
HETATM    9  C6  UNL     1      19.830   2.777  51.636  1.00  0.00     0.228 A 
HETATM   10  N2  UNL     1      20.484   3.470  52.496  1.00  0.00    -0.267 NA
HETATM   11  C7  UNL     1      21.395   4.276  51.879  1.00  0.00     0.196 A 
HETATM   12  C8  UNL     1      22.814   4.384  52.086  1.00  0.00    -0.003 C 
HETATM   13  C9  UNL     1      23.731   3.598  52.589  1.00  0.00     0.104 C 
HETATM   14  N3  UNL     1      24.937   3.145  51.925  1.00  0.00    -0.326 N 
HETATM   15  P1  UNL     1      23.253   6.006  51.095  1.00  0.00    -0.035 P 
HETATM   16  H23 UNL     1      22.204   6.924  51.187  1.00  0.00     0.069 HD
ENDROOT
BRANCH  14  17
HETATM   17  C10 UNL     1      25.454   2.130  52.790  1.00  0.00     0.133 C 
BRANCH  17  18
HETATM   18  C11 UNL     1      24.665   0.843  52.775  1.00  0.00     0.050 C 
BRANCH  18  19
HETATM   19  C12 UNL     1      25.383  -0.230  53.572  1.00  0.00     0.274 C 
BRANCH  19  20
HETATM   20  N4  UNL     1      26.823  -0.090  53.458  1.00  0.00     0.088 N 
HETATM   21  C13 UNL     1      27.284   0.172  54.826  1.00  0.00     0.272 C 
HETATM   22  C14 UNL     1      28.768   0.179  54.957  1.00  0.00     0.030 C 
HETATM   23  C15 UNL     1      29.466  -0.128  53.646  1.00  0.00     0.003 C 
HETATM   24  C16 UNL     1      28.865  -1.443  53.162  1.00  0.00     0.030 C 
HETATM   25  C17 UNL     1      27.381  -1.313  52.951  1.00  0.00     0.272 C 
ENDBRANCH  19  20
ENDBRANCH  18  19
ENDBRANCH  17  18
ENDBRANCH  14  17
TORSDOF 4
ENDMDL
MODEL 4
REMARK VINA RESULT:      -7.0      1.766      2.501
REMARK  4 active torsions:
REMARK  status: ('A' for Active; 'I' for Inactive)
REMARK    1  A    between atoms: N3_14  and  C10_15 
REMARK    2  A    between atoms: C10_15  and  C11_16 
REMARK    3  A    between atoms: C11_16  and  C12_17 
REMARK    4  A    between atoms: C12_17  and  N4_18 
ROOT
HETATM    1  O1  UNL     1      20.677   1.386  53.428  1.00  0.00    -0.271 OA
HETATM    2  C1  UNL     1      21.066   2.133  52.463  1.00  0.00     0.247 C 
HETATM    3  C2  UNL     1      20.003   3.122  52.333  1.00  0.00     0.278 C 
HETATM    4  O2  UNL     1      20.243   4.227  51.404  1.00  0.00    -0.341 OA
HETATM    5  C3  UNL     1      21.240   4.442  50.459  1.00  0.00     0.076 C 
HETATM    6  C4  UNL     1      22.103   5.428  50.334  1.00  0.00     0.067 C 
HETATM    7  C5  UNL     1      23.483   4.948  50.072  1.00  0.00     0.068 A 
HETATM    8  N1  UNL     1      24.536   5.641  50.369  1.00  0.00    -0.244 NA
HETATM    9  C6  UNL     1      25.668   4.813  49.974  1.00  0.00     0.228 A 
HETATM   10  N2  UNL     1      25.298   3.692  49.471  1.00  0.00    -0.267 NA
HETATM   11  C7  UNL     1      23.938   3.600  49.437  1.00  0.00     0.196 A 
HETATM   12  C8  UNL     1      23.073   2.588  49.981  1.00  0.00    -0.003 C 
HETATM   13  C9  UNL     1      23.191   1.689  50.925  1.00  0.00     0.104 C 
HETATM   14  N3  UNL     1      22.333   1.537  52.083  1.00  0.00    -0.326 N 
HETATM   15  P1  UNL     1      21.359   3.024  49.160  1.00  0.00    -0.035 P 
HETATM   16  H23 UNL     1      21.557   3.515  47.866  1.00  0.00     0.069 HD
ENDROOT
BRANCH  14  17
HETATM   17  C10 UNL     1      23.024   0.598  52.912  1.00  0.00     0.133 C 
BRANCH  17  18
HETATM   18  C11 UNL     1      24.523   0.780  52.936  1.00  0.00     0.050 C 
BRANCH  18  19
HETATM   19  C12 UNL     1      25.161  -0.190  53.912  1.00  0.00     0.274 C 
BRANCH  19  20
HETATM   20  N4  UNL     1      26.527   0.195  54.213  1.00  0.00     0.088 N 
HETATM   21  C13 UNL     1      27.358  -0.719  53.422  1.00  0.00     0.272 C 
HETATM   22  C14 UNL     1      28.809  -0.377  53.457  1.00  0.00     0.030 C 
HETATM   23  C15 UNL     1      29.090   0.869  54.274  1.00  0.00     0.003 C 
HETATM   24  C16 UNL     1      28.184   1.950  53.695  1.00  0.00     0.030 C 
HETATM   25  C17 UNL     1      26.735   1.559  53.811  1.00  0.00     0.272 C 
ENDBRANCH  19  20
ENDBRANCH  18  19
ENDBRANCH  17  18
ENDBRANCH  14  17
TORSDOF 4
ENDMDL
MODEL 5
REMARK VINA RESULT:      -7.0      2.372      3.356
REMARK  4 active torsions:
REMARK  status: ('A' for Active; 'I' for Inactive)
REMARK    1  A    between atoms: N3_14  and  C10_15 
REMARK    2  A    between atoms: C10_15  and  C11_16 
REMARK    3  A    between atoms: C11_16  and  C12_17 
REMARK    4  A    between atoms: C12_17  and  N4_18 
ROOT
HETATM    1  O1  UNL     1      21.997   2.073  52.952  1.00  0.00    -0.271 OA
HETATM    2  C1  UNL     1      22.138   3.037  52.121  1.00  0.00     0.247 C 
HETATM    3  C2  UNL     1      20.788   3.566  51.964  1.00  0.00     0.278 C 
HETATM    4  O2  UNL     1      20.651   4.799  51.187  1.00  0.00    -0.341 OA
HETATM    5  C3  UNL     1      21.554   5.500  50.396  1.00  0.00     0.076 C 
HETATM    6  C4  UNL     1      21.976   6.744  50.476  1.00  0.00     0.067 C 
HETATM    7  C5  UNL     1      23.450   6.856  50.336  1.00  0.00     0.068 A 
HETATM    8  N1  UNL     1      24.129   7.843  50.826  1.00  0.00    -0.244 NA
HETATM    9  C6  UNL     1      25.519   7.562  50.490  1.00  0.00     0.228 A 
HETATM   10  N2  UNL     1      25.648   6.466  49.834  1.00  0.00    -0.267 NA
HETATM   11  C7  UNL     1      24.434   5.877  49.628  1.00  0.00     0.196 A 
HETATM   12  C8  UNL     1      23.989   4.550  49.958  1.00  0.00    -0.003 C 
HETATM   13  C9  UNL     1      24.376   3.639  50.814  1.00  0.00     0.104 C 
HETATM   14  N3  UNL     1      23.560   3.018  51.839  1.00  0.00    -0.326 N 
HETATM   15  P1  UNL     1      22.305   4.425  48.984  1.00  0.00    -0.035 P 
HETATM   16  H23 UNL     1      22.392   5.129  47.780  1.00  0.00     0.069 HD
ENDROOT
BRANCH  14  17
HETATM   17  C10 UNL     1      24.498   2.299  52.646  1.00  0.00     0.133 C 
BRANCH  17  18
HETATM   18  C11 UNL     1      25.244   1.212  51.909  1.00  0.00     0.050 C 
BRANCH  18  19
HETATM   19  C12 UNL     1      25.625   0.092  52.858  1.00  0.00     0.274 C 
BRANCH  19  20
HETATM   20  N4  UNL     1      27.065   0.008  53.015  1.00  0.00     0.088 N 
HETATM   21  C13 UNL     1      27.315   0.402  54.406  1.00  0.00     0.272 C 
HETATM   22  C14 UNL     1      28.733   0.217  54.826  1.00  0.00     0.030 C 
HETATM   23  C15 UNL     1      29.589  -0.377  53.724  1.00  0.00     0.003 C 
HETATM   24  C16 UNL     1      28.872  -1.651  53.291  1.00  0.00     0.030 C 
HETATM   25  C17 UNL     1      27.490  -1.344  52.777  1.00  0.00     0.272 C 
ENDBRANCH  19  20
ENDBRANCH  18  19
ENDBRANCH  17  18
ENDBRANCH  14  17
TORSDOF 4
ENDMDL
MODEL 6
REMARK VINA RESULT:      -6.9      3.634      5.414
REMARK  4 active torsions:
REMARK  status: ('A' for Active; 'I' for Inactive)
REMARK    1  A    between atoms: N3_14  and  C10_15 
REMARK    2  A    between atoms: C10_15  and  C11_16 
REMARK    3  A    between atoms: C11_16  and  C12_17 
REMARK    4  A    between atoms: C12_17  and  N4_18 
ROOT
HETATM    1  O1  UNL     1      26.203   3.849  50.331  1.00  0.00    -0.271 OA
HETATM    2  C1  UNL     1      24.968   4.190  50.304  1.00  0.00     0.247 C 
HETATM    3  C2  UNL     1      24.816   4.856  49.016  1.00  0.00     0.278 C 
HETATM    4  O2  UNL     1      23.454   5.219  48.621  1.00  0.00    -0.341 OA
HETATM    5  C3  UNL     1      22.254   5.212  49.323  1.00  0.00     0.076 C 
HETATM    6  C4  UNL     1      21.121   4.589  49.077  1.00  0.00     0.067 C 
HETATM    7  C5  UNL     1      20.562   3.926  50.281  1.00  0.00     0.068 A 
HETATM    8  N1  UNL     1      19.764   2.909  50.215  1.00  0.00    -0.244 NA
HETATM    9  C6  UNL     1      19.471   2.556  51.599  1.00  0.00     0.228 A 
HETATM   10  N2  UNL     1      20.067   3.329  52.433  1.00  0.00    -0.267 NA
HETATM   11  C7  UNL     1      20.801   4.275  51.781  1.00  0.00     0.196 A 
HETATM   12  C8  UNL     1      22.198   4.598  51.900  1.00  0.00    -0.003 C 
HETATM   13  C9  UNL     1      23.255   3.955  52.326  1.00  0.00     0.104 C 
HETATM   14  N3  UNL     1      24.470   3.704  51.577  1.00  0.00    -0.326 N 
HETATM   15  P1  UNL     1      22.317   6.282  50.924  1.00  0.00    -0.035 P 
HETATM   16  H23 UNL     1      21.148   7.026  51.104  1.00  0.00     0.069 HD
ENDROOT
BRANCH  14  17
HETATM   17  C10 UNL     1      25.192   2.768  52.383  1.00  0.00     0.133 C 
BRANCH  17  18
HETATM   18  C11 UNL     1      24.317   1.875  53.228  1.00  0.00     0.050 C 
BRANCH  18  19
HETATM   19  C12 UNL     1      24.435   0.432  52.776  1.00  0.00     0.274 C 
BRANCH  19  20
HETATM   20  N4  UNL     1      23.293  -0.348  53.216  1.00  0.00     0.088 N 
HETATM   21  C13 UNL     1      23.683  -0.877  54.528  1.00  0.00     0.272 C 
HETATM   22  C14 UNL     1      22.572  -1.574  55.237  1.00  0.00     0.030 C 
HETATM   23  C15 UNL     1      21.275  -1.542  54.452  1.00  0.00     0.003 C 
HETATM   24  C16 UNL     1      21.022  -0.070  54.142  1.00  0.00     0.030 C 
HETATM   25  C17 UNL     1      22.146   0.510  53.326  1.00  0.00     0.272 C 
ENDBRANCH  19  20
ENDBRANCH  18  19
ENDBRANCH  17  18
ENDBRANCH  14  17
TORSDOF 4
ENDMDL
MODEL 7
REMARK VINA RESULT:      -6.7      3.374      4.751
REMARK  4 active torsions:
REMARK  status: ('A' for Active; 'I' for Inactive)
REMARK    1  A    between atoms: N3_14  and  C10_15 
REMARK    2  A    between atoms: C10_15  and  C11_16 
REMARK    3  A    between atoms: C11_16  and  C12_17 
REMARK    4  A    between atoms: C12_17  and  N4_18 
ROOT
HETATM    1  O1  UNL     1      22.648   2.976  52.069  1.00  0.00    -0.271 OA
HETATM    2  C1  UNL     1      22.858   4.040  51.387  1.00  0.00     0.247 C 
HETATM    3  C2  UNL     1      21.823   4.960  51.845  1.00  0.00     0.278 C 
HETATM    4  O2  UNL     1      21.907   6.338  51.358  1.00  0.00    -0.341 OA
HETATM    5  C3  UNL     1      22.699   6.928  50.379  1.00  0.00     0.076 C 
HETATM    6  C4  UNL     1      23.550   7.929  50.454  1.00  0.00     0.067 C 
HETATM    7  C5  UNL     1      24.832   7.640  49.764  1.00  0.00     0.068 A 
HETATM    8  N1  UNL     1      25.945   8.222  50.077  1.00  0.00    -0.244 NA
HETATM    9  C6  UNL     1      26.946   7.647  49.188  1.00  0.00     0.228 A 
HETATM   10  N2  UNL     1      26.445   6.773  48.393  1.00  0.00    -0.267 NA
HETATM   11  C7  UNL     1      25.103   6.638  48.601  1.00  0.00     0.196 A 
HETATM   12  C8  UNL     1      24.334   5.460  48.898  1.00  0.00    -0.003 C 
HETATM   13  C9  UNL     1      24.612   4.285  49.401  1.00  0.00     0.104 C 
HETATM   14  N3  UNL     1      24.001   3.682  50.570  1.00  0.00    -0.326 N 
HETATM   15  P1  UNL     1      22.505   6.090  48.655  1.00  0.00    -0.035 P 
HETATM   16  H23 UNL     1      22.452   7.028  47.620  1.00  0.00     0.069 HD
ENDROOT
BRANCH  14  17
HETATM   17  C10 UNL     1      24.815   2.537  50.840  1.00  0.00     0.133 C 
BRANCH  17  18
HETATM   18  C11 UNL     1      26.294   2.767  50.641  1.00  0.00     0.050 C 
BRANCH  18  19
HETATM   19  C12 UNL     1      27.075   2.286  51.849  1.00  0.00     0.274 C 
BRANCH  19  20
HETATM   20  N4  UNL     1      26.333   1.277  52.582  1.00  0.00     0.088 N 
HETATM   21  C13 UNL     1      26.844  -0.003  52.081  1.00  0.00     0.272 C 
HETATM   22  C14 UNL     1      26.328  -1.181  52.835  1.00  0.00     0.030 C 
HETATM   23  C15 UNL     1      25.418  -0.780  53.980  1.00  0.00     0.003 C 
HETATM   24  C16 UNL     1      26.219   0.218  54.809  1.00  0.00     0.030 C 
HETATM   25  C17 UNL     1      26.594   1.423  53.988  1.00  0.00     0.272 C 
ENDBRANCH  19  20
ENDBRANCH  18  19
ENDBRANCH  17  18
ENDBRANCH  14  17
TORSDOF 4
ENDMDL
MODEL 8
REMARK VINA RESULT:      -6.7      6.797      9.000
REMARK  4 active torsions:
REMARK  status: ('A' for Active; 'I' for Inactive)
REMARK    1  A    between atoms: N3_14  and  C10_15 
REMARK    2  A    between atoms: C10_15  and  C11_16 
REMARK    3  A    between atoms: C11_16  and  C12_17 
REMARK    4  A    between atoms: C12_17  and  N4_18 
ROOT
HETATM    1  O1  UNL     1      25.237   8.418  49.608  1.00  0.00    -0.271 OA
HETATM    2  C1  UNL     1      26.435   8.391  49.153  1.00  0.00     0.247 C 
HETATM    3  C2  UNL     1      26.780   9.798  48.989  1.00  0.00     0.278 C 
HETATM    4  O2  UNL     1      28.167  10.097  48.632  1.00  0.00    -0.341 OA
HETATM    5  C3  UNL     1      29.219   9.278  48.236  1.00  0.00     0.076 C 
HETATM    6  C4  UNL     1      30.411   9.100  48.763  1.00  0.00     0.067 C 
HETATM    7  C5  UNL     1      30.780   7.666  48.869  1.00  0.00     0.068 A 
HETATM    8  N1  UNL     1      31.633   7.222  49.735  1.00  0.00    -0.244 NA
HETATM    9  C6  UNL     1      31.690   5.782  49.521  1.00  0.00     0.228 A 
HETATM   10  N2  UNL     1      30.910   5.401  48.576  1.00  0.00    -0.267 NA
HETATM   11  C7  UNL     1      30.253   6.464  48.029  1.00  0.00     0.196 A 
HETATM   12  C8  UNL     1      28.841   6.682  47.858  1.00  0.00    -0.003 C 
HETATM   13  C9  UNL     1      27.763   6.204  48.424  1.00  0.00     0.104 C 
HETATM   14  N3  UNL     1      26.721   6.971  49.077  1.00  0.00    -0.326 N 
HETATM   15  P1  UNL     1      28.804   8.230  46.673  1.00  0.00    -0.035 P 
HETATM   16  H23 UNL     1      29.876   8.177  45.778  1.00  0.00     0.069 HD
ENDROOT
BRANCH  14  17
HETATM   17  C10 UNL     1      25.919   5.985  49.735  1.00  0.00     0.133 C 
BRANCH  17  18
HETATM   18  C11 UNL     1      26.072   4.590  49.177  1.00  0.00     0.050 C 
BRANCH  18  19
HETATM   19  C12 UNL     1      25.050   3.655  49.796  1.00  0.00     0.274 C 
BRANCH  19  20
HETATM   20  N4  UNL     1      25.437   3.277  51.143  1.00  0.00     0.088 N 
HETATM   21  C13 UNL     1      24.312   2.481  51.647  1.00  0.00     0.272 C 
HETATM   22  C14 UNL     1      24.584   1.845  52.967  1.00  0.00     0.030 C 
HETATM   23  C15 UNL     1      25.985   2.137  53.471  1.00  0.00     0.003 C 
HETATM   24  C16 UNL     1      26.921   1.713  52.345  1.00  0.00     0.030 C 
HETATM   25  C17 UNL     1      26.640   2.494  51.088  1.00  0.00     0.272 C 
ENDBRANCH  19  20
ENDBRANCH  18  19
ENDBRANCH  17  18
ENDBRANCH  14  17
TORSDOF 4
ENDMDL
MODEL 9
REMARK VINA RESULT:      -6.7      3.970      6.120
REMARK  4 active torsions:
REMARK  status: ('A' for Active; 'I' for Inactive)
REMARK    1  A    between atoms: N3_14  and  C10_15 
REMARK    2  A    between atoms: C10_15  and  C11_16 
REMARK    3  A    between atoms: C11_16  and  C12_17 
REMARK    4  A    between atoms: C12_17  and  N4_18 
ROOT
HETATM    1  O1  UNL     1      26.907   3.074  49.981  1.00  0.00    -0.271 OA
HETATM    2  C1  UNL     1      26.047   4.010  49.826  1.00  0.00     0.247 C 
HETATM    3  C2  UNL     1      26.726   4.973  48.967  1.00  0.00     0.278 C 
HETATM    4  O2  UNL     1      25.924   6.094  48.473  1.00  0.00    -0.341 OA
HETATM    5  C3  UNL     1      24.649   6.537  48.806  1.00  0.00     0.076 C 
HETATM    6  C4  UNL     1      23.578   6.704  48.059  1.00  0.00     0.067 C 
HETATM    7  C5  UNL     1      22.354   6.144  48.685  1.00  0.00     0.068 A 
HETATM    8  N1  UNL     1      21.324   5.767  47.998  1.00  0.00    -0.244 NA
HETATM    9  C6  UNL     1      20.367   5.268  48.977  1.00  0.00     0.228 A 
HETATM   10  N2  UNL     1      20.814   5.349  50.177  1.00  0.00    -0.267 NA
HETATM   11  C7  UNL     1      22.064   5.895  50.195  1.00  0.00     0.196 A 
HETATM   12  C8  UNL     1      23.282   5.381  50.760  1.00  0.00    -0.003 C 
HETATM   13  C9  UNL     1      23.711   4.189  51.088  1.00  0.00     0.104 C 
HETATM   14  N3  UNL     1      24.915   3.543  50.604  1.00  0.00    -0.326 N 
HETATM   15  P1  UNL     1      24.460   6.933  50.682  1.00  0.00    -0.035 P 
HETATM   16  H23 UNL     1      23.728   8.104  50.899  1.00  0.00     0.069 HD
ENDROOT
BRANCH  14  17
HETATM   17  C10 UNL     1      24.794   2.191  51.056  1.00  0.00     0.133 C 
BRANCH  17  18
HETATM   18  C11 UNL     1      23.965   2.029  52.307  1.00  0.00     0.050 C 
BRANCH  18  19
HETATM   19  C12 UNL     1      24.325   0.739  53.021  1.00  0.00     0.274 C 
BRANCH  19  20
HETATM   20  N4  UNL     1      23.144  -0.066  53.271  1.00  0.00     0.088 N 
HETATM   21  C13 UNL     1      23.447  -0.805  54.501  1.00  0.00     0.272 C 
HETATM   22  C14 UNL     1      22.284  -1.571  55.031  1.00  0.00     0.030 C 
HETATM   23  C15 UNL     1      21.035  -1.378  54.194  1.00  0.00     0.003 C 
HETATM   24  C16 UNL     1      20.830   0.130  54.107  1.00  0.00     0.030 C 
HETATM   25  C17 UNL     1      22.011   0.798  53.454  1.00  0.00     0.272 C 
ENDBRANCH  19  20
ENDBRANCH  18  19
ENDBRANCH  17  18
ENDBRANCH  14  17
TORSDOF 4
ENDMDL
