MODEL 1
REMARK VINA RESULT:      -9.1      0.000      0.000
REMARK  5 active torsions:
REMARK  status: ('A' for Active; 'I' for Inactive)
REMARK    1  A    between atoms: N1_1  and  C1_2 
REMARK    2  A    between atoms: N2_6  and  C5_7 
REMARK    3  A    between atoms: C18_23  and  O1_24 
REMARK    4  A    between atoms: O1_24  and  C19_25 
REMARK    5  A    between atoms: C19_25  and  C20_26 
ROOT
HETATM    1  C1  UNL     1      21.827   1.638  51.456  1.00  0.00     0.121 A 
HETATM    2  C2  UNL     1      22.998   2.063  51.085  1.00  0.00     0.057 A 
HETATM    3  C3  UNL     1      23.494   3.464  51.168  1.00  0.00     0.092 A 
HETATM    4  C4  UNL     1      24.659   3.459  52.119  1.00  0.00     0.160 C 
HETATM    5  N2  UNL     1      25.758   2.642  51.636  1.00  0.00    -0.376 N 
HETATM    6  C12 UNL     1      26.066   2.960  50.284  1.00  0.00     0.084 C 
HETATM    7  C13 UNL     1      25.231   3.516  49.456  1.00  0.00     0.017 C 
HETATM    8  C14 UNL     1      23.837   3.900  49.788  1.00  0.00     0.112 A 
HETATM    9  C15 UNL     1      22.988   3.206  48.767  1.00  0.00     0.116 A 
HETATM   10  F1  UNL     1      22.880   1.858  48.609  1.00  0.00    -0.209 F 
HETATM   11  C16 UNL     1      22.324   4.089  48.000  1.00  0.00     0.042 A 
HETATM   12  C17 UNL     1      22.696   5.445  48.467  1.00  0.00     0.036 A 
HETATM   13  C18 UNL     1      23.561   5.305  49.490  1.00  0.00     0.068 A 
HETATM   14  N5  UNL     1      22.458   4.303  51.753  1.00  0.00    -0.368 N 
HETATM   15  C24 UNL     1      21.195   3.771  52.139  1.00  0.00     0.205 A 
HETATM   16  N6  UNL     1      20.910   2.544  52.000  1.00  0.00    -0.228 NA
HETATM   17  H32 UNL     1      22.640   5.321  51.896  1.00  0.00     0.161 HD
ENDROOT
BRANCH  13  18
HETATM   18  O1  UNL     1      23.947   6.547  49.975  1.00  0.00    -0.351 OA
BRANCH  18  19
HETATM   19  C19 UNL     1      25.258   6.827  50.351  1.00  0.00     0.207 C 
BRANCH  19  20
HETATM   20  C20 UNL     1      26.073   7.503  49.257  1.00  0.00     0.145 C 
HETATM   21  C21 UNL     1      26.794   6.515  48.400  1.00  0.00     0.036 C 
HETATM   22  C22 UNL     1      28.199   7.008  48.290  1.00  0.00     0.029 C 
HETATM   23  C23 UNL     1      28.133   8.358  48.966  1.00  0.00     0.168 C 
HETATM   24  O2  UNL     1      27.017   8.361  49.761  1.00  0.00    -0.384 OA
ENDBRANCH  19  20
ENDBRANCH  18  19
ENDBRANCH  13  18
BRANCH   1  25
HETATM   25  N1  UNL     1      21.560   0.248  51.285  1.00  0.00    -0.384 N 
HETATM   26  H1  UNL     1      20.590  -0.138  51.432  1.00  0.00     0.157 HD
HETATM   27  H2  UNL     1      22.449  -0.253  51.010  1.00  0.00     0.157 HD
ENDBRANCH   1  25
BRANCH   5  28
HETATM   28  C5  UNL     1      26.405   1.677  52.462  1.00  0.00     0.062 C 
HETATM   29  C6  UNL     1      27.566   2.218  53.264  1.00  0.00     0.300 C 
HETATM   30  N3  UNL     1      28.714   1.295  53.229  1.00  0.00     0.087 N 
HETATM   31  C7  UNL     1      28.660   0.385  54.325  1.00  0.00     0.288 C 
HETATM   32  H8  UNL     1      29.562   1.889  53.366  1.00  0.00     0.316 HD
HETATM   33  C8  UNL     1      28.155  -0.989  53.931  1.00  0.00     0.144 C 
HETATM   34  N4  UNL     1      26.738  -1.065  53.880  1.00  0.00    -0.415 N 
HETATM   35  C9  UNL     1      26.055  -0.407  52.846  1.00  0.00     0.081 C 
HETATM   36  H13 UNL     1      26.385  -2.012  54.114  1.00  0.00     0.153 HD
HETATM   37  C10 UNL     1      26.835   0.383  51.859  1.00  0.00     0.057 C 
HETATM   38  C11 UNL     1      25.495   0.892  53.381  1.00  0.00     0.057 C 
ENDBRANCH   5  28
TORSDOF 5
ENDMDL
MODEL 2
REMARK VINA RESULT:      -8.9      2.857      5.554
REMARK  5 active torsions:
REMARK  status: ('A' for Active; 'I' for Inactive)
REMARK    1  A    between atoms: N1_1  and  C1_2 
REMARK    2  A    between atoms: N2_6  and  C5_7 
REMARK    3  A    between atoms: C18_23  and  O1_24 
REMARK    4  A    between atoms: O1_24  and  C19_25 
REMARK    5  A    between atoms: C19_25  and  C20_26 
ROOT
HETATM    1  C1  UNL     1      25.298   4.676  49.834  1.00  0.00     0.121 A 
HETATM    2  C2  UNL     1      24.894   3.998  50.868  1.00  0.00     0.057 A 
HETATM    3  C3  UNL     1      23.792   2.997  50.889  1.00  0.00     0.092 A 
HETATM    4  C4  UNL     1      24.413   1.672  51.239  1.00  0.00     0.160 C 
HETATM    5  N2  UNL     1      25.012   1.681  52.562  1.00  0.00    -0.376 N 
HETATM    6  C12 UNL     1      24.106   2.211  53.522  1.00  0.00     0.084 C 
HETATM    7  C13 UNL     1      23.115   3.002  53.233  1.00  0.00     0.017 C 
HETATM    8  C14 UNL     1      22.776   3.471  51.866  1.00  0.00     0.112 A 
HETATM    9  C15 UNL     1      22.762   4.966  51.960  1.00  0.00     0.116 A 
HETATM   10  F1  UNL     1      23.829   5.751  52.273  1.00  0.00    -0.209 F 
HETATM   11  C16 UNL     1      21.540   5.462  51.695  1.00  0.00     0.042 A 
HETATM   12  C17 UNL     1      20.652   4.312  51.404  1.00  0.00     0.036 A 
HETATM   13  C18 UNL     1      21.387   3.189  51.509  1.00  0.00     0.068 A 
HETATM   14  N5  UNL     1      23.233   2.876  49.550  1.00  0.00    -0.368 N 
HETATM   15  C24 UNL     1      23.725   3.650  48.461  1.00  0.00     0.205 A 
HETATM   16  N6  UNL     1      24.675   4.477  48.597  1.00  0.00    -0.228 NA
HETATM   17  H32 UNL     1      22.450   2.206  49.378  1.00  0.00     0.161 HD
ENDROOT
BRANCH  13  18
HETATM   18  O1  UNL     1      20.607   2.071  51.246  1.00  0.00    -0.351 OA
BRANCH  18  19
HETATM   19  C19 UNL     1      19.802   1.476  52.214  1.00  0.00     0.207 C 
BRANCH  19  20
HETATM   20  C20 UNL     1      20.330   0.133  52.701  1.00  0.00     0.145 C 
HETATM   21  C21 UNL     1      20.521   0.107  54.182  1.00  0.00     0.036 C 
HETATM   22  C22 UNL     1      21.880  -0.465  54.416  1.00  0.00     0.029 C 
HETATM   23  C23 UNL     1      22.307  -0.888  53.030  1.00  0.00     0.168 C 
HETATM   24  O2  UNL     1      21.536  -0.192  52.136  1.00  0.00    -0.384 OA
ENDBRANCH  19  20
ENDBRANCH  18  19
ENDBRANCH  13  18
BRANCH   1  25
HETATM   25  N1  UNL     1      26.376   5.587  50.040  1.00  0.00    -0.384 N 
HETATM   26  H1  UNL     1      26.235   6.473  50.593  1.00  0.00     0.157 HD
HETATM   27  H2  UNL     1      27.247   5.218  49.568  1.00  0.00     0.157 HD
ENDBRANCH   1  25
BRANCH   5  28
HETATM   28  C5  UNL     1      26.331   1.194  52.798  1.00  0.00     0.062 C 
HETATM   29  C6  UNL     1      26.540  -0.256  52.426  1.00  0.00     0.300 C 
HETATM   30  N3  UNL     1      27.308  -0.967  53.463  1.00  0.00     0.087 N 
HETATM   31  C7  UNL     1      28.703  -0.916  53.178  1.00  0.00     0.288 C 
HETATM   32  H8  UNL     1      27.018  -1.968  53.396  1.00  0.00     0.316 HD
HETATM   33  C8  UNL     1      29.443   0.112  54.012  1.00  0.00     0.144 C 
HETATM   34  N4  UNL     1      29.351   1.425  53.482  1.00  0.00    -0.415 N 
HETATM   35  C9  UNL     1      28.124   2.105  53.549  1.00  0.00     0.081 C 
HETATM   36  H13 UNL     1      30.189   1.997  53.699  1.00  0.00     0.153 HD
HETATM   37  C10 UNL     1      26.950   1.412  54.137  1.00  0.00     0.057 C 
HETATM   38  C11 UNL     1      27.447   2.022  52.201  1.00  0.00     0.057 C 
ENDBRANCH   5  28
TORSDOF 5
ENDMDL
MODEL 3
REMARK VINA RESULT:      -8.8      3.016      6.356
REMARK  5 active torsions:
REMARK  status: ('A' for Active; 'I' for Inactive)
REMARK    1  A    between atoms: N1_1  and  C1_2 
REMARK    2  A    between atoms: N2_6  and  C5_7 
REMARK    3  A    between atoms: C18_23  and  O1_24 
REMARK    4  A    between atoms: O1_24  and  C19_25 
REMARK    5  A    between atoms: C19_25  and  C20_26 
ROOT
HETATM    1  C1  UNL     1      20.746   3.544  48.963  1.00  0.00     0.121 A 
HETATM    2  C2  UNL     1      21.697   3.676  49.839  1.00  0.00     0.057 A 
HETATM    3  C3  UNL     1      22.576   2.591  50.355  1.00  0.00     0.092 A 
HETATM    4  C4  UNL     1      23.980   2.928  49.933  1.00  0.00     0.160 C 
HETATM    5  N2  UNL     1      24.444   4.173  50.518  1.00  0.00    -0.376 N 
HETATM    6  C12 UNL     1      24.200   4.193  51.919  1.00  0.00     0.084 C 
HETATM    7  C13 UNL     1      23.296   3.471  52.514  1.00  0.00     0.017 C 
HETATM    8  C14 UNL     1      22.384   2.522  51.829  1.00  0.00     0.112 A 
HETATM    9  C15 UNL     1      21.005   2.955  52.222  1.00  0.00     0.116 A 
HETATM   10  F1  UNL     1      20.436   4.157  51.928  1.00  0.00    -0.209 F 
HETATM   11  C16 UNL     1      20.371   1.996  52.921  1.00  0.00     0.042 A 
HETATM   12  C17 UNL     1      21.301   0.850  53.038  1.00  0.00     0.036 A 
HETATM   13  C18 UNL     1      22.443   1.180  52.405  1.00  0.00     0.068 A 
HETATM   14  N5  UNL     1      22.215   1.337  49.709  1.00  0.00    -0.368 N 
HETATM   15  C24 UNL     1      21.161   1.264  48.755  1.00  0.00     0.205 A 
HETATM   16  N6  UNL     1      20.488   2.283  48.416  1.00  0.00    -0.228 NA
HETATM   17  H32 UNL     1      22.740   0.466  49.947  1.00  0.00     0.161 HD
ENDROOT
BRANCH  13  18
HETATM   18  O1  UNL     1      23.359   0.140  52.479  1.00  0.00    -0.351 OA
BRANCH  18  19
HETATM   19  C19 UNL     1      24.121  -0.105  53.619  1.00  0.00     0.207 C 
BRANCH  19  20
HETATM   20  C20 UNL     1      25.515   0.505  53.560  1.00  0.00     0.145 C 
HETATM   21  C21 UNL     1      26.324  -0.048  52.432  1.00  0.00     0.036 C 
HETATM   22  C22 UNL     1      27.653  -0.406  53.011  1.00  0.00     0.029 C 
HETATM   23  C23 UNL     1      27.561   0.135  54.419  1.00  0.00     0.168 C 
HETATM   24  O2  UNL     1      26.230   0.289  54.710  1.00  0.00    -0.384 OA
ENDBRANCH  19  20
ENDBRANCH  18  19
ENDBRANCH  13  18
BRANCH   1  25
HETATM   25  N1  UNL     1      20.024   4.723  48.610  1.00  0.00    -0.384 N 
HETATM   26  H1  UNL     1      18.994   4.807  48.815  1.00  0.00     0.157 HD
HETATM   27  H2  UNL     1      20.678   5.414  48.149  1.00  0.00     0.157 HD
ENDBRANCH   1  25
BRANCH   5  28
HETATM   28  C5  UNL     1      25.066   5.191  49.737  1.00  0.00     0.062 C 
HETATM   29  C6  UNL     1      26.412   4.808  49.167  1.00  0.00     0.300 C 
HETATM   30  N3  UNL     1      27.386   5.905  49.317  1.00  0.00     0.087 N 
HETATM   31  C7  UNL     1      27.376   6.744  48.165  1.00  0.00     0.288 C 
HETATM   32  H8  UNL     1      28.324   5.449  49.357  1.00  0.00     0.316 HD
HETATM   33  C8  UNL     1      26.611   8.036  48.377  1.00  0.00     0.144 C 
HETATM   34  N4  UNL     1      25.210   7.885  48.200  1.00  0.00    -0.415 N 
HETATM   35  C9  UNL     1      24.473   7.172  49.158  1.00  0.00     0.081 C 
HETATM   36  H13 UNL     1      24.762   8.751  47.847  1.00  0.00     0.153 HD
HETATM   37  C10 UNL     1      25.189   6.563  50.308  1.00  0.00     0.057 C 
HETATM   38  C11 UNL     1      24.212   5.778  48.635  1.00  0.00     0.057 C 
ENDBRANCH   5  28
TORSDOF 5
ENDMDL
MODEL 4
REMARK VINA RESULT:      -8.4      3.165      6.318
REMARK  5 active torsions:
REMARK  status: ('A' for Active; 'I' for Inactive)
REMARK    1  A    between atoms: N1_1  and  C1_2 
REMARK    2  A    between atoms: N2_6  and  C5_7 
REMARK    3  A    between atoms: C18_23  and  O1_24 
REMARK    4  A    between atoms: O1_24  and  C19_25 
REMARK    5  A    between atoms: C19_25  and  C20_26 
ROOT
HETATM    1  C1  UNL     1      24.317   4.579  50.335  1.00  0.00     0.121 A 
HETATM    2  C2  UNL     1      23.951   3.676  51.196  1.00  0.00     0.057 A 
HETATM    3  C3  UNL     1      23.150   2.455  50.904  1.00  0.00     0.092 A 
HETATM    4  C4  UNL     1      24.029   1.274  51.212  1.00  0.00     0.160 C 
HETATM    5  N2  UNL     1      24.403   1.219  52.613  1.00  0.00    -0.376 N 
HETATM    6  C12 UNL     1      23.260   1.371  53.446  1.00  0.00     0.084 C 
HETATM    7  C13 UNL     1      22.154   1.943  53.072  1.00  0.00     0.017 C 
HETATM    8  C14 UNL     1      21.913   2.524  51.727  1.00  0.00     0.112 A 
HETATM    9  C15 UNL     1      21.504   3.942  51.984  1.00  0.00     0.116 A 
HETATM   10  F1  UNL     1      22.277   4.897  52.571  1.00  0.00    -0.209 F 
HETATM   11  C16 UNL     1      20.250   4.175  51.557  1.00  0.00     0.042 A 
HETATM   12  C17 UNL     1      19.738   2.908  50.984  1.00  0.00     0.036 A 
HETATM   13  C18 UNL     1      20.711   1.984  51.095  1.00  0.00     0.068 A 
HETATM   14  N5  UNL     1      22.846   2.413  49.481  1.00  0.00    -0.368 N 
HETATM   15  C24 UNL     1      23.280   3.437  48.593  1.00  0.00     0.205 A 
HETATM   16  N6  UNL     1      23.956   4.432  48.991  1.00  0.00    -0.228 NA
HETATM   17  H32 UNL     1      22.295   1.613  49.097  1.00  0.00     0.161 HD
ENDROOT
BRANCH  13  18
HETATM   18  O1  UNL     1      20.290   0.769  50.571  1.00  0.00    -0.351 OA
BRANCH  18  19
HETATM   19  C19 UNL     1      18.950   0.395  50.534  1.00  0.00     0.207 C 
BRANCH  19  20
HETATM   20  C20 UNL     1      18.340   0.184  51.914  1.00  0.00     0.145 C 
HETATM   21  C21 UNL     1      19.244  -0.593  52.815  1.00  0.00     0.036 C 
HETATM   22  C22 UNL     1      18.397  -1.653  53.438  1.00  0.00     0.029 C 
HETATM   23  C23 UNL     1      17.008  -1.292  52.966  1.00  0.00     0.168 C 
HETATM   24  O2  UNL     1      17.149  -0.492  51.862  1.00  0.00    -0.384 OA
ENDBRANCH  19  20
ENDBRANCH  18  19
ENDBRANCH  13  18
BRANCH   1  25
HETATM   25  N1  UNL     1      25.084   5.674  50.833  1.00  0.00    -0.384 N 
HETATM   26  H1  UNL     1      24.808   6.164  51.725  1.00  0.00     0.157 HD
HETATM   27  H2  UNL     1      25.896   5.863  50.183  1.00  0.00     0.157 HD
ENDBRANCH   1  25
BRANCH   5  28
HETATM   28  C5  UNL     1      25.753   1.022  53.030  1.00  0.00     0.062 C 
HETATM   29  C6  UNL     1      26.001  -0.279  53.756  1.00  0.00     0.300 C 
HETATM   30  N3  UNL     1      26.854  -0.075  54.940  1.00  0.00     0.087 N 
HETATM   31  C7  UNL     1      28.228  -0.249  54.604  1.00  0.00     0.288 C 
HETATM   32  H8  UNL     1      26.603  -0.837  55.608  1.00  0.00     0.316 HD
HETATM   33  C8  UNL     1      28.970   1.063  54.436  1.00  0.00     0.144 C 
HETATM   34  N4  UNL     1      28.794   1.638  53.150  1.00  0.00    -0.415 N 
HETATM   35  C9  UNL     1      27.546   2.183  52.810  1.00  0.00     0.081 C 
HETATM   36  H13 UNL     1      29.618   2.192  52.850  1.00  0.00     0.153 HD
HETATM   37  C10 UNL     1      26.435   2.105  53.794  1.00  0.00     0.057 C 
HETATM   38  C11 UNL     1      26.798   1.191  51.949  1.00  0.00     0.057 C 
ENDBRANCH   5  28
TORSDOF 5
ENDMDL
MODEL 5
REMARK VINA RESULT:      -8.3      2.656      3.647
REMARK  5 active torsions:
REMARK  status: ('A' for Active; 'I' for Inactive)
REMARK    1  A    between atoms: N1_1  and  C1_2 
REMARK    2  A    between atoms: N2_6  and  C5_7 
REMARK    3  A    between atoms: C18_23  and  O1_24 
REMARK    4  A    between atoms: O1_24  and  C19_25 
REMARK    5  A    between atoms: C19_25  and  C20_26 
ROOT
HETATM    1  C1  UNL     1      19.089   3.134  49.403  1.00  0.00     0.121 A 
HETATM    2  C2  UNL     1      20.338   2.919  49.694  1.00  0.00     0.057 A 
HETATM    3  C3  UNL     1      21.323   3.936  50.155  1.00  0.00     0.092 A 
HETATM    4  C4  UNL     1      21.739   3.541  51.545  1.00  0.00     0.160 C 
HETATM    5  N2  UNL     1      22.407   2.252  51.573  1.00  0.00    -0.376 N 
HETATM    6  C12 UNL     1      23.426   2.192  50.583  1.00  0.00     0.084 C 
HETATM    7  C13 UNL     1      23.456   2.937  49.517  1.00  0.00     0.017 C 
HETATM    8  C14 UNL     1      22.437   3.958  49.169  1.00  0.00     0.112 A 
HETATM    9  C15 UNL     1      21.963   3.584  47.798  1.00  0.00     0.116 A 
HETATM   10  F1  UNL     1      21.328   2.426  47.467  1.00  0.00    -0.209 F 
HETATM   11  C16 UNL     1      22.245   4.548  46.903  1.00  0.00     0.042 A 
HETATM   12  C17 UNL     1      22.933   5.638  47.632  1.00  0.00     0.036 A 
HETATM   13  C18 UNL     1      23.028   5.272  48.924  1.00  0.00     0.068 A 
HETATM   14  N5  UNL     1      20.663   5.231  50.248  1.00  0.00    -0.368 N 
HETATM   15  C24 UNL     1      19.290   5.395  49.913  1.00  0.00     0.205 A 
HETATM   16  N6  UNL     1      18.570   4.428  49.525  1.00  0.00    -0.228 NA
HETATM   17  H32 UNL     1      21.208   6.063  50.567  1.00  0.00     0.161 HD
ENDROOT
BRANCH  13  18
HETATM   18  O1  UNL     1      23.667   6.259  49.663  1.00  0.00    -0.351 OA
BRANCH  18  19
HETATM   19  C19 UNL     1      25.016   6.186  49.998  1.00  0.00     0.207 C 
BRANCH  19  20
HETATM   20  C20 UNL     1      25.931   5.991  48.797  1.00  0.00     0.145 C 
HETATM   21  C21 UNL     1      26.768   4.761  48.921  1.00  0.00     0.036 C 
HETATM   22  C22 UNL     1      28.164   5.172  48.585  1.00  0.00     0.029 C 
HETATM   23  C23 UNL     1      27.988   6.599  48.120  1.00  0.00     0.168 C 
HETATM   24  O2  UNL     1      26.790   7.044  48.616  1.00  0.00    -0.384 OA
ENDBRANCH  19  20
ENDBRANCH  18  19
ENDBRANCH  13  18
BRANCH   1  25
HETATM   25  N1  UNL     1      18.322   2.010  48.978  1.00  0.00    -0.384 N 
HETATM   26  H1  UNL     1      18.046   1.895  47.967  1.00  0.00     0.157 HD
HETATM   27  H2  UNL     1      18.114   1.389  49.808  1.00  0.00     0.157 HD
ENDBRANCH   1  25
BRANCH   5  28
HETATM   28  C5  UNL     1      22.047   1.233  52.503  1.00  0.00     0.062 C 
HETATM   29  C6  UNL     1      23.166   0.803  53.423  1.00  0.00     0.300 C 
HETATM   30  N3  UNL     1      23.210  -0.664  53.559  1.00  0.00     0.087 N 
HETATM   31  C7  UNL     1      22.422  -1.089  54.668  1.00  0.00     0.288 C 
HETATM   32  H8  UNL     1      24.203  -0.900  53.779  1.00  0.00     0.316 HD
HETATM   33  C8  UNL     1      21.073  -1.646  54.260  1.00  0.00     0.144 C 
HETATM   34  N4  UNL     1      20.100  -0.636  54.039  1.00  0.00    -0.415 N 
HETATM   35  C9  UNL     1      20.216   0.188  52.908  1.00  0.00     0.081 C 
HETATM   36  H13 UNL     1      19.139  -0.959  54.258  1.00  0.00     0.153 HD
HETATM   37  C10 UNL     1      21.376   0.001  51.998  1.00  0.00     0.057 C 
HETATM   38  C11 UNL     1      20.810   1.513  53.328  1.00  0.00     0.057 C 
ENDBRANCH   5  28
TORSDOF 5
ENDMDL
MODEL 6
REMARK VINA RESULT:      -8.1      2.991      6.504
REMARK  5 active torsions:
REMARK  status: ('A' for Active; 'I' for Inactive)
REMARK    1  A    between atoms: N1_1  and  C1_2 
REMARK    2  A    between atoms: N2_6  and  C5_7 
REMARK    3  A    between atoms: C18_23  and  O1_24 
REMARK    4  A    between atoms: O1_24  and  C19_25 
REMARK    5  A    between atoms: C19_25  and  C20_26 
ROOT
HETATM    1  C1  UNL     1      22.346   4.235  47.544  1.00  0.00     0.121 A 
HETATM    2  C2  UNL     1      22.904   4.795  48.577  1.00  0.00     0.057 A 
HETATM    3  C3  UNL     1      23.457   4.093  49.768  1.00  0.00     0.092 A 
HETATM    4  C4  UNL     1      24.934   4.375  49.794  1.00  0.00     0.160 C 
HETATM    5  N2  UNL     1      25.218   5.790  49.958  1.00  0.00    -0.376 N 
HETATM    6  C12 UNL     1      24.466   6.333  51.036  1.00  0.00     0.084 C 
HETATM    7  C13 UNL     1      23.363   5.817  51.492  1.00  0.00     0.017 C 
HETATM    8  C14 UNL     1      22.721   4.589  50.961  1.00  0.00     0.112 A 
HETATM    9  C15 UNL     1      21.323   5.001  50.611  1.00  0.00     0.116 A 
HETATM   10  F1  UNL     1      20.981   5.928  49.674  1.00  0.00    -0.209 F 
HETATM   11  C16 UNL     1      20.417   4.335  51.348  1.00  0.00     0.042 A 
HETATM   12  C17 UNL     1      21.164   3.426  52.248  1.00  0.00     0.036 A 
HETATM   13  C18 UNL     1      22.477   3.593  52.004  1.00  0.00     0.068 A 
HETATM   14  N5  UNL     1      23.291   2.657  49.594  1.00  0.00    -0.368 N 
HETATM   15  C24 UNL     1      22.670   2.111  48.435  1.00  0.00     0.205 A 
HETATM   16  N6  UNL     1      22.237   2.841  47.495  1.00  0.00    -0.228 NA
HETATM   17  H32 UNL     1      23.633   2.006  50.336  1.00  0.00     0.161 HD
ENDROOT
BRANCH  13  18
HETATM   18  O1  UNL     1      23.234   2.763  52.820  1.00  0.00    -0.351 OA
BRANCH  18  19
HETATM   19  C19 UNL     1      23.485   1.431  52.502  1.00  0.00     0.207 C 
BRANCH  19  20
HETATM   20  C20 UNL     1      24.813   0.917  53.042  1.00  0.00     0.145 C 
HETATM   21  C21 UNL     1      25.938   1.158  52.090  1.00  0.00     0.036 C 
HETATM   22  C22 UNL     1      26.683  -0.132  51.993  1.00  0.00     0.029 C 
HETATM   23  C23 UNL     1      26.015  -0.983  53.048  1.00  0.00     0.168 C 
HETATM   24  O2  UNL     1      24.788  -0.429  53.301  1.00  0.00    -0.384 OA
ENDBRANCH  19  20
ENDBRANCH  18  19
ENDBRANCH  13  18
BRANCH   1  25
HETATM   25  N1  UNL     1      21.883   5.103  46.511  1.00  0.00    -0.384 N 
HETATM   26  H1  UNL     1      22.099   4.900  45.499  1.00  0.00     0.157 HD
HETATM   27  H2  UNL     1      21.338   5.902  46.937  1.00  0.00     0.157 HD
ENDBRANCH   1  25
BRANCH   5  28
HETATM   28  C5  UNL     1      26.149   6.476  49.124  1.00  0.00     0.062 C 
HETATM   29  C6  UNL     1      27.298   5.626  48.635  1.00  0.00     0.300 C 
HETATM   30  N3  UNL     1      28.578   6.350  48.735  1.00  0.00     0.087 N 
HETATM   31  C7  UNL     1      28.856   7.045  47.522  1.00  0.00     0.288 C 
HETATM   32  H8  UNL     1      29.313   5.617  48.845  1.00  0.00     0.316 HD
HETATM   33  C8  UNL     1      28.558   8.529  47.604  1.00  0.00     0.144 C 
HETATM   34  N4  UNL     1      27.188   8.831  47.387  1.00  0.00    -0.415 N 
HETATM   35  C9  UNL     1      26.248   8.485  48.370  1.00  0.00     0.081 C 
HETATM   36  H13 UNL     1      27.054   9.764  46.953  1.00  0.00     0.153 HD
HETATM   37  C10 UNL     1      26.712   7.776  49.590  1.00  0.00     0.057 C 
HETATM   38  C11 UNL     1      25.547   7.214  47.948  1.00  0.00     0.057 C 
ENDBRANCH   5  28
TORSDOF 5
ENDMDL
MODEL 7
REMARK VINA RESULT:      -8.0      6.561      9.853
REMARK  5 active torsions:
REMARK  status: ('A' for Active; 'I' for Inactive)
REMARK    1  A    between atoms: N1_1  and  C1_2 
REMARK    2  A    between atoms: N2_6  and  C5_7 
REMARK    3  A    between atoms: C18_23  and  O1_24 
REMARK    4  A    between atoms: O1_24  and  C19_25 
REMARK    5  A    between atoms: C19_25  and  C20_26 
ROOT
HETATM    1  C1  UNL     1      31.734  10.702  45.399  1.00  0.00     0.121 A 
HETATM    2  C2  UNL     1      31.565  10.124  46.552  1.00  0.00     0.057 A 
HETATM    3  C3  UNL     1      30.260   9.756  47.168  1.00  0.00     0.092 A 
HETATM    4  C4  UNL     1      30.244   8.257  47.291  1.00  0.00     0.160 C 
HETATM    5  N2  UNL     1      31.290   7.767  48.171  1.00  0.00    -0.376 N 
HETATM    6  C12 UNL     1      31.294   8.487  49.398  1.00  0.00     0.084 C 
HETATM    7  C13 UNL     1      30.800   9.680  49.547  1.00  0.00     0.017 C 
HETATM    8  C14 UNL     1      30.161  10.474  48.467  1.00  0.00     0.112 A 
HETATM    9  C15 UNL     1      30.915  11.768  48.437  1.00  0.00     0.116 A 
HETATM   10  F1  UNL     1      32.238  11.909  48.147  1.00  0.00    -0.209 F 
HETATM   11  C16 UNL     1      30.116  12.807  48.738  1.00  0.00     0.042 A 
HETATM   12  C17 UNL     1      28.762  12.262  48.992  1.00  0.00     0.036 A 
HETATM   13  C18 UNL     1      28.819  10.927  48.830  1.00  0.00     0.068 A 
HETATM   14  N5  UNL     1      29.182  10.131  46.264  1.00  0.00    -0.368 N 
HETATM   15  C24 UNL     1      29.440  10.761  45.014  1.00  0.00     0.205 A 
HETATM   16  N6  UNL     1      30.616  11.022  44.621  1.00  0.00    -0.228 NA
HETATM   17  H32 UNL     1      28.193   9.936  46.535  1.00  0.00     0.161 HD
ENDROOT
BRANCH  13  18
HETATM   18  O1  UNL     1      27.574  10.356  49.054  1.00  0.00    -0.351 OA
BRANCH  18  19
HETATM   19  C19 UNL     1      27.374   9.342  49.988  1.00  0.00     0.207 C 
BRANCH  19  20
HETATM   20  C20 UNL     1      27.058   7.991  49.360  1.00  0.00     0.145 C 
HETATM   21  C21 UNL     1      26.597   8.122  47.945  1.00  0.00     0.036 C 
HETATM   22  C22 UNL     1      25.370   7.280  47.829  1.00  0.00     0.029 C 
HETATM   23  C23 UNL     1      25.316   6.582  49.168  1.00  0.00     0.168 C 
HETATM   24  O2  UNL     1      26.079   7.314  50.040  1.00  0.00    -0.384 OA
ENDBRANCH  19  20
ENDBRANCH  18  19
ENDBRANCH  13  18
BRANCH   1  25
HETATM   25  N1  UNL     1      33.078  10.965  45.000  1.00  0.00    -0.384 N 
HETATM   26  H1  UNL     1      33.345  10.981  43.981  1.00  0.00     0.157 HD
HETATM   27  H2  UNL     1      33.677  11.123  45.857  1.00  0.00     0.157 HD
ENDBRANCH   1  25
BRANCH   5  28
HETATM   28  C5  UNL     1      32.154   6.696  47.797  1.00  0.00     0.062 C 
HETATM   29  C6  UNL     1      31.591   5.318  48.059  1.00  0.00     0.300 C 
HETATM   30  N3  UNL     1      32.607   4.432  48.654  1.00  0.00     0.087 N 
HETATM   31  C7  UNL     1      33.308   3.719  47.638  1.00  0.00     0.288 C 
HETATM   32  H8  UNL     1      32.078   3.727  49.214  1.00  0.00     0.316 HD
HETATM   33  C8  UNL     1      34.678   4.298  47.343  1.00  0.00     0.144 C 
HETATM   34  N4  UNL     1      34.632   5.399  46.449  1.00  0.00    -0.415 N 
HETATM   35  C9  UNL     1      34.101   6.620  46.894  1.00  0.00     0.081 C 
HETATM   36  H13 UNL     1      35.489   5.473  45.869  1.00  0.00     0.153 HD
HETATM   37  C10 UNL     1      33.566   6.708  48.278  1.00  0.00     0.057 C 
HETATM   38  C11 UNL     1      32.685   6.752  46.382  1.00  0.00     0.057 C 
ENDBRANCH   5  28
TORSDOF 5
ENDMDL
MODEL 8
REMARK VINA RESULT:      -8.0      3.049      6.815
REMARK  5 active torsions:
REMARK  status: ('A' for Active; 'I' for Inactive)
REMARK    1  A    between atoms: N1_1  and  C1_2 
REMARK    2  A    between atoms: N2_6  and  C5_7 
REMARK    3  A    between atoms: C18_23  and  O1_24 
REMARK    4  A    between atoms: O1_24  and  C19_25 
REMARK    5  A    between atoms: C19_25  and  C20_26 
ROOT
HETATM    1  C1  UNL     1      21.211   5.273  49.390  1.00  0.00     0.121 A 
HETATM    2  C2  UNL     1      21.439   4.078  49.846  1.00  0.00     0.057 A 
HETATM    3  C3  UNL     1      22.170   3.737  51.098  1.00  0.00     0.092 A 
HETATM    4  C4  UNL     1      21.185   3.052  52.006  1.00  0.00     0.160 C 
HETATM    5  N2  UNL     1      20.695   1.807  51.442  1.00  0.00    -0.376 N 
HETATM    6  C12 UNL     1      21.774   1.003  50.982  1.00  0.00     0.084 C 
HETATM    7  C13 UNL     1      22.946   1.466  50.660  1.00  0.00     0.017 C 
HETATM    8  C14 UNL     1      23.337   2.896  50.720  1.00  0.00     0.112 A 
HETATM    9  C15 UNL     1      23.826   3.224  49.343  1.00  0.00     0.116 A 
HETATM   10  F1  UNL     1      23.079   3.183  48.205  1.00  0.00    -0.209 F 
HETATM   11  C16 UNL     1      25.125   3.575  49.354  1.00  0.00     0.042 A 
HETATM   12  C17 UNL     1      25.588   3.500  50.759  1.00  0.00     0.036 A 
HETATM   13  C18 UNL     1      24.545   3.110  51.516  1.00  0.00     0.068 A 
HETATM   14  N5  UNL     1      22.586   4.968  51.757  1.00  0.00    -0.368 N 
HETATM   15  C24 UNL     1      22.302   6.246  51.200  1.00  0.00     0.205 A 
HETATM   16  N6  UNL     1      21.669   6.382  50.111  1.00  0.00    -0.228 NA
HETATM   17  H32 UNL     1      23.107   4.916  52.660  1.00  0.00     0.161 HD
ENDROOT
BRANCH  13  18
HETATM   18  O1  UNL     1      24.917   3.021  52.850  1.00  0.00    -0.351 OA
BRANCH  18  19
HETATM   19  C19 UNL     1      25.240   1.811  53.458  1.00  0.00     0.207 C 
BRANCH  19  20
HETATM   20  C20 UNL     1      26.736   1.534  53.504  1.00  0.00     0.145 C 
HETATM   21  C21 UNL     1      27.141   0.464  52.543  1.00  0.00     0.036 C 
HETATM   22  C22 UNL     1      28.012  -0.475  53.310  1.00  0.00     0.029 C 
HETATM   23  C23 UNL     1      28.181   0.232  54.634  1.00  0.00     0.168 C 
HETATM   24  O2  UNL     1      27.157   1.136  54.747  1.00  0.00    -0.384 OA
ENDBRANCH  19  20
ENDBRANCH  18  19
ENDBRANCH  13  18
BRANCH   1  25
HETATM   25  N1  UNL     1      20.488   5.370  48.164  1.00  0.00    -0.384 N 
HETATM   26  H1  UNL     1      20.573   6.225  47.553  1.00  0.00     0.157 HD
HETATM   27  H2  UNL     1      19.913   4.494  48.022  1.00  0.00     0.157 HD
ENDBRANCH   1  25
BRANCH   5  28
HETATM   28  C5  UNL     1      19.305   1.491  51.399  1.00  0.00     0.062 C 
HETATM   29  C6  UNL     1      18.888   0.374  52.328  1.00  0.00     0.300 C 
HETATM   30  N3  UNL     1      17.967  -0.560  51.658  1.00  0.00     0.087 N 
HETATM   31  C7  UNL     1      16.613  -0.168  51.869  1.00  0.00     0.288 C 
HETATM   32  H8  UNL     1      18.097  -1.480  52.134  1.00  0.00     0.316 HD
HETATM   33  C8  UNL     1      16.005   0.538  50.673  1.00  0.00     0.144 C 
HETATM   34  N4  UNL     1      16.330   1.918  50.620  1.00  0.00    -0.415 N 
HETATM   35  C9  UNL     1      17.644   2.300  50.305  1.00  0.00     0.081 C 
HETATM   36  H13 UNL     1      15.583   2.483  50.172  1.00  0.00     0.153 HD
HETATM   37  C10 UNL     1      18.663   1.244  50.076  1.00  0.00     0.057 C 
HETATM   38  C11 UNL     1      18.366   2.662  51.583  1.00  0.00     0.057 C 
ENDBRANCH   5  28
TORSDOF 5
ENDMDL
MODEL 9
REMARK VINA RESULT:      -7.7      5.762      9.496
REMARK  5 active torsions:
REMARK  status: ('A' for Active; 'I' for Inactive)
REMARK    1  A    between atoms: N1_1  and  C1_2 
REMARK    2  A    between atoms: N2_6  and  C5_7 
REMARK    3  A    between atoms: C18_23  and  O1_24 
REMARK    4  A    between atoms: O1_24  and  C19_25 
REMARK    5  A    between atoms: C19_25  and  C20_26 
ROOT
HETATM    1  C1  UNL     1      28.852  11.863  47.703  1.00  0.00     0.121 A 
HETATM    2  C2  UNL     1      28.941  10.568  47.621  1.00  0.00     0.057 A 
HETATM    3  C3  UNL     1      29.918   9.705  48.341  1.00  0.00     0.092 A 
HETATM    4  C4  UNL     1      29.122   8.813  49.254  1.00  0.00     0.160 C 
HETATM    5  N2  UNL     1      28.230   7.934  48.520  1.00  0.00    -0.376 N 
HETATM    6  C12 UNL     1      28.925   7.277  47.467  1.00  0.00     0.084 C 
HETATM    7  C13 UNL     1      30.020   7.722  46.925  1.00  0.00     0.017 C 
HETATM    8  C14 UNL     1      30.711   8.975  47.316  1.00  0.00     0.112 A 
HETATM    9  C15 UNL     1      30.829   9.766  46.049  1.00  0.00     0.116 A 
HETATM   10  F1  UNL     1      29.789  10.236  45.307  1.00  0.00    -0.209 F 
HETATM   11  C16 UNL     1      32.117   9.967  45.716  1.00  0.00     0.042 A 
HETATM   12  C17 UNL     1      32.947   9.312  46.753  1.00  0.00     0.036 A 
HETATM   13  C18 UNL     1      32.116   8.754  47.654  1.00  0.00     0.068 A 
HETATM   14  N5  UNL     1      30.765  10.542  49.179  1.00  0.00    -0.368 N 
HETATM   15  C24 UNL     1      30.612  11.956  49.221  1.00  0.00     0.205 A 
HETATM   16  N6  UNL     1      29.731  12.559  48.540  1.00  0.00    -0.228 NA
HETATM   17  H32 UNL     1      31.506  10.098  49.766  1.00  0.00     0.161 HD
ENDROOT
BRANCH  13  18
HETATM   18  O1  UNL     1      32.838   8.123  48.657  1.00  0.00    -0.351 OA
BRANCH  18  19
HETATM   19  C19 UNL     1      33.953   7.333  48.391  1.00  0.00     0.207 C 
BRANCH  19  20
HETATM   20  C20 UNL     1      33.752   5.863  48.734  1.00  0.00     0.145 C 
HETATM   21  C21 UNL     1      34.809   4.995  48.135  1.00  0.00     0.036 C 
HETATM   22  C22 UNL     1      34.094   3.854  47.490  1.00  0.00     0.029 C 
HETATM   23  C23 UNL     1      32.663   4.070  47.922  1.00  0.00     0.168 C 
HETATM   24  O2  UNL     1      32.544   5.383  48.297  1.00  0.00    -0.384 OA
ENDBRANCH  19  20
ENDBRANCH  18  19
ENDBRANCH  13  18
BRANCH   1  25
HETATM   25  N1  UNL     1      27.838  12.491  46.922  1.00  0.00    -0.384 N 
HETATM   26  H1  UNL     1      27.304  13.319  47.296  1.00  0.00     0.157 HD
HETATM   27  H2  UNL     1      27.751  11.997  45.991  1.00  0.00     0.157 HD
ENDBRANCH   1  25
BRANCH   5  28
HETATM   28  C5  UNL     1      26.856   7.785  48.870  1.00  0.00     0.062 C 
HETATM   29  C6  UNL     1      26.501   8.300  50.246  1.00  0.00     0.300 C 
HETATM   30  N3  UNL     1      25.616   7.359  50.955  1.00  0.00     0.087 N 
HETATM   31  C7  UNL     1      24.248   7.680  50.717  1.00  0.00     0.288 C 
HETATM   32  H8  UNL     1      25.794   7.511  51.973  1.00  0.00     0.316 HD
HETATM   33  C8  UNL     1      23.595   6.775  49.691  1.00  0.00     0.144 C 
HETATM   34  N4  UNL     1      23.855   7.175  48.354  1.00  0.00    -0.415 N 
HETATM   35  C9  UNL     1      25.147   7.006  47.829  1.00  0.00     0.081 C 
HETATM   36  H13 UNL     1      23.079   6.931  47.711  1.00  0.00     0.153 HD
HETATM   37  C10 UNL     1      26.211   6.451  48.705  1.00  0.00     0.057 C 
HETATM   38  C11 UNL     1      25.866   8.335  47.867  1.00  0.00     0.057 C 
ENDBRANCH   5  28
TORSDOF 5
ENDMDL
