MODEL 1
REMARK VINA RESULT:      -7.6      0.000      0.000
REMARK  4 active torsions:
REMARK  status: ('A' for Active; 'I' for Inactive)
REMARK    1  A    between atoms: O1_2  and  O2_3 
REMARK    2  A    between atoms: O2_3  and  C2_4 
REMARK    3  A    between atoms: C7_11  and  N3_12 
REMARK    4  A    between atoms: N3_12  and  C9_14 
ROOT
HETATM    1  C2  UNL     1      23.471   2.257  51.946  1.00  0.00     0.102 A 
HETATM    2  C3  UNL     1      24.444   2.649  51.173  1.00  0.00     0.055 A 
HETATM    3  C4  UNL     1      24.342   3.304  49.975  1.00  0.00     0.073 A 
HETATM    4  N1  UNL     1      25.421   3.644  49.292  1.00  0.00    -0.241 NA
HETATM    5  C5  UNL     1      26.661   3.377  49.720  1.00  0.00     0.234 A 
HETATM    6  N2  UNL     1      26.790   2.736  50.892  1.00  0.00    -0.240 NA
HETATM    7  C6  UNL     1      25.715   2.373  51.616  1.00  0.00     0.088 A 
HETATM    8  C7  UNL     1      26.073   1.756  52.729  1.00  0.00     0.123 C 
HETATM    9  C15 UNL     1      22.971   3.592  49.516  1.00  0.00     0.029 A 
HETATM   10  C16 UNL     1      21.935   3.217  50.260  1.00  0.00    -0.018 A 
HETATM   11  C17 UNL     1      22.064   2.508  51.558  1.00  0.00     0.096 A 
ENDROOT
BRANCH   8  12
HETATM   12  N3  UNL     1      27.429   1.483  53.161  1.00  0.00    -0.359 N 
HETATM   13  C8  UNL     1      28.492   2.375  53.650  1.00  0.00     0.156 C 
BRANCH  12  14
HETATM   14  C9  UNL     1      27.854   0.125  53.119  1.00  0.00     0.033 A 
HETATM   15  C10 UNL     1      29.100  -0.292  53.500  1.00  0.00     0.029 A 
HETATM   16  C11 UNL     1      29.492  -1.628  53.447  1.00  0.00     0.002 A 
HETATM   17  C12 UNL     1      28.618  -2.595  53.002  1.00  0.00     0.000 A 
HETATM   18  C13 UNL     1      27.350  -2.227  52.607  1.00  0.00     0.002 A 
HETATM   19  C14 UNL     1      27.024  -0.898  52.680  1.00  0.00     0.029 A 
ENDBRANCH  12  14
ENDBRANCH   8  12
BRANCH   1  20
HETATM   20  O2  UNL     1      23.631   1.606  53.135  1.00  0.00    -0.201 OA
BRANCH  20  21
HETATM   21  O1  UNL     1      22.774   0.671  53.567  1.00  0.00    -0.241 OA
HETATM   22  C1  UNL     1      23.241  -0.622  53.302  1.00  0.00     0.247 C 
ENDBRANCH  20  21
ENDBRANCH   1  20
TORSDOF 4
ENDMDL
MODEL 2
REMARK VINA RESULT:      -7.4      2.507      6.474
REMARK  4 active torsions:
REMARK  status: ('A' for Active; 'I' for Inactive)
REMARK    1  A    between atoms: O1_2  and  O2_3 
REMARK    2  A    between atoms: O2_3  and  C2_4 
REMARK    3  A    between atoms: C7_11  and  N3_12 
REMARK    4  A    between atoms: N3_12  and  C9_14 
ROOT
HETATM    1  C2  UNL     1      27.030   1.883  52.921  1.00  0.00     0.102 A 
HETATM    2  C3  UNL     1      26.368   0.960  53.561  1.00  0.00     0.055 A 
HETATM    3  C4  UNL     1      26.845   0.111  54.522  1.00  0.00     0.073 A 
HETATM    4  N1  UNL     1      26.056  -0.783  55.091  1.00  0.00    -0.241 NA
HETATM    5  C5  UNL     1      24.762  -0.913  54.772  1.00  0.00     0.234 A 
HETATM    6  N2  UNL     1      24.269  -0.092  53.831  1.00  0.00    -0.240 NA
HETATM    7  C6  UNL     1      25.041   0.830  53.229  1.00  0.00     0.088 A 
HETATM    8  C7  UNL     1      24.352   1.524  52.339  1.00  0.00     0.123 C 
HETATM    9  C15 UNL     1      28.270   0.265  54.865  1.00  0.00     0.029 A 
HETATM   10  C16 UNL     1      29.000   1.188  54.247  1.00  0.00    -0.018 A 
HETATM   11  C17 UNL     1      28.466   2.103  53.206  1.00  0.00     0.096 A 
ENDROOT
BRANCH   8  12
HETATM   12  N3  UNL     1      22.950   1.356  52.018  1.00  0.00    -0.359 N 
HETATM   13  C8  UNL     1      21.796   0.994  52.857  1.00  0.00     0.156 C 
BRANCH  12  14
HETATM   14  C9  UNL     1      22.573   1.564  50.660  1.00  0.00     0.033 A 
HETATM   15  C10 UNL     1      21.566   0.878  50.039  1.00  0.00     0.029 A 
HETATM   16  C11 UNL     1      21.218   1.100  48.708  1.00  0.00     0.002 A 
HETATM   17  C12 UNL     1      21.891   2.039  47.958  1.00  0.00     0.000 A 
HETATM   18  C13 UNL     1      22.915   2.758  48.538  1.00  0.00     0.002 A 
HETATM   19  C14 UNL     1      23.210   2.493  49.850  1.00  0.00     0.029 A 
ENDBRANCH  12  14
ENDBRANCH   8  12
BRANCH   1  20
HETATM   20  O2  UNL     1      26.502   2.704  51.967  1.00  0.00    -0.201 OA
BRANCH  20  21
HETATM   21  O1  UNL     1      27.150   3.005  50.835  1.00  0.00    -0.241 OA
HETATM   22  C1  UNL     1      26.417   3.893  50.038  1.00  0.00     0.247 C 
ENDBRANCH  20  21
ENDBRANCH   1  20
TORSDOF 4
ENDMDL
MODEL 3
REMARK VINA RESULT:      -7.4      2.286      4.417
REMARK  4 active torsions:
REMARK  status: ('A' for Active; 'I' for Inactive)
REMARK    1  A    between atoms: O1_2  and  O2_3 
REMARK    2  A    between atoms: O2_3  and  C2_4 
REMARK    3  A    between atoms: C7_11  and  N3_12 
REMARK    4  A    between atoms: N3_12  and  C9_14 
ROOT
HETATM    1  C2  UNL     1      22.479   0.918  52.232  1.00  0.00     0.102 A 
HETATM    2  C3  UNL     1      22.703   0.176  53.280  1.00  0.00     0.055 A 
HETATM    3  C4  UNL     1      21.809  -0.175  54.256  1.00  0.00     0.073 A 
HETATM    4  N1  UNL     1      22.174  -0.939  55.269  1.00  0.00    -0.241 NA
HETATM    5  C5  UNL     1      23.420  -1.412  55.406  1.00  0.00     0.234 A 
HETATM    6  N2  UNL     1      24.316  -1.082  54.463  1.00  0.00    -0.240 NA
HETATM    7  C6  UNL     1      23.982  -0.306  53.417  1.00  0.00     0.088 A 
HETATM    8  C7  UNL     1      25.016  -0.109  52.617  1.00  0.00     0.123 C 
HETATM    9  C15 UNL     1      20.441   0.352  54.093  1.00  0.00     0.029 A 
HETATM   10  C16 UNL     1      20.151   1.115  53.044  1.00  0.00    -0.018 A 
HETATM   11  C17 UNL     1      21.132   1.486  51.994  1.00  0.00     0.096 A 
ENDROOT
BRANCH   8  12
HETATM   12  N3  UNL     1      26.352  -0.638  52.796  1.00  0.00    -0.359 N 
HETATM   13  C8  UNL     1      26.901  -1.987  52.589  1.00  0.00     0.156 C 
BRANCH  12  14
HETATM   14  C9  UNL     1      27.346   0.274  53.256  1.00  0.00     0.033 A 
HETATM   15  C10 UNL     1      27.315   1.618  53.004  1.00  0.00     0.029 A 
HETATM   16  C11 UNL     1      28.302   2.489  53.465  1.00  0.00     0.002 A 
HETATM   17  C12 UNL     1      29.361   2.015  54.207  1.00  0.00     0.000 A 
HETATM   18  C13 UNL     1      29.437   0.667  54.488  1.00  0.00     0.002 A 
HETATM   19  C14 UNL     1      28.438  -0.138  54.006  1.00  0.00     0.029 A 
ENDBRANCH  12  14
ENDBRANCH   8  12
BRANCH   1  20
HETATM   20  O2  UNL     1      23.412   1.238  51.288  1.00  0.00    -0.201 OA
BRANCH  20  21
HETATM   21  O1  UNL     1      23.362   2.374  50.580  1.00  0.00    -0.241 OA
HETATM   22  C1  UNL     1      24.507   3.156  50.774  1.00  0.00     0.247 C 
ENDBRANCH  20  21
ENDBRANCH   1  20
TORSDOF 4
ENDMDL
MODEL 4
REMARK VINA RESULT:      -7.4      1.452      1.834
REMARK  4 active torsions:
REMARK  status: ('A' for Active; 'I' for Inactive)
REMARK    1  A    between atoms: O1_2  and  O2_3 
REMARK    2  A    between atoms: O2_3  and  C2_4 
REMARK    3  A    between atoms: C7_11  and  N3_12 
REMARK    4  A    between atoms: N3_12  and  C9_14 
ROOT
HETATM    1  C2  UNL     1      22.600   0.240  52.486  1.00  0.00     0.102 A 
HETATM    2  C3  UNL     1      23.222   1.108  51.739  1.00  0.00     0.055 A 
HETATM    3  C4  UNL     1      22.706   1.827  50.695  1.00  0.00     0.073 A 
HETATM    4  N1  UNL     1      23.457   2.678  50.019  1.00  0.00    -0.241 NA
HETATM    5  C5  UNL     1      24.747   2.891  50.307  1.00  0.00     0.234 A 
HETATM    6  N2  UNL     1      25.278   2.198  51.327  1.00  0.00    -0.240 NA
HETATM    7  C6  UNL     1      24.546   1.322  52.038  1.00  0.00     0.088 A 
HETATM    8  C7  UNL     1      25.268   0.755  52.989  1.00  0.00     0.123 C 
HETATM    9  C15 UNL     1      21.284   1.583  50.389  1.00  0.00     0.029 A 
HETATM   10  C16 UNL     1      20.595   0.709  51.115  1.00  0.00    -0.018 A 
HETATM   11  C17 UNL     1      21.170  -0.062  52.245  1.00  0.00     0.096 A 
ENDROOT
BRANCH   8  12
HETATM   12  N3  UNL     1      26.665   1.010  53.273  1.00  0.00    -0.359 N 
HETATM   13  C8  UNL     1      27.384   2.255  53.584  1.00  0.00     0.156 C 
BRANCH  12  14
HETATM   14  C9  UNL     1      27.538  -0.116  53.255  1.00  0.00     0.033 A 
HETATM   15  C10 UNL     1      28.841  -0.071  53.670  1.00  0.00     0.029 A 
HETATM   16  C11 UNL     1      29.676  -1.187  53.641  1.00  0.00     0.002 A 
HETATM   17  C12 UNL     1      29.206  -2.399  53.185  1.00  0.00     0.000 A 
HETATM   18  C13 UNL     1      27.899  -2.496  52.755  1.00  0.00     0.002 A 
HETATM   19  C14 UNL     1      27.129  -1.364  52.807  1.00  0.00     0.029 A 
ENDBRANCH  12  14
ENDBRANCH   8  12
BRANCH   1  20
HETATM   20  O2  UNL     1      23.167  -0.451  53.518  1.00  0.00    -0.201 OA
BRANCH  20  21
HETATM   21  O1  UNL     1      22.445  -1.171  54.387  1.00  0.00    -0.241 OA
HETATM   22  C1  UNL     1      23.158  -1.429  55.564  1.00  0.00     0.247 C 
ENDBRANCH  20  21
ENDBRANCH   1  20
TORSDOF 4
ENDMDL
MODEL 5
REMARK VINA RESULT:      -7.3      2.141      4.085
REMARK  4 active torsions:
REMARK  status: ('A' for Active; 'I' for Inactive)
REMARK    1  A    between atoms: O1_2  and  O2_3 
REMARK    2  A    between atoms: O2_3  and  C2_4 
REMARK    3  A    between atoms: C7_11  and  N3_12 
REMARK    4  A    between atoms: N3_12  and  C9_14 
ROOT
HETATM    1  C2  UNL     1      22.471   0.257  52.533  1.00  0.00     0.102 A 
HETATM    2  C3  UNL     1      22.986  -0.264  53.612  1.00  0.00     0.055 A 
HETATM    3  C4  UNL     1      22.344  -1.015  54.559  1.00  0.00     0.073 A 
HETATM    4  N1  UNL     1      22.994  -1.483  55.610  1.00  0.00    -0.241 NA
HETATM    5  C5  UNL     1      24.298  -1.258  55.812  1.00  0.00     0.234 A 
HETATM    6  N2  UNL     1      24.951  -0.524  54.898  1.00  0.00    -0.240 NA
HETATM    7  C6  UNL     1      24.324  -0.030  53.815  1.00  0.00     0.088 A 
HETATM    8  C7  UNL     1      25.155   0.660  53.053  1.00  0.00     0.123 C 
HETATM    9  C15 UNL     1      20.908  -1.256  54.324  1.00  0.00     0.029 A 
HETATM   10  C16 UNL     1      20.325  -0.750  53.242  1.00  0.00    -0.018 A 
HETATM   11  C17 UNL     1      21.036   0.062  52.223  1.00  0.00     0.096 A 
ENDROOT
BRANCH   8  12
HETATM   12  N3  UNL     1      26.564   0.883  53.303  1.00  0.00    -0.359 N 
HETATM   13  C8  UNL     1      27.312   2.107  53.630  1.00  0.00     0.156 C 
BRANCH  12  14
HETATM   14  C9  UNL     1      27.417  -0.255  53.227  1.00  0.00     0.033 A 
HETATM   15  C10 UNL     1      28.717  -0.258  53.656  1.00  0.00     0.029 A 
HETATM   16  C11 UNL     1      29.531  -1.386  53.568  1.00  0.00     0.002 A 
HETATM   17  C12 UNL     1      29.045  -2.560  53.038  1.00  0.00     0.000 A 
HETATM   18  C13 UNL     1      27.740  -2.608  52.592  1.00  0.00     0.002 A 
HETATM   19  C14 UNL     1      26.990  -1.467  52.704  1.00  0.00     0.029 A 
ENDBRANCH  12  14
ENDBRANCH   8  12
BRANCH   1  20
HETATM   20  O2  UNL     1      23.160   1.001  51.620  1.00  0.00    -0.201 OA
BRANCH  20  21
HETATM   21  O1  UNL     1      22.584   1.971  50.897  1.00  0.00    -0.241 OA
HETATM   22  C1  UNL     1      23.093   3.234  51.225  1.00  0.00     0.247 C 
ENDBRANCH  20  21
ENDBRANCH   1  20
TORSDOF 4
ENDMDL
MODEL 6
REMARK VINA RESULT:      -7.1      2.349      5.770
REMARK  4 active torsions:
REMARK  status: ('A' for Active; 'I' for Inactive)
REMARK    1  A    between atoms: O1_2  and  O2_3 
REMARK    2  A    between atoms: O2_3  and  C2_4 
REMARK    3  A    between atoms: C7_11  and  N3_12 
REMARK    4  A    between atoms: N3_12  and  C9_14 
ROOT
HETATM    1  C2  UNL     1      26.189   0.364  53.960  1.00  0.00     0.102 A 
HETATM    2  C3  UNL     1      26.287   1.201  52.965  1.00  0.00     0.055 A 
HETATM    3  C4  UNL     1      27.391   1.914  52.585  1.00  0.00     0.073 A 
HETATM    4  N1  UNL     1      27.348   2.732  51.549  1.00  0.00    -0.241 NA
HETATM    5  C5  UNL     1      26.242   2.914  50.816  1.00  0.00     0.234 A 
HETATM    6  N2  UNL     1      25.144   2.226  51.168  1.00  0.00    -0.240 NA
HETATM    7  C6  UNL     1      25.149   1.384  52.217  1.00  0.00     0.088 A 
HETATM    8  C7  UNL     1      23.966   0.817  52.382  1.00  0.00     0.123 C 
HETATM    9  C15 UNL     1      28.602   1.705  53.399  1.00  0.00     0.029 A 
HETATM   10  C16 UNL     1      28.566   0.864  54.428  1.00  0.00    -0.018 A 
HETATM   11  C17 UNL     1      27.360   0.097  54.827  1.00  0.00     0.096 A 
ENDROOT
BRANCH   8  12
HETATM   12  N3  UNL     1      22.788   1.037  51.568  1.00  0.00    -0.359 N 
HETATM   13  C8  UNL     1      22.608   1.737  50.287  1.00  0.00     0.156 C 
BRANCH  12  14
HETATM   14  C9  UNL     1      21.563   0.500  52.056  1.00  0.00     0.033 A 
HETATM   15  C10 UNL     1      20.385   0.547  51.362  1.00  0.00     0.029 A 
HETATM   16  C11 UNL     1      19.198   0.016  51.864  1.00  0.00     0.002 A 
HETATM   17  C12 UNL     1      19.171  -0.590  53.100  1.00  0.00     0.000 A 
HETATM   18  C13 UNL     1      20.333  -0.664  53.840  1.00  0.00     0.002 A 
HETATM   19  C14 UNL     1      21.467  -0.122  53.293  1.00  0.00     0.029 A 
ENDBRANCH  12  14
ENDBRANCH   8  12
BRANCH   1  20
HETATM   20  O2  UNL     1      25.058  -0.323  54.295  1.00  0.00    -0.201 OA
BRANCH  20  21
HETATM   21  O1  UNL     1      25.004  -1.158  55.341  1.00  0.00    -0.241 OA
HETATM   22  C1  UNL     1      23.684  -1.457  55.698  1.00  0.00     0.247 C 
ENDBRANCH  20  21
ENDBRANCH   1  20
TORSDOF 4
ENDMDL
MODEL 7
REMARK VINA RESULT:      -7.1      3.033      4.349
REMARK  4 active torsions:
REMARK  status: ('A' for Active; 'I' for Inactive)
REMARK    1  A    between atoms: O1_2  and  O2_3 
REMARK    2  A    between atoms: O2_3  and  C2_4 
REMARK    3  A    between atoms: C7_11  and  N3_12 
REMARK    4  A    between atoms: N3_12  and  C9_14 
ROOT
HETATM    1  C2  UNL     1      20.185  -0.204  53.312  1.00  0.00     0.102 A 
HETATM    2  C3  UNL     1      20.367   0.477  52.216  1.00  0.00     0.055 A 
HETATM    3  C4  UNL     1      19.516   0.576  51.148  1.00  0.00     0.073 A 
HETATM    4  N1  UNL     1      19.831   1.307  50.094  1.00  0.00    -0.241 NA
HETATM    5  C5  UNL     1      20.981   1.987  50.003  1.00  0.00     0.234 A 
HETATM    6  N2  UNL     1      21.833   1.907  51.037  1.00  0.00    -0.240 NA
HETATM    7  C6  UNL     1      21.548   1.173  52.127  1.00  0.00     0.088 A 
HETATM    8  C7  UNL     1      22.524   1.236  53.016  1.00  0.00     0.123 C 
HETATM    9  C15 UNL     1      18.254  -0.177  51.261  1.00  0.00     0.029 A 
HETATM   10  C16 UNL     1      18.009  -0.891  52.356  1.00  0.00    -0.018 A 
HETATM   11  C17 UNL     1      18.943  -0.987  53.506  1.00  0.00     0.096 A 
ENDROOT
BRANCH   8  12
HETATM   12  N3  UNL     1      23.758   1.984  52.884  1.00  0.00    -0.359 N 
HETATM   13  C8  UNL     1      24.016   3.431  52.818  1.00  0.00     0.156 C 
BRANCH  12  14
HETATM   14  C9  UNL     1      24.961   1.226  52.796  1.00  0.00     0.033 A 
HETATM   15  C10 UNL     1      26.184   1.775  52.524  1.00  0.00     0.029 A 
HETATM   16  C11 UNL     1      27.347   1.010  52.441  1.00  0.00     0.002 A 
HETATM   17  C12 UNL     1      27.302  -0.352  52.637  1.00  0.00     0.000 A 
HETATM   18  C13 UNL     1      26.092  -0.954  52.914  1.00  0.00     0.002 A 
HETATM   19  C14 UNL     1      24.985  -0.149  52.981  1.00  0.00     0.029 A 
ENDBRANCH  12  14
ENDBRANCH   8  12
BRANCH   1  20
HETATM   20  O2  UNL     1      21.070  -0.267  54.349  1.00  0.00    -0.201 OA
BRANCH  20  21
HETATM   21  O1  UNL     1      21.338  -1.407  55.000  1.00  0.00    -0.241 OA
HETATM   22  C1  UNL     1      22.689  -1.494  55.359  1.00  0.00     0.247 C 
ENDBRANCH  20  21
ENDBRANCH   1  20
TORSDOF 4
ENDMDL
MODEL 8
REMARK VINA RESULT:      -7.0      2.534      5.592
REMARK  4 active torsions:
REMARK  status: ('A' for Active; 'I' for Inactive)
REMARK    1  A    between atoms: O1_2  and  O2_3 
REMARK    2  A    between atoms: O2_3  and  C2_4 
REMARK    3  A    between atoms: C7_11  and  N3_12 
REMARK    4  A    between atoms: N3_12  and  C9_14 
ROOT
HETATM    1  C2  UNL     1      23.382   0.426  53.453  1.00  0.00     0.102 A 
HETATM    2  C3  UNL     1      22.311   1.060  53.067  1.00  0.00     0.055 A 
HETATM    3  C4  UNL     1      21.012   0.643  53.180  1.00  0.00     0.073 A 
HETATM    4  N1  UNL     1      20.017   1.394  52.742  1.00  0.00    -0.241 NA
HETATM    5  C5  UNL     1      20.210   2.589  52.170  1.00  0.00     0.234 A 
HETATM    6  N2  UNL     1      21.475   3.022  52.047  1.00  0.00    -0.240 NA
HETATM    7  C6  UNL     1      22.514   2.286  52.481  1.00  0.00     0.088 A 
HETATM    8  C7  UNL     1      23.663   2.902  52.258  1.00  0.00     0.123 C 
HETATM    9  C15 UNL     1      20.814  -0.674  53.811  1.00  0.00     0.029 A 
HETATM   10  C16 UNL     1      21.867  -1.370  54.226  1.00  0.00    -0.018 A 
HETATM   11  C17 UNL     1      23.270  -0.903  54.097  1.00  0.00     0.096 A 
ENDROOT
BRANCH   8  12
HETATM   12  N3  UNL     1      23.835   4.198  51.636  1.00  0.00    -0.359 N 
HETATM   13  C8  UNL     1      23.085   5.456  51.783  1.00  0.00     0.156 C 
BRANCH  12  14
HETATM   14  C9  UNL     1      24.906   4.326  50.706  1.00  0.00     0.033 A 
HETATM   15  C10 UNL     1      25.741   3.296  50.366  1.00  0.00     0.029 A 
HETATM   16  C11 UNL     1      26.784   3.448  49.453  1.00  0.00     0.002 A 
HETATM   17  C12 UNL     1      27.013   4.665  48.850  1.00  0.00     0.000 A 
HETATM   18  C13 UNL     1      26.199   5.734  49.159  1.00  0.00     0.002 A 
HETATM   19  C14 UNL     1      25.192   5.523  50.064  1.00  0.00     0.029 A 
ENDBRANCH  12  14
ENDBRANCH   8  12
BRANCH   1  20
HETATM   20  O2  UNL     1      24.658   0.891  53.315  1.00  0.00    -0.201 OA
BRANCH  20  21
HETATM   21  O1  UNL     1      25.729   0.088  53.372  1.00  0.00    -0.241 OA
HETATM   22  C1  UNL     1      26.439   0.083  52.165  1.00  0.00     0.247 C 
ENDBRANCH  20  21
ENDBRANCH   1  20
TORSDOF 4
ENDMDL
MODEL 9
REMARK VINA RESULT:      -6.8      2.240      5.520
REMARK  4 active torsions:
REMARK  status: ('A' for Active; 'I' for Inactive)
REMARK    1  A    between atoms: O1_2  and  O2_3 
REMARK    2  A    between atoms: O2_3  and  C2_4 
REMARK    3  A    between atoms: C7_11  and  N3_12 
REMARK    4  A    between atoms: N3_12  and  C9_14 
ROOT
HETATM    1  C2  UNL     1      22.421   0.004  52.886  1.00  0.00     0.102 A 
HETATM    2  C3  UNL     1      23.517  -0.168  53.571  1.00  0.00     0.055 A 
HETATM    3  C4  UNL     1      23.698  -0.974  54.662  1.00  0.00     0.073 A 
HETATM    4  N1  UNL     1      24.872  -1.052  55.262  1.00  0.00    -0.241 NA
HETATM    5  C5  UNL     1      25.943  -0.362  54.849  1.00  0.00     0.234 A 
HETATM    6  N2  UNL     1      25.793   0.436  53.780  1.00  0.00    -0.240 NA
HETATM    7  C6  UNL     1      24.613   0.542  53.143  1.00  0.00     0.088 A 
HETATM    8  C7  UNL     1      24.692   1.380  52.124  1.00  0.00     0.123 C 
HETATM    9  C15 UNL     1      22.511  -1.728  55.107  1.00  0.00     0.029 A 
HETATM   10  C16 UNL     1      21.363  -1.595  54.450  1.00  0.00    -0.018 A 
HETATM   11  C17 UNL     1      21.185  -0.717  53.267  1.00  0.00     0.096 A 
ENDROOT
BRANCH   8  12
HETATM   12  N3  UNL     1      25.870   2.111  51.704  1.00  0.00    -0.359 N 
HETATM   13  C8  UNL     1      27.290   1.953  52.055  1.00  0.00     0.156 C 
BRANCH  12  14
HETATM   14  C9  UNL     1      25.666   3.185  50.790  1.00  0.00     0.033 A 
HETATM   15  C10 UNL     1      24.471   3.833  50.637  1.00  0.00     0.029 A 
HETATM   16  C11 UNL     1      24.298   4.881  49.735  1.00  0.00     0.002 A 
HETATM   17  C12 UNL     1      25.346   5.309  48.952  1.00  0.00     0.000 A 
HETATM   18  C13 UNL     1      26.572   4.688  49.068  1.00  0.00     0.002 A 
HETATM   19  C14 UNL     1      26.680   3.664  49.972  1.00  0.00     0.029 A 
ENDBRANCH  12  14
ENDBRANCH   8  12
BRANCH   1  20
HETATM   20  O2  UNL     1      22.297   0.823  51.802  1.00  0.00    -0.201 OA
BRANCH  20  21
HETATM   21  O1  UNL     1      21.522   0.519  50.753  1.00  0.00    -0.241 OA
HETATM   22  C1  UNL     1      21.748   1.383  49.674  1.00  0.00     0.247 C 
ENDBRANCH  20  21
ENDBRANCH   1  20
TORSDOF 4
ENDMDL
