MODEL 1
REMARK VINA RESULT:      -8.6      0.000      0.000
REMARK  4 active torsions:
REMARK  status: ('A' for Active; 'I' for Inactive)
REMARK    1  A    between atoms: N1_1  and  C1_2 
REMARK    2  A    between atoms: C6_7  and  N2_8 
REMARK       I    between atoms: N2_8  and  C7_9 
REMARK    3  A    between atoms: C7_9  and  C8_11 
REMARK    4  A    between atoms: C11_14  and  C12_15 
ROOT
HETATM    1  N2  UNL     1      25.951  -0.428  53.004  1.00  0.00    -0.319 N 
HETATM    2  C7  UNL     1      25.191  -0.580  54.192  1.00  0.00     0.280 C 
HETATM    3  O1  UNL     1      25.661  -0.661  55.366  1.00  0.00    -0.265 OA
HETATM    4  H7  UNL     1      25.450  -0.372  52.079  1.00  0.00     0.169 HD
ENDROOT
BRANCH   2   5
HETATM    5  C8  UNL     1      23.740  -0.653  54.082  1.00  0.00     0.144 A 
HETATM    6  C9  UNL     1      22.874  -1.248  55.008  1.00  0.00     0.046 A 
HETATM    7  C10 UNL     1      21.570  -1.124  54.566  1.00  0.00     0.041 A 
HETATM    8  C11 UNL     1      21.724  -0.451  53.378  1.00  0.00     0.087 A 
HETATM    9  O2  UNL     1      22.983  -0.199  53.133  1.00  0.00    -0.304 OA
BRANCH   8  10
HETATM   10  C12 UNL     1      20.750  -0.004  52.407  1.00  0.00     0.010 A 
HETATM   11  C13 UNL     1      20.915   0.789  51.376  1.00  0.00     0.027 A 
HETATM   12  P1  UNL     1      19.468   1.060  50.474  1.00  0.00    -0.055 P 
HETATM   13  C14 UNL     1      17.800   0.505  50.628  1.00  0.00     0.071 A 
HETATM   14  C16 UNL     1      19.363  -0.071  51.992  1.00  0.00    -0.017 A 
HETATM   15  C15 UNL     1      18.075  -0.305  51.843  1.00  0.00    -0.008 A 
ENDBRANCH   8  10
ENDBRANCH   2   5
BRANCH   1  16
HETATM   16  C6  UNL     1      27.371  -0.369  53.248  1.00  0.00     0.061 A 
HETATM   17  C1  UNL     1      28.019  -1.588  53.097  1.00  0.00     0.052 A 
HETATM   18  C2  UNL     1      29.398  -1.639  53.310  1.00  0.00     0.031 A 
HETATM   19  C3  UNL     1      30.067  -0.485  53.661  1.00  0.00     0.002 A 
HETATM   20  C4  UNL     1      29.422   0.729  53.812  1.00  0.00     0.002 A 
HETATM   21  C5  UNL     1      28.059   0.774  53.600  1.00  0.00     0.032 A 
BRANCH  17  22
HETATM   22  N1  UNL     1      27.332  -2.797  52.731  1.00  0.00    -0.397 N 
HETATM   23  H1  UNL     1      27.860  -3.081  51.858  1.00  0.00     0.156 HD
HETATM   24  H2  UNL     1      26.517  -3.291  53.188  1.00  0.00     0.156 HD
ENDBRANCH  17  22
ENDBRANCH   1  16
TORSDOF 4
ENDMDL
MODEL 2
REMARK VINA RESULT:      -8.5      0.806      1.607
REMARK  4 active torsions:
REMARK  status: ('A' for Active; 'I' for Inactive)
REMARK    1  A    between atoms: N1_1  and  C1_2 
REMARK    2  A    between atoms: C6_7  and  N2_8 
REMARK       I    between atoms: N2_8  and  C7_9 
REMARK    3  A    between atoms: C7_9  and  C8_11 
REMARK    4  A    between atoms: C11_14  and  C12_15 
ROOT
HETATM    1  N2  UNL     1      25.734  -0.012  53.014  1.00  0.00    -0.319 N 
HETATM    2  C7  UNL     1      24.969  -0.573  54.068  1.00  0.00     0.280 C 
HETATM    3  O1  UNL     1      25.434  -1.080  55.132  1.00  0.00    -0.265 OA
HETATM    4  H7  UNL     1      25.237   0.381  52.173  1.00  0.00     0.169 HD
ENDROOT
BRANCH   2   5
HETATM    5  C8  UNL     1      23.517  -0.582  53.941  1.00  0.00     0.144 A 
HETATM    6  C9  UNL     1      22.612  -1.082  54.887  1.00  0.00     0.046 A 
HETATM    7  C10 UNL     1      21.321  -0.919  54.421  1.00  0.00     0.041 A 
HETATM    8  C11 UNL     1      21.522  -0.321  53.200  1.00  0.00     0.087 A 
HETATM    9  O2  UNL     1      22.794  -0.144  52.959  1.00  0.00    -0.304 OA
BRANCH   8  10
HETATM   10  C12 UNL     1      20.582   0.119  52.193  1.00  0.00     0.010 A 
HETATM   11  C13 UNL     1      20.774   0.933  51.183  1.00  0.00     0.027 A 
HETATM   12  P1  UNL     1      19.363   1.185  50.219  1.00  0.00    -0.055 P 
HETATM   13  C14 UNL     1      17.704   0.589  50.290  1.00  0.00     0.071 A 
HETATM   14  C16 UNL     1      19.217   0.027  51.714  1.00  0.00    -0.017 A 
HETATM   15  C15 UNL     1      17.942  -0.234  51.504  1.00  0.00    -0.008 A 
ENDBRANCH   8  10
ENDBRANCH   2   5
BRANCH   1  16
HETATM   16  C6  UNL     1      27.154  -0.064  53.260  1.00  0.00     0.061 A 
HETATM   17  C1  UNL     1      27.693   1.137  53.706  1.00  0.00     0.052 A 
HETATM   18  C2  UNL     1      29.061   1.192  53.974  1.00  0.00     0.031 A 
HETATM   19  C3  UNL     1      29.830   0.061  53.789  1.00  0.00     0.002 A 
HETATM   20  C4  UNL     1      29.294  -1.134  53.345  1.00  0.00     0.002 A 
HETATM   21  C5  UNL     1      27.941  -1.184  53.081  1.00  0.00     0.032 A 
BRANCH  17  22
HETATM   22  N1  UNL     1      26.901   2.321  53.902  1.00  0.00    -0.397 N 
HETATM   23  H1  UNL     1      26.576   2.190  54.901  1.00  0.00     0.156 HD
HETATM   24  H2  UNL     1      26.685   3.121  53.246  1.00  0.00     0.156 HD
ENDBRANCH  17  22
ENDBRANCH   1  16
TORSDOF 4
ENDMDL
MODEL 3
REMARK VINA RESULT:      -7.5      6.222      8.654
REMARK  4 active torsions:
REMARK  status: ('A' for Active; 'I' for Inactive)
REMARK    1  A    between atoms: N1_1  and  C1_2 
REMARK    2  A    between atoms: C6_7  and  N2_8 
REMARK       I    between atoms: N2_8  and  C7_9 
REMARK    3  A    between atoms: C7_9  and  C8_11 
REMARK    4  A    between atoms: C11_14  and  C12_15 
ROOT
HETATM    1  N2  UNL     1      25.582   2.963  52.167  1.00  0.00    -0.319 N 
HETATM    2  C7  UNL     1      26.231   2.749  50.924  1.00  0.00     0.280 C 
HETATM    3  O1  UNL     1      26.672   1.640  50.500  1.00  0.00    -0.265 OA
HETATM    4  H7  UNL     1      25.256   3.933  52.415  1.00  0.00     0.169 HD
ENDROOT
BRANCH   2   5
HETATM    5  C8  UNL     1      26.422   3.890  50.038  1.00  0.00     0.144 A 
HETATM    6  C9  UNL     1      25.414   4.732  49.552  1.00  0.00     0.046 A 
HETATM    7  C10 UNL     1      25.972   5.701  48.740  1.00  0.00     0.041 A 
HETATM    8  C11 UNL     1      27.309   5.386  48.782  1.00  0.00     0.087 A 
HETATM    9  O2  UNL     1      27.529   4.341  49.535  1.00  0.00    -0.304 OA
BRANCH   8  10
HETATM   10  C12 UNL     1      28.451   6.005  48.147  1.00  0.00     0.010 A 
HETATM   11  C13 UNL     1      28.528   7.159  47.530  1.00  0.00     0.027 A 
HETATM   12  P1  UNL     1      30.103   7.511  46.915  1.00  0.00    -0.055 P 
HETATM   13  C14 UNL     1      31.648   6.659  46.931  1.00  0.00     0.071 A 
HETATM   14  C16 UNL     1      29.860   5.869  47.831  1.00  0.00    -0.017 A 
HETATM   15  C15 UNL     1      31.113   5.492  47.681  1.00  0.00    -0.008 A 
ENDBRANCH   8  10
ENDBRANCH   2   5
BRANCH   1  16
HETATM   16  C6  UNL     1      25.454   1.758  52.949  1.00  0.00     0.061 A 
HETATM   17  C1  UNL     1      26.453   1.598  53.902  1.00  0.00     0.052 A 
HETATM   18  C2  UNL     1      26.421   0.462  54.714  1.00  0.00     0.031 A 
HETATM   19  C3  UNL     1      25.406  -0.456  54.545  1.00  0.00     0.002 A 
HETATM   20  C4  UNL     1      24.412  -0.297  53.597  1.00  0.00     0.002 A 
HETATM   21  C5  UNL     1      24.447   0.827  52.797  1.00  0.00     0.032 A 
BRANCH  17  22
HETATM   22  N1  UNL     1      27.515   2.549  54.086  1.00  0.00    -0.397 N 
HETATM   23  H1  UNL     1      27.546   2.626  55.142  1.00  0.00     0.156 HD
HETATM   24  H2  UNL     1      28.119   3.053  53.379  1.00  0.00     0.156 HD
ENDBRANCH  17  22
ENDBRANCH   1  16
TORSDOF 4
ENDMDL
MODEL 4
REMARK VINA RESULT:      -7.5      6.792      9.650
REMARK  4 active torsions:
REMARK  status: ('A' for Active; 'I' for Inactive)
REMARK    1  A    between atoms: N1_1  and  C1_2 
REMARK    2  A    between atoms: C6_7  and  N2_8 
REMARK       I    between atoms: N2_8  and  C7_9 
REMARK    3  A    between atoms: C7_9  and  C8_11 
REMARK    4  A    between atoms: C11_14  and  C12_15 
ROOT
HETATM    1  N2  UNL     1      26.784   3.218  51.277  1.00  0.00    -0.319 N 
HETATM    2  C7  UNL     1      26.289   3.572  49.995  1.00  0.00     0.280 C 
HETATM    3  O1  UNL     1      25.305   3.034  49.406  1.00  0.00    -0.265 OA
HETATM    4  H7  UNL     1      27.613   3.737  51.667  1.00  0.00     0.169 HD
ENDROOT
BRANCH   2   5
HETATM    5  C8  UNL     1      26.956   4.645  49.268  1.00  0.00     0.144 A 
HETATM    6  C9  UNL     1      26.364   5.841  48.843  1.00  0.00     0.046 A 
HETATM    7  C10 UNL     1      27.303   6.613  48.186  1.00  0.00     0.041 A 
HETATM    8  C11 UNL     1      28.429   5.828  48.252  1.00  0.00     0.087 A 
HETATM    9  O2  UNL     1      28.191   4.706  48.879  1.00  0.00    -0.304 OA
BRANCH   8  10
HETATM   10  C12 UNL     1      29.769   6.046  47.756  1.00  0.00     0.010 A 
HETATM   11  C13 UNL     1      30.262   7.092  47.139  1.00  0.00     0.027 A 
HETATM   12  P1  UNL     1      31.929   6.926  46.718  1.00  0.00    -0.055 P 
HETATM   13  C14 UNL     1      33.130   5.652  46.933  1.00  0.00     0.071 A 
HETATM   14  C16 UNL     1      31.096   5.478  47.616  1.00  0.00    -0.017 A 
HETATM   15  C15 UNL     1      32.185   4.736  47.625  1.00  0.00    -0.008 A 
ENDBRANCH   8  10
ENDBRANCH   2   5
BRANCH   1  16
HETATM   16  C6  UNL     1      26.040   2.146  51.890  1.00  0.00     0.061 A 
HETATM   17  C1  UNL     1      24.852   2.553  52.485  1.00  0.00     0.052 A 
HETATM   18  C2  UNL     1      24.057   1.590  53.108  1.00  0.00     0.031 A 
HETATM   19  C3  UNL     1      24.472   0.274  53.111  1.00  0.00     0.002 A 
HETATM   20  C4  UNL     1      25.654  -0.132  52.519  1.00  0.00     0.002 A 
HETATM   21  C5  UNL     1      26.437   0.824  51.905  1.00  0.00     0.032 A 
BRANCH  17  22
HETATM   22  N1  UNL     1      24.410   3.921  52.488  1.00  0.00    -0.397 N 
HETATM   23  H1  UNL     1      25.292   4.424  52.788  1.00  0.00     0.156 HD
HETATM   24  H2  UNL     1      23.467   4.341  52.257  1.00  0.00     0.156 HD
ENDBRANCH  17  22
ENDBRANCH   1  16
TORSDOF 4
ENDMDL
MODEL 5
REMARK VINA RESULT:      -7.5      5.677      8.211
REMARK  4 active torsions:
REMARK  status: ('A' for Active; 'I' for Inactive)
REMARK    1  A    between atoms: N1_1  and  C1_2 
REMARK    2  A    between atoms: C6_7  and  N2_8 
REMARK       I    between atoms: N2_8  and  C7_9 
REMARK    3  A    between atoms: C7_9  and  C8_11 
REMARK    4  A    between atoms: C11_14  and  C12_15 
ROOT
HETATM    1  N2  UNL     1      25.652   4.815  50.732  1.00  0.00    -0.319 N 
HETATM    2  C7  UNL     1      24.651   3.818  50.604  1.00  0.00     0.280 C 
HETATM    3  O1  UNL     1      23.604   3.906  49.896  1.00  0.00    -0.265 OA
HETATM    4  H7  UNL     1      26.483   4.631  51.352  1.00  0.00     0.169 HD
ENDROOT
BRANCH   2   5
HETATM    5  C8  UNL     1      24.817   2.572  51.342  1.00  0.00     0.144 A 
HETATM    6  C9  UNL     1      23.791   1.825  51.934  1.00  0.00     0.046 A 
HETATM    7  C10 UNL     1      24.328   0.707  52.545  1.00  0.00     0.041 A 
HETATM    8  C11 UNL     1      25.670   0.845  52.283  1.00  0.00     0.087 A 
HETATM    9  O2  UNL     1      25.913   1.927  51.592  1.00  0.00    -0.304 OA
BRANCH   8  10
HETATM   10  C12 UNL     1      26.797   0.013  52.642  1.00  0.00     0.010 A 
HETATM   11  C13 UNL     1      26.925  -1.289  52.554  1.00  0.00     0.027 A 
HETATM   12  P1  UNL     1      28.456  -1.873  53.099  1.00  0.00    -0.055 P 
HETATM   13  C14 UNL     1      29.902  -1.103  53.756  1.00  0.00     0.071 A 
HETATM   14  C16 UNL     1      28.145  -0.003  53.176  1.00  0.00    -0.017 A 
HETATM   15  C15 UNL     1      29.333   0.268  53.677  1.00  0.00    -0.008 A 
ENDBRANCH   8  10
ENDBRANCH   2   5
BRANCH   1  16
HETATM   16  C6  UNL     1      25.371   5.997  49.954  1.00  0.00     0.061 A 
HETATM   17  C1  UNL     1      24.746   7.009  50.673  1.00  0.00     0.052 A 
HETATM   18  C2  UNL     1      24.431   8.197  50.011  1.00  0.00     0.031 A 
HETATM   19  C3  UNL     1      24.748   8.327  48.675  1.00  0.00     0.002 A 
HETATM   20  C4  UNL     1      25.370   7.320  47.959  1.00  0.00     0.002 A 
HETATM   21  C5  UNL     1      25.680   6.148  48.617  1.00  0.00     0.032 A 
BRANCH  17  22
HETATM   22  N1  UNL     1      24.411   6.884  52.065  1.00  0.00    -0.397 N 
HETATM   23  H1  UNL     1      24.926   7.712  52.478  1.00  0.00     0.156 HD
HETATM   24  H2  UNL     1      23.817   6.169  52.569  1.00  0.00     0.156 HD
ENDBRANCH  17  22
ENDBRANCH   1  16
TORSDOF 4
ENDMDL
MODEL 6
REMARK VINA RESULT:      -7.5      2.036      2.730
REMARK  4 active torsions:
REMARK  status: ('A' for Active; 'I' for Inactive)
REMARK    1  A    between atoms: N1_1  and  C1_2 
REMARK    2  A    between atoms: C6_7  and  N2_8 
REMARK       I    between atoms: N2_8  and  C7_9 
REMARK    3  A    between atoms: C7_9  and  C8_11 
REMARK    4  A    between atoms: C11_14  and  C12_15 
ROOT
HETATM    1  N2  UNL     1      25.995   0.421  53.594  1.00  0.00    -0.319 N 
HETATM    2  C7  UNL     1      25.531   0.918  52.349  1.00  0.00     0.280 C 
HETATM    3  O1  UNL     1      26.203   0.975  51.277  1.00  0.00    -0.265 OA
HETATM    4  H7  UNL     1      25.344   0.424  54.422  1.00  0.00     0.169 HD
ENDROOT
BRANCH   2   5
HETATM    5  C8  UNL     1      24.163   1.415  52.269  1.00  0.00     0.144 A 
HETATM    6  C9  UNL     1      23.776   2.761  52.263  1.00  0.00     0.046 A 
HETATM    7  C10 UNL     1      22.399   2.845  52.177  1.00  0.00     0.041 A 
HETATM    8  C11 UNL     1      22.025   1.523  52.135  1.00  0.00     0.087 A 
HETATM    9  O2  UNL     1      23.064   0.732  52.190  1.00  0.00    -0.304 OA
BRANCH   8  10
HETATM   10  C12 UNL     1      20.720   0.908  52.044  1.00  0.00     0.010 A 
HETATM   11  C13 UNL     1      19.788   1.077  51.137  1.00  0.00     0.027 A 
HETATM   12  P1  UNL     1      18.369   0.133  51.419  1.00  0.00    -0.055 P 
HETATM   13  C14 UNL     1      17.886  -1.018  52.666  1.00  0.00     0.071 A 
HETATM   14  C16 UNL     1      19.793  -0.021  52.662  1.00  0.00    -0.017 A 
HETATM   15  C15 UNL     1      19.162  -0.895  53.418  1.00  0.00    -0.008 A 
ENDBRANCH   8  10
ENDBRANCH   2   5
BRANCH   1  16
HETATM   16  C6  UNL     1      27.361  -0.038  53.542  1.00  0.00     0.061 A 
HETATM   17  C1  UNL     1      28.296   0.937  53.868  1.00  0.00     0.052 A 
HETATM   18  C2  UNL     1      29.649   0.593  53.847  1.00  0.00     0.031 A 
HETATM   19  C3  UNL     1      30.011  -0.694  53.508  1.00  0.00     0.002 A 
HETATM   20  C4  UNL     1      29.081  -1.665  53.183  1.00  0.00     0.002 A 
HETATM   21  C5  UNL     1      27.745  -1.321  53.204  1.00  0.00     0.032 A 
BRANCH  17  22
HETATM   22  N1  UNL     1      27.930   2.280  54.223  1.00  0.00    -0.397 N 
HETATM   23  H1  UNL     1      27.012   2.120  54.725  1.00  0.00     0.156 HD
HETATM   24  H2  UNL     1      28.423   3.199  54.045  1.00  0.00     0.156 HD
ENDBRANCH  17  22
ENDBRANCH   1  16
TORSDOF 4
ENDMDL
MODEL 7
REMARK VINA RESULT:      -7.4      2.176      2.744
REMARK  4 active torsions:
REMARK  status: ('A' for Active; 'I' for Inactive)
REMARK    1  A    between atoms: N1_1  and  C1_2 
REMARK    2  A    between atoms: C6_7  and  N2_8 
REMARK       I    between atoms: N2_8  and  C7_9 
REMARK    3  A    between atoms: C7_9  and  C8_11 
REMARK    4  A    between atoms: C11_14  and  C12_15 
ROOT
HETATM    1  N2  UNL     1      25.645   0.791  52.042  1.00  0.00    -0.319 N 
HETATM    2  C7  UNL     1      24.530   1.576  52.433  1.00  0.00     0.280 C 
HETATM    3  O1  UNL     1      24.510   2.414  53.383  1.00  0.00    -0.265 OA
HETATM    4  H7  UNL     1      25.544   0.125  51.234  1.00  0.00     0.169 HD
ENDROOT
BRANCH   2   5
HETATM    5  C8  UNL     1      23.283   1.424  51.694  1.00  0.00     0.144 A 
HETATM    6  C9  UNL     1      23.069   1.792  50.359  1.00  0.00     0.046 A 
HETATM    7  C10 UNL     1      21.766   1.498  50.003  1.00  0.00     0.041 A 
HETATM    8  C11 UNL     1      21.258   0.960  51.161  1.00  0.00     0.087 A 
HETATM    9  O2  UNL     1      22.157   0.935  52.109  1.00  0.00    -0.304 OA
BRANCH   8  10
HETATM   10  C12 UNL     1      19.943   0.446  51.471  1.00  0.00     0.010 A 
HETATM   11  C13 UNL     1      18.817   0.609  50.820  1.00  0.00     0.027 A 
HETATM   12  P1  UNL     1      17.472  -0.192  51.552  1.00  0.00    -0.055 P 
HETATM   13  C14 UNL     1      17.271  -1.188  52.994  1.00  0.00     0.071 A 
HETATM   14  C16 UNL     1      19.162  -0.350  52.399  1.00  0.00    -0.017 A 
HETATM   15  C15 UNL     1      18.705  -1.103  53.378  1.00  0.00    -0.008 A 
ENDBRANCH   8  10
ENDBRANCH   2   5
BRANCH   1  16
HETATM   16  C6  UNL     1      26.815   1.034  52.851  1.00  0.00     0.061 A 
HETATM   17  C1  UNL     1      27.107   0.008  53.741  1.00  0.00     0.052 A 
HETATM   18  C2  UNL     1      28.221   0.145  54.570  1.00  0.00     0.031 A 
HETATM   19  C3  UNL     1      28.991   1.286  54.480  1.00  0.00     0.002 A 
HETATM   20  C4  UNL     1      28.700   2.308  53.594  1.00  0.00     0.002 A 
HETATM   21  C5  UNL     1      27.598   2.168  52.776  1.00  0.00     0.032 A 
BRANCH  17  22
HETATM   22  N1  UNL     1      26.311  -1.186  53.843  1.00  0.00    -0.397 N 
HETATM   23  H1  UNL     1      26.950  -1.901  53.393  1.00  0.00     0.156 HD
HETATM   24  H2  UNL     1      25.347  -1.338  54.250  1.00  0.00     0.156 HD
ENDBRANCH  17  22
ENDBRANCH   1  16
TORSDOF 4
ENDMDL
MODEL 8
REMARK VINA RESULT:      -7.3      5.603      7.040
REMARK  4 active torsions:
REMARK  status: ('A' for Active; 'I' for Inactive)
REMARK    1  A    between atoms: N1_1  and  C1_2 
REMARK    2  A    between atoms: C6_7  and  N2_8 
REMARK       I    between atoms: N2_8  and  C7_9 
REMARK    3  A    between atoms: C7_9  and  C8_11 
REMARK    4  A    between atoms: C11_14  and  C12_15 
ROOT
HETATM    1  N2  UNL     1      25.895   5.055  50.566  1.00  0.00    -0.319 N 
HETATM    2  C7  UNL     1      24.950   4.024  50.326  1.00  0.00     0.280 C 
HETATM    3  O1  UNL     1      23.982   4.082  49.511  1.00  0.00    -0.265 OA
HETATM    4  H7  UNL     1      26.661   4.893  51.270  1.00  0.00     0.169 HD
ENDROOT
BRANCH   2   5
HETATM    5  C8  UNL     1      25.081   2.778  51.070  1.00  0.00     0.144 A 
HETATM    6  C9  UNL     1      26.249   2.014  51.195  1.00  0.00     0.046 A 
HETATM    7  C10 UNL     1      25.991   0.901  51.972  1.00  0.00     0.041 A 
HETATM    8  C11 UNL     1      24.661   1.056  52.279  1.00  0.00     0.087 A 
HETATM    9  O2  UNL     1      24.172   2.144  51.743  1.00  0.00    -0.304 OA
BRANCH   8  10
HETATM   10  C12 UNL     1      23.765   0.237  53.064  1.00  0.00     0.010 A 
HETATM   11  C13 UNL     1      24.034  -0.524  54.098  1.00  0.00     0.027 A 
HETATM   12  P1  UNL     1      22.649  -1.334  54.738  1.00  0.00    -0.055 P 
HETATM   13  C14 UNL     1      20.938  -1.369  54.311  1.00  0.00     0.071 A 
HETATM   14  C16 UNL     1      22.394  -0.201  53.239  1.00  0.00    -0.017 A 
HETATM   15  C15 UNL     1      21.098  -0.430  53.170  1.00  0.00    -0.008 A 
ENDBRANCH   8  10
ENDBRANCH   2   5
BRANCH   1  16
HETATM   16  C6  UNL     1      25.656   6.233  49.770  1.00  0.00     0.061 A 
HETATM   17  C1  UNL     1      24.960   7.233  50.439  1.00  0.00     0.052 A 
HETATM   18  C2  UNL     1      24.677   8.417  49.755  1.00  0.00     0.031 A 
HETATM   19  C3  UNL     1      25.096   8.556  48.449  1.00  0.00     0.002 A 
HETATM   20  C4  UNL     1      25.789   7.561  47.783  1.00  0.00     0.002 A 
HETATM   21  C5  UNL     1      26.066   6.392  48.462  1.00  0.00     0.032 A 
BRANCH  17  22
HETATM   22  N1  UNL     1      24.519   7.099  51.801  1.00  0.00    -0.397 N 
HETATM   23  H1  UNL     1      23.923   6.226  51.742  1.00  0.00     0.156 HD
HETATM   24  H2  UNL     1      24.719   7.694  52.651  1.00  0.00     0.156 HD
ENDBRANCH  17  22
ENDBRANCH   1  16
TORSDOF 4
ENDMDL
MODEL 9
REMARK VINA RESULT:      -7.2      3.400      8.112
REMARK  4 active torsions:
REMARK  status: ('A' for Active; 'I' for Inactive)
REMARK    1  A    between atoms: N1_1  and  C1_2 
REMARK    2  A    between atoms: C6_7  and  N2_8 
REMARK       I    between atoms: N2_8  and  C7_9 
REMARK    3  A    between atoms: C7_9  and  C8_11 
REMARK    4  A    between atoms: C11_14  and  C12_15 
ROOT
HETATM    1  N2  UNL     1      21.010   0.863  52.786  1.00  0.00    -0.319 N 
HETATM    2  C7  UNL     1      21.820   0.665  51.639  1.00  0.00     0.280 C 
HETATM    3  O1  UNL     1      21.487   0.026  50.597  1.00  0.00    -0.265 OA
HETATM    4  H7  UNL     1      21.395   1.414  53.596  1.00  0.00     0.169 HD
ENDROOT
BRANCH   2   5
HETATM    5  C8  UNL     1      23.161   1.237  51.632  1.00  0.00     0.144 A 
HETATM    6  C9  UNL     1      23.561   2.386  50.936  1.00  0.00     0.046 A 
HETATM    7  C10 UNL     1      24.903   2.621  51.168  1.00  0.00     0.041 A 
HETATM    8  C11 UNL     1      25.244   1.585  52.004  1.00  0.00     0.087 A 
HETATM    9  O2  UNL     1      24.220   0.812  52.247  1.00  0.00    -0.304 OA
BRANCH   8  10
HETATM   10  C12 UNL     1      26.505   1.240  52.622  1.00  0.00     0.010 A 
HETATM   11  C13 UNL     1      27.370   2.019  53.226  1.00  0.00     0.027 A 
HETATM   12  P1  UNL     1      28.756   1.179  53.825  1.00  0.00    -0.055 P 
HETATM   13  C14 UNL     1      29.275  -0.507  53.806  1.00  0.00     0.071 A 
HETATM   14  C16 UNL     1      27.428   0.164  52.929  1.00  0.00    -0.017 A 
HETATM   15  C15 UNL     1      28.070  -0.977  53.074  1.00  0.00    -0.008 A 
ENDBRANCH   8  10
ENDBRANCH   2   5
BRANCH   1  16
HETATM   16  C6  UNL     1      19.710   0.249  52.668  1.00  0.00     0.061 A 
HETATM   17  C1  UNL     1      19.530  -0.851  53.498  1.00  0.00     0.052 A 
HETATM   18  C2  UNL     1      18.304  -1.517  53.461  1.00  0.00     0.031 A 
HETATM   19  C3  UNL     1      17.318  -1.066  52.608  1.00  0.00     0.002 A 
HETATM   20  C4  UNL     1      17.497   0.029  51.782  1.00  0.00     0.002 A 
HETATM   21  C5  UNL     1      18.710   0.685  51.822  1.00  0.00     0.032 A 
BRANCH  17  22
HETATM   22  N1  UNL     1      20.550  -1.330  54.390  1.00  0.00    -0.397 N 
HETATM   23  H1  UNL     1      19.997  -1.472  55.282  1.00  0.00     0.156 HD
HETATM   24  H2  UNL     1      21.581  -1.502  54.229  1.00  0.00     0.156 HD
ENDBRANCH  17  22
ENDBRANCH   1  16
TORSDOF 4
ENDMDL
