MODEL 1
REMARK VINA RESULT:      -8.1      0.000      0.000
REMARK  5 active torsions:
REMARK  status: ('A' for Active; 'I' for Inactive)
REMARK    1  A    between atoms: C2_2  and  C3_3 
REMARK    2  A    between atoms: C3_3  and  C4_4 
REMARK    3  A    between atoms: C7_7  and  O1_8 
REMARK    4  A    between atoms: C9_11  and  N2_12 
REMARK    5  A    between atoms: N2_12  and  C10_13 
ROOT
HETATM    1  C4  UNL     1      20.354   0.566  50.263  1.00  0.00     0.083 C 
HETATM    2  C5  UNL     1      20.535   0.912  51.750  1.00  0.00     0.030 C 
HETATM    3  C6  UNL     1      21.922   0.316  52.036  1.00  0.00     0.065 C 
HETATM    4  C7  UNL     1      22.505   0.735  53.336  1.00  0.00     0.168 C 
HETATM    5  C8  UNL     1      22.976  -0.488  54.089  1.00  0.00     0.230 C 
HETATM    6  N1  UNL     1      24.194  -0.835  53.384  1.00  0.00    -0.102 NA
HETATM    7  C9  UNL     1      24.622   0.214  52.780  1.00  0.00     0.701 C 
HETATM    8  N3  UNL     1      23.794   1.380  52.984  1.00  0.00    -0.180 N 
HETATM    9  C16 UNL     1      24.268   2.730  52.846  1.00  0.00     0.171 C 
HETATM   10  C17 UNL     1      23.251   3.783  52.706  1.00  0.00     0.188 C 
HETATM   11  O2  UNL     1      22.387   3.905  51.718  1.00  0.00    -0.389 OA
HETATM   12  C18 UNL     1      22.573   4.154  50.449  1.00  0.00     0.175 C 
HETATM   13  C19 UNL     1      23.198   3.155  49.549  1.00  0.00     0.104 C 
HETATM   14  C20 UNL     1      22.297   2.008  49.277  1.00  0.00     0.096 C 
HETATM   15  N4  UNL     1      21.731   1.992  48.116  1.00  0.00    -0.282 NA
HETATM   16  C21 UNL     1      21.954   3.013  47.148  1.00  0.00     0.179 C 
HETATM   17  N5  UNL     1      21.612   0.807  49.582  1.00  0.00    -0.374 N 
HETATM   18  H30 UNL     1      22.189  -0.037  49.236  1.00  0.00     0.161 HD
ENDROOT
BRANCH   7  19
HETATM   19  N2  UNL     1      25.835   0.101  52.006  1.00  0.00    -0.184 N 
HETATM   20  H16 UNL     1      25.754   0.171  50.949  1.00  0.00     0.184 HD
BRANCH  19  21
HETATM   21  C10 UNL     1      27.125  -0.104  52.621  1.00  0.00     0.126 A 
HETATM   22  C11 UNL     1      27.458  -1.455  52.577  1.00  0.00     0.149 A 
HETATM   23  F1  UNL     1      26.713  -2.461  52.044  1.00  0.00    -0.203 F 
HETATM   24  C12 UNL     1      28.661  -1.890  53.111  1.00  0.00     0.087 A 
HETATM   25  C13 UNL     1      29.540  -0.971  53.697  1.00  0.00     0.122 A 
HETATM   26  F2  UNL     1      30.732  -1.356  54.236  1.00  0.00    -0.206 F 
HETATM   27  C14 UNL     1      29.163   0.353  53.717  1.00  0.00     0.087 A 
HETATM   28  C15 UNL     1      27.986   0.802  53.195  1.00  0.00     0.149 A 
HETATM   29  F3  UNL     1      27.517   2.063  53.159  1.00  0.00    -0.203 F 
ENDBRANCH  19  21
ENDBRANCH   7  19
BRANCH   4  30
HETATM   30  O1  UNL     1      21.723   1.503  54.147  1.00  0.00    -0.368 OA
HETATM   31  H13 UNL     1      21.595   1.117  55.072  1.00  0.00     0.212 HD
ENDBRANCH   4  30
BRANCH   1  32
HETATM   32  C3  UNL     1      19.121   1.025  49.638  1.00  0.00     0.024 C 
BRANCH  32  33
HETATM   33  C2  UNL     1      18.389   2.203  50.140  1.00  0.00    -0.002 C 
HETATM   34  C1  UNL     1      18.899   3.548  49.691  1.00  0.00     0.005 C 
ENDBRANCH  32  33
ENDBRANCH   1  32
TORSDOF 5
ENDMDL
MODEL 2
REMARK VINA RESULT:      -7.9      3.537      6.908
REMARK  5 active torsions:
REMARK  status: ('A' for Active; 'I' for Inactive)
REMARK    1  A    between atoms: C2_2  and  C3_3 
REMARK    2  A    between atoms: C3_3  and  C4_4 
REMARK    3  A    between atoms: C7_7  and  O1_8 
REMARK    4  A    between atoms: C9_11  and  N2_12 
REMARK    5  A    between atoms: N2_12  and  C10_13 
ROOT
HETATM    1  C4  UNL     1      25.247   3.604  49.306  1.00  0.00     0.083 C 
HETATM    2  C5  UNL     1      24.351   4.730  48.766  1.00  0.00     0.030 C 
HETATM    3  C6  UNL     1      23.025   3.986  48.542  1.00  0.00     0.065 C 
HETATM    4  C7  UNL     1      21.867   4.878  48.279  1.00  0.00     0.168 C 
HETATM    5  C8  UNL     1      21.139   4.399  47.045  1.00  0.00     0.230 C 
HETATM    6  N1  UNL     1      20.432   3.232  47.535  1.00  0.00    -0.102 NA
HETATM    7  C9  UNL     1      20.311   3.341  48.810  1.00  0.00     0.701 C 
HETATM    8  N3  UNL     1      20.888   4.551  49.346  1.00  0.00    -0.180 N 
HETATM    9  C16 UNL     1      20.487   5.141  50.594  1.00  0.00     0.171 C 
HETATM   10  C17 UNL     1      21.400   6.129  51.189  1.00  0.00     0.188 C 
HETATM   11  O2  UNL     1      22.631   5.901  51.604  1.00  0.00    -0.389 OA
HETATM   12  C18 UNL     1      23.077   5.155  52.580  1.00  0.00     0.175 C 
HETATM   13  C19 UNL     1      23.010   3.675  52.514  1.00  0.00     0.104 C 
HETATM   14  C20 UNL     1      23.974   3.116  51.535  1.00  0.00     0.096 C 
HETATM   15  N4  UNL     1      25.034   2.567  52.030  1.00  0.00    -0.282 NA
HETATM   16  C21 UNL     1      25.269   2.501  53.433  1.00  0.00     0.179 C 
HETATM   17  N5  UNL     1      24.471   2.814  50.244  1.00  0.00    -0.374 N 
HETATM   18  H30 UNL     1      24.170   1.816  49.963  1.00  0.00     0.161 HD
ENDROOT
BRANCH   7  19
HETATM   19  N2  UNL     1      19.634   2.280  49.516  1.00  0.00    -0.184 N 
HETATM   20  H16 UNL     1      18.636   2.056  49.229  1.00  0.00     0.184 HD
BRANCH  19  21
HETATM   21  C10 UNL     1      20.267   1.536  50.579  1.00  0.00     0.126 A 
HETATM   22  C11 UNL     1      19.667   1.851  51.795  1.00  0.00     0.149 A 
HETATM   23  F1  UNL     1      18.640   2.720  51.996  1.00  0.00    -0.203 F 
HETATM   24  C12 UNL     1      20.113   1.252  52.964  1.00  0.00     0.087 A 
HETATM   25  C13 UNL     1      21.167   0.332  52.920  1.00  0.00     0.122 A 
HETATM   26  F2  UNL     1      21.638  -0.280  54.044  1.00  0.00    -0.206 F 
HETATM   27  C14 UNL     1      21.727   0.055  51.692  1.00  0.00     0.087 A 
HETATM   28  C15 UNL     1      21.302   0.632  50.532  1.00  0.00     0.149 A 
HETATM   29  F3  UNL     1      21.771   0.439  49.285  1.00  0.00    -0.203 F 
ENDBRANCH  19  21
ENDBRANCH   7  19
BRANCH   4  30
HETATM   30  O1  UNL     1      22.123   6.212  48.175  1.00  0.00    -0.368 OA
HETATM   31  H13 UNL     1      22.906   6.431  47.575  1.00  0.00     0.212 HD
ENDBRANCH   4  30
BRANCH   1  32
HETATM   32  C3  UNL     1      26.608   3.976  49.665  1.00  0.00     0.024 C 
BRANCH  32  33
HETATM   33  C2  UNL     1      27.544   4.542  48.676  1.00  0.00    -0.002 C 
HETATM   34  C1  UNL     1      27.543   6.044  48.538  1.00  0.00     0.005 C 
ENDBRANCH  32  33
ENDBRANCH   1  32
TORSDOF 5
ENDMDL
MODEL 3
REMARK VINA RESULT:      -7.7      3.742      5.900
REMARK  5 active torsions:
REMARK  status: ('A' for Active; 'I' for Inactive)
REMARK    1  A    between atoms: C2_2  and  C3_3 
REMARK    2  A    between atoms: C3_3  and  C4_4 
REMARK    3  A    between atoms: C7_7  and  O1_8 
REMARK    4  A    between atoms: C9_11  and  N2_12 
REMARK    5  A    between atoms: N2_12  and  C10_13 
ROOT
HETATM    1  C4  UNL     1      22.284   0.370  51.628  1.00  0.00     0.083 C 
HETATM    2  C5  UNL     1      23.158   1.161  52.614  1.00  0.00     0.030 C 
HETATM    3  C6  UNL     1      24.216   1.760  51.673  1.00  0.00     0.065 C 
HETATM    4  C7  UNL     1      25.054   2.814  52.298  1.00  0.00     0.168 C 
HETATM    5  C8  UNL     1      26.512   2.507  52.044  1.00  0.00     0.230 C 
HETATM    6  N1  UNL     1      26.668   2.876  50.650  1.00  0.00    -0.102 NA
HETATM    7  C9  UNL     1      25.735   3.705  50.347  1.00  0.00     0.701 C 
HETATM    8  N3  UNL     1      24.852   4.013  51.447  1.00  0.00    -0.180 N 
HETATM    9  C16 UNL     1      24.068   5.216  51.530  1.00  0.00     0.171 C 
HETATM   10  C17 UNL     1      22.952   5.220  52.487  1.00  0.00     0.188 C 
HETATM   11  O2  UNL     1      21.890   4.440  52.449  1.00  0.00    -0.389 OA
HETATM   12  C18 UNL     1      20.918   4.365  51.579  1.00  0.00     0.175 C 
HETATM   13  C19 UNL     1      21.144   3.833  50.213  1.00  0.00     0.104 C 
HETATM   14  C20 UNL     1      21.366   2.367  50.215  1.00  0.00     0.096 C 
HETATM   15  N4  UNL     1      20.375   1.640  49.816  1.00  0.00    -0.282 NA
HETATM   16  C21 UNL     1      19.137   2.208  49.398  1.00  0.00     0.179 C 
HETATM   17  N5  UNL     1      22.098   1.175  50.435  1.00  0.00    -0.374 N 
HETATM   18  H30 UNL     1      22.593   0.879  49.522  1.00  0.00     0.161 HD
ENDROOT
BRANCH   7  19
HETATM   19  N2  UNL     1      25.693   4.210  48.995  1.00  0.00    -0.184 N 
HETATM   20  H16 UNL     1      25.150   3.647  48.276  1.00  0.00     0.184 HD
BRANCH  19  21
HETATM   21  C10 UNL     1      26.358   5.431  48.608  1.00  0.00     0.126 A 
HETATM   22  C11 UNL     1      25.417   6.441  48.425  1.00  0.00     0.149 A 
HETATM   23  F1  UNL     1      24.069   6.336  48.578  1.00  0.00    -0.203 F 
HETATM   24  C12 UNL     1      25.828   7.711  48.049  1.00  0.00     0.087 A 
HETATM   25  C13 UNL     1      27.187   7.977  47.852  1.00  0.00     0.122 A 
HETATM   26  F2  UNL     1      27.635   9.210  47.480  1.00  0.00    -0.206 F 
HETATM   27  C14 UNL     1      28.078   6.944  48.045  1.00  0.00     0.087 A 
HETATM   28  C15 UNL     1      27.695   5.689  48.416  1.00  0.00     0.149 A 
HETATM   29  F3  UNL     1      28.471   4.611  48.632  1.00  0.00    -0.203 F 
ENDBRANCH  19  21
ENDBRANCH   7  19
BRANCH   4  30
HETATM   30  O1  UNL     1      24.859   3.057  53.625  1.00  0.00    -0.368 OA
HETATM   31  H13 UNL     1      25.035   2.256  54.215  1.00  0.00     0.212 HD
ENDBRANCH   4  30
BRANCH   1  32
HETATM   32  C3  UNL     1      21.132  -0.319  52.193  1.00  0.00     0.024 C 
BRANCH  32  33
HETATM   33  C2  UNL     1      20.887  -0.356  53.647  1.00  0.00    -0.002 C 
HETATM   34  C1  UNL     1      21.343  -1.599  54.369  1.00  0.00     0.005 C 
ENDBRANCH  32  33
ENDBRANCH   1  32
TORSDOF 5
ENDMDL
MODEL 4
REMARK VINA RESULT:      -7.7      2.994      4.880
REMARK  5 active torsions:
REMARK  status: ('A' for Active; 'I' for Inactive)
REMARK    1  A    between atoms: C2_2  and  C3_3 
REMARK    2  A    between atoms: C3_3  and  C4_4 
REMARK    3  A    between atoms: C7_7  and  O1_8 
REMARK    4  A    between atoms: C9_11  and  N2_12 
REMARK    5  A    between atoms: N2_12  and  C10_13 
ROOT
HETATM    1  C4  UNL     1      19.527   3.975  51.526  1.00  0.00     0.083 C 
HETATM    2  C5  UNL     1      19.920   4.571  50.165  1.00  0.00     0.030 C 
HETATM    3  C6  UNL     1      21.386   4.958  50.411  1.00  0.00     0.065 C 
HETATM    4  C7  UNL     1      22.134   5.315  49.179  1.00  0.00     0.168 C 
HETATM    5  C8  UNL     1      22.840   6.635  49.388  1.00  0.00     0.230 C 
HETATM    6  N1  UNL     1      23.952   6.260  50.239  1.00  0.00    -0.102 NA
HETATM    7  C9  UNL     1      24.169   5.003  50.087  1.00  0.00     0.701 C 
HETATM    8  N3  UNL     1      23.278   4.370  49.144  1.00  0.00    -0.180 N 
HETATM    9  C16 UNL     1      23.590   3.153  48.444  1.00  0.00     0.171 C 
HETATM   10  C17 UNL     1      22.467   2.433  47.824  1.00  0.00     0.188 C 
HETATM   11  O2  UNL     1      21.441   1.897  48.457  1.00  0.00    -0.389 OA
HETATM   12  C18 UNL     1      21.388   0.903  49.304  1.00  0.00     0.175 C 
HETATM   13  C19 UNL     1      21.948   1.023  50.672  1.00  0.00     0.104 C 
HETATM   14  C20 UNL     1      21.129   1.911  51.534  1.00  0.00     0.096 C 
HETATM   15  N4  UNL     1      20.382   1.323  52.409  1.00  0.00    -0.282 NA
HETATM   16  C21 UNL     1      20.341  -0.095  52.542  1.00  0.00     0.179 C 
HETATM   17  N5  UNL     1      20.625   3.151  51.996  1.00  0.00    -0.374 N 
HETATM   18  H30 UNL     1      21.215   3.493  52.832  1.00  0.00     0.161 HD
ENDROOT
BRANCH   7  19
HETATM   19  N2  UNL     1      25.242   4.406  50.847  1.00  0.00    -0.184 N 
HETATM   20  H16 UNL     1      26.204   4.850  50.773  1.00  0.00     0.184 HD
BRANCH  19  21
HETATM   21  C10 UNL     1      25.041   3.247  51.684  1.00  0.00     0.126 A 
HETATM   22  C11 UNL     1      25.843   2.201  51.239  1.00  0.00     0.149 A 
HETATM   23  F1  UNL     1      26.700   2.224  50.182  1.00  0.00    -0.203 F 
HETATM   24  C12 UNL     1      25.817   0.980  51.895  1.00  0.00     0.087 A 
HETATM   25  C13 UNL     1      24.984   0.800  53.004  1.00  0.00     0.122 A 
HETATM   26  F2  UNL     1      24.925  -0.384  53.679  1.00  0.00    -0.206 F 
HETATM   27  C14 UNL     1      24.208   1.865  53.405  1.00  0.00     0.087 A 
HETATM   28  C15 UNL     1      24.221   3.075  52.775  1.00  0.00     0.149 A 
HETATM   29  F3  UNL     1      23.512   4.178  53.075  1.00  0.00    -0.203 F 
ENDBRANCH  19  21
ENDBRANCH   7  19
BRANCH   4  30
HETATM   30  O1  UNL     1      21.428   5.349  48.014  1.00  0.00    -0.368 OA
HETATM   31  H13 UNL     1      20.459   5.084  48.117  1.00  0.00     0.212 HD
ENDBRANCH   4  30
BRANCH   1  32
HETATM   32  C3  UNL     1      18.169   3.461  51.640  1.00  0.00     0.024 C 
BRANCH  32  33
HETATM   33  C2  UNL     1      17.424   2.972  50.465  1.00  0.00    -0.002 C 
HETATM   34  C1  UNL     1      17.696   1.550  50.045  1.00  0.00     0.005 C 
ENDBRANCH  32  33
ENDBRANCH   1  32
TORSDOF 5
ENDMDL
MODEL 5
REMARK VINA RESULT:      -7.5      1.624      2.205
REMARK  5 active torsions:
REMARK  status: ('A' for Active; 'I' for Inactive)
REMARK    1  A    between atoms: C2_2  and  C3_3 
REMARK    2  A    between atoms: C3_3  and  C4_4 
REMARK    3  A    between atoms: C7_7  and  O1_8 
REMARK    4  A    between atoms: C9_11  and  N2_12 
REMARK    5  A    between atoms: N2_12  and  C10_13 
ROOT
HETATM    1  C4  UNL     1      19.777   1.804  49.255  1.00  0.00     0.083 C 
HETATM    2  C5  UNL     1      19.744   2.143  50.754  1.00  0.00     0.030 C 
HETATM    3  C6  UNL     1      21.013   1.437  51.256  1.00  0.00     0.065 C 
HETATM    4  C7  UNL     1      21.411   1.814  52.636  1.00  0.00     0.168 C 
HETATM    5  C8  UNL     1      21.653   0.561  53.445  1.00  0.00     0.230 C 
HETATM    6  N1  UNL     1      22.936   0.111  52.943  1.00  0.00    -0.102 NA
HETATM    7  C9  UNL     1      23.541   1.118  52.423  1.00  0.00     0.701 C 
HETATM    8  N3  UNL     1      22.789   2.348  52.500  1.00  0.00    -0.180 N 
HETATM    9  C16 UNL     1      23.389   3.654  52.450  1.00  0.00     0.171 C 
HETATM   10  C17 UNL     1      22.497   4.787  52.156  1.00  0.00     0.188 C 
HETATM   11  O2  UNL     1      21.816   4.973  51.043  1.00  0.00    -0.389 OA
HETATM   12  C18 UNL     1      22.224   5.199  49.821  1.00  0.00     0.175 C 
HETATM   13  C19 UNL     1      22.901   4.146  49.027  1.00  0.00     0.104 C 
HETATM   14  C20 UNL     1      21.965   3.075  48.605  1.00  0.00     0.096 C 
HETATM   15  N4  UNL     1      21.594   3.099  47.368  1.00  0.00    -0.282 NA
HETATM   16  C21 UNL     1      22.053   4.092  46.456  1.00  0.00     0.179 C 
HETATM   17  N5  UNL     1      21.144   1.936  48.787  1.00  0.00    -0.374 N 
HETATM   18  H30 UNL     1      21.698   1.045  48.533  1.00  0.00     0.161 HD
ENDROOT
BRANCH   7  19
HETATM   19  N2  UNL     1      24.849   0.900  51.854  1.00  0.00    -0.184 N 
HETATM   20  H16 UNL     1      24.907   0.717  50.809  1.00  0.00     0.184 HD
BRANCH  19  21
HETATM   21  C10 UNL     1      26.050   0.921  52.654  1.00  0.00     0.126 A 
HETATM   22  C11 UNL     1      26.834   2.015  52.295  1.00  0.00     0.149 A 
HETATM   23  F1  UNL     1      26.549   2.944  51.344  1.00  0.00    -0.203 F 
HETATM   24  C12 UNL     1      28.044   2.240  52.935  1.00  0.00     0.087 A 
HETATM   25  C13 UNL     1      28.476   1.368  53.940  1.00  0.00     0.122 A 
HETATM   26  F2  UNL     1      29.659   1.550  54.594  1.00  0.00    -0.206 F 
HETATM   27  C14 UNL     1      27.665   0.301  54.257  1.00  0.00     0.087 A 
HETATM   28  C15 UNL     1      26.472   0.062  53.642  1.00  0.00     0.149 A 
HETATM   29  F3  UNL     1      25.603  -0.940  53.867  1.00  0.00    -0.203 F 
ENDBRANCH  19  21
ENDBRANCH   7  19
BRANCH   4  30
HETATM   30  O1  UNL     1      20.575   2.648  53.316  1.00  0.00    -0.368 OA
HETATM   31  H13 UNL     1      19.598   2.411  53.221  1.00  0.00     0.212 HD
ENDBRANCH   4  30
BRANCH   1  32
HETATM   32  C3  UNL     1      18.703   2.359  48.443  1.00  0.00     0.024 C 
BRANCH  32  33
HETATM   33  C2  UNL     1      18.012   3.607  48.818  1.00  0.00    -0.002 C 
HETATM   34  C1  UNL     1      18.608   4.886  48.288  1.00  0.00     0.005 C 
ENDBRANCH  32  33
ENDBRANCH   1  32
TORSDOF 5
ENDMDL
MODEL 6
REMARK VINA RESULT:      -7.4      2.184      3.526
REMARK  5 active torsions:
REMARK  status: ('A' for Active; 'I' for Inactive)
REMARK    1  A    between atoms: C2_2  and  C3_3 
REMARK    2  A    between atoms: C3_3  and  C4_4 
REMARK    3  A    between atoms: C7_7  and  O1_8 
REMARK    4  A    between atoms: C9_11  and  N2_12 
REMARK    5  A    between atoms: N2_12  and  C10_13 
ROOT
HETATM    1  C4  UNL     1      22.217   2.700  47.522  1.00  0.00     0.083 C 
HETATM    2  C5  UNL     1      20.930   2.242  48.227  1.00  0.00     0.030 C 
HETATM    3  C6  UNL     1      21.492   1.595  49.502  1.00  0.00     0.065 C 
HETATM    4  C7  UNL     1      20.466   1.298  50.534  1.00  0.00     0.168 C 
HETATM    5  C8  UNL     1      20.620  -0.134  50.993  1.00  0.00     0.230 C 
HETATM    6  N1  UNL     1      21.794  -0.063  51.840  1.00  0.00    -0.102 NA
HETATM    7  C9  UNL     1      21.934   1.152  52.234  1.00  0.00     0.701 C 
HETATM    8  N3  UNL     1      20.912   2.044  51.737  1.00  0.00    -0.180 N 
HETATM    9  C16 UNL     1      20.552   3.280  52.377  1.00  0.00     0.171 C 
HETATM   10  C17 UNL     1      19.790   4.249  51.575  1.00  0.00     0.188 C 
HETATM   11  O2  UNL     1      20.206   4.849  50.477  1.00  0.00    -0.389 OA
HETATM   12  C18 UNL     1      21.170   5.712  50.290  1.00  0.00     0.175 C 
HETATM   13  C19 UNL     1      22.594   5.316  50.406  1.00  0.00     0.104 C 
HETATM   14  C20 UNL     1      23.028   4.460  49.275  1.00  0.00     0.096 C 
HETATM   15  N4  UNL     1      23.758   5.032  48.376  1.00  0.00    -0.282 NA
HETATM   16  C21 UNL     1      24.126   6.406  48.458  1.00  0.00     0.179 C 
HETATM   17  N5  UNL     1      23.107   3.264  48.520  1.00  0.00    -0.374 N 
HETATM   18  H30 UNL     1      23.997   2.719  48.795  1.00  0.00     0.161 HD
ENDROOT
BRANCH   7  19
HETATM   19  N2  UNL     1      23.050   1.458  53.096  1.00  0.00    -0.184 N 
HETATM   20  H16 UNL     1      22.865   2.077  53.940  1.00  0.00     0.184 HD
BRANCH  19  21
HETATM   21  C10 UNL     1      24.379   0.957  52.843  1.00  0.00     0.126 A 
HETATM   22  C11 UNL     1      24.654  -0.103  53.703  1.00  0.00     0.149 A 
HETATM   23  F1  UNL     1      23.825  -0.619  54.650  1.00  0.00    -0.203 F 
HETATM   24  C12 UNL     1      25.881  -0.746  53.640  1.00  0.00     0.087 A 
HETATM   25  C13 UNL     1      26.843  -0.329  52.714  1.00  0.00     0.122 A 
HETATM   26  F2  UNL     1      28.063  -0.931  52.619  1.00  0.00    -0.206 F 
HETATM   27  C14 UNL     1      26.523   0.725  51.886  1.00  0.00     0.087 A 
HETATM   28  C15 UNL     1      25.322   1.370  51.931  1.00  0.00     0.149 A 
HETATM   29  F3  UNL     1      24.903   2.403  51.177  1.00  0.00    -0.203 F 
ENDBRANCH  19  21
ENDBRANCH   7  19
BRANCH   4  30
HETATM   30  O1  UNL     1      19.167   1.539  50.203  1.00  0.00    -0.368 OA
HETATM   31  H13 UNL     1      18.803   2.402  50.583  1.00  0.00     0.212 HD
ENDBRANCH   4  30
BRANCH   1  32
HETATM   32  C3  UNL     1      22.048   3.403  46.258  1.00  0.00     0.024 C 
BRANCH  32  33
HETATM   33  C2  UNL     1      20.819   4.156  45.948  1.00  0.00    -0.002 C 
HETATM   34  C1  UNL     1      20.736   5.557  46.499  1.00  0.00     0.005 C 
ENDBRANCH  32  33
ENDBRANCH   1  32
TORSDOF 5
ENDMDL
MODEL 7
REMARK VINA RESULT:      -7.4      9.941     11.764
REMARK  5 active torsions:
REMARK  status: ('A' for Active; 'I' for Inactive)
REMARK    1  A    between atoms: C2_2  and  C3_3 
REMARK    2  A    between atoms: C3_3  and  C4_4 
REMARK    3  A    between atoms: C7_7  and  O1_8 
REMARK    4  A    between atoms: C9_11  and  N2_12 
REMARK    5  A    between atoms: N2_12  and  C10_13 
ROOT
HETATM    1  C4  UNL     1      29.728  11.866  48.968  1.00  0.00     0.083 C 
HETATM    2  C5  UNL     1      30.461  11.746  47.623  1.00  0.00     0.030 C 
HETATM    3  C6  UNL     1      31.450  10.606  47.914  1.00  0.00     0.065 C 
HETATM    4  C7  UNL     1      32.121  10.064  46.706  1.00  0.00     0.168 C 
HETATM    5  C8  UNL     1      33.613  10.016  46.943  1.00  0.00     0.230 C 
HETATM    6  N1  UNL     1      33.750   8.872  47.824  1.00  0.00    -0.102 NA
HETATM    7  C9  UNL     1      32.720   8.120  47.670  1.00  0.00     0.701 C 
HETATM    8  N3  UNL     1      31.777   8.620  46.697  1.00  0.00    -0.180 N 
HETATM    9  C16 UNL     1      30.835   7.788  45.998  1.00  0.00     0.171 C 
HETATM   10  C17 UNL     1      29.706   8.465  45.343  1.00  0.00     0.188 C 
HETATM   11  O2  UNL     1      28.761   9.163  45.942  1.00  0.00    -0.389 OA
HETATM   12  C18 UNL     1      27.830   8.793  46.781  1.00  0.00     0.175 C 
HETATM   13  C19 UNL     1      28.159   8.374  48.165  1.00  0.00     0.104 C 
HETATM   14  C20 UNL     1      28.580   9.520  49.009  1.00  0.00     0.096 C 
HETATM   15  N4  UNL     1      27.707   9.951  49.858  1.00  0.00    -0.282 NA
HETATM   16  C21 UNL     1      26.414   9.367  49.981  1.00  0.00     0.179 C 
HETATM   17  N5  UNL     1      29.463  10.529  49.464  1.00  0.00    -0.374 N 
HETATM   18  H30 UNL     1      30.014  10.169  50.319  1.00  0.00     0.161 HD
ENDROOT
BRANCH   7  19
HETATM   19  N2  UNL     1      32.643   6.913  48.456  1.00  0.00    -0.184 N 
HETATM   20  H16 UNL     1      32.250   6.990  49.441  1.00  0.00     0.184 HD
BRANCH  19  21
HETATM   21  C10 UNL     1      33.077   5.633  47.948  1.00  0.00     0.126 A 
HETATM   22  C11 UNL     1      31.971   4.825  47.701  1.00  0.00     0.149 A 
HETATM   23  F1  UNL     1      30.664   5.151  47.894  1.00  0.00    -0.203 F 
HETATM   24  C12 UNL     1      32.147   3.542  47.205  1.00  0.00     0.087 A 
HETATM   25  C13 UNL     1      33.436   3.060  46.954  1.00  0.00     0.122 A 
HETATM   26  F2  UNL     1      33.655   1.804  46.468  1.00  0.00    -0.206 F 
HETATM   27  C14 UNL     1      34.497   3.898  47.216  1.00  0.00     0.087 A 
HETATM   28  C15 UNL     1      34.346   5.163  47.702  1.00  0.00     0.149 A 
HETATM   29  F3  UNL     1      35.302   6.064  47.993  1.00  0.00    -0.203 F 
ENDBRANCH  19  21
ENDBRANCH   7  19
BRANCH   4  30
HETATM   30  O1  UNL     1      31.863  10.685  45.521  1.00  0.00    -0.368 OA
HETATM   31  H13 UNL     1      32.671  10.770  44.921  1.00  0.00     0.212 HD
ENDBRANCH   4  30
BRANCH   1  32
HETATM   32  C3  UNL     1      28.667  12.862  49.040  1.00  0.00     0.024 C 
BRANCH  32  33
HETATM   33  C2  UNL     1      27.798  13.153  47.885  1.00  0.00    -0.002 C 
HETATM   34  C1  UNL     1      26.349  12.757  48.022  1.00  0.00     0.005 C 
ENDBRANCH  32  33
ENDBRANCH   1  32
TORSDOF 5
ENDMDL
MODEL 8
REMARK VINA RESULT:      -7.4      4.395      5.959
REMARK  5 active torsions:
REMARK  status: ('A' for Active; 'I' for Inactive)
REMARK    1  A    between atoms: C2_2  and  C3_3 
REMARK    2  A    between atoms: C3_3  and  C4_4 
REMARK    3  A    between atoms: C7_7  and  O1_8 
REMARK    4  A    between atoms: C9_11  and  N2_12 
REMARK    5  A    between atoms: N2_12  and  C10_13 
ROOT
HETATM    1  C4  UNL     1      22.126   1.623  49.231  1.00  0.00     0.083 C 
HETATM    2  C5  UNL     1      22.826   1.965  50.556  1.00  0.00     0.030 C 
HETATM    3  C6  UNL     1      24.119   2.629  50.056  1.00  0.00     0.065 C 
HETATM    4  C7  UNL     1      24.891   3.325  51.117  1.00  0.00     0.168 C 
HETATM    5  C8  UNL     1      26.334   2.878  51.059  1.00  0.00     0.230 C 
HETATM    6  N1  UNL     1      26.831   3.589  49.897  1.00  0.00    -0.102 NA
HETATM    7  C9  UNL     1      26.072   4.605  49.691  1.00  0.00     0.701 C 
HETATM    8  N3  UNL     1      24.997   4.729  50.647  1.00  0.00    -0.180 N 
HETATM    9  C16 UNL     1      24.331   5.968  50.943  1.00  0.00     0.171 C 
HETATM   10  C17 UNL     1      23.034   5.881  51.631  1.00  0.00     0.188 C 
HETATM   11  O2  UNL     1      21.939   5.317  51.160  1.00  0.00    -0.389 OA
HETATM   12  C18 UNL     1      21.185   5.638  50.142  1.00  0.00     0.175 C 
HETATM   13  C19 UNL     1      21.661   5.477  48.747  1.00  0.00     0.104 C 
HETATM   14  C20 UNL     1      21.739   4.051  48.345  1.00  0.00     0.096 C 
HETATM   15  N4  UNL     1      20.800   3.627  47.567  1.00  0.00    -0.282 NA
HETATM   16  C21 UNL     1      19.746   4.473  47.117  1.00  0.00     0.179 C 
HETATM   17  N5  UNL     1      22.289   2.746  48.326  1.00  0.00    -0.374 N 
HETATM   18  H30 UNL     1      22.945   2.642  47.476  1.00  0.00     0.161 HD
ENDROOT
BRANCH   7  19
HETATM   19  N2  UNL     1      26.382   5.464  48.574  1.00  0.00    -0.184 N 
HETATM   20  H16 UNL     1      25.711   5.462  47.750  1.00  0.00     0.184 HD
BRANCH  19  21
HETATM   21  C10 UNL     1      27.556   6.304  48.550  1.00  0.00     0.126 A 
HETATM   22  C11 UNL     1      27.208   7.608  48.889  1.00  0.00     0.149 A 
HETATM   23  F1  UNL     1      25.965   8.065  49.203  1.00  0.00    -0.203 F 
HETATM   24  C12 UNL     1      28.180   8.596  48.933  1.00  0.00     0.087 A 
HETATM   25  C13 UNL     1      29.511   8.282  48.634  1.00  0.00     0.122 A 
HETATM   26  F2  UNL     1      30.498   9.222  48.663  1.00  0.00    -0.206 F 
HETATM   27  C14 UNL     1      29.803   6.977  48.304  1.00  0.00     0.087 A 
HETATM   28  C15 UNL     1      28.863   5.991  48.257  1.00  0.00     0.149 A 
HETATM   29  F3  UNL     1      29.032   4.692  47.949  1.00  0.00    -0.203 F 
ENDBRANCH  19  21
ENDBRANCH   7  19
BRANCH   4  30
HETATM   30  O1  UNL     1      24.426   3.218  52.393  1.00  0.00    -0.368 OA
HETATM   31  H13 UNL     1      23.423   3.313  52.470  1.00  0.00     0.212 HD
ENDBRANCH   4  30
BRANCH   1  32
HETATM   32  C3  UNL     1      20.817   0.993  49.335  1.00  0.00     0.024 C 
BRANCH  32  33
HETATM   33  C2  UNL     1      19.962   1.173  50.523  1.00  0.00    -0.002 C 
HETATM   34  C1  UNL     1      19.134   2.432  50.566  1.00  0.00     0.005 C 
ENDBRANCH  32  33
ENDBRANCH   1  32
TORSDOF 5
ENDMDL
MODEL 9
REMARK VINA RESULT:      -7.4      3.579      7.359
REMARK  5 active torsions:
REMARK  status: ('A' for Active; 'I' for Inactive)
REMARK    1  A    between atoms: C2_2  and  C3_3 
REMARK    2  A    between atoms: C3_3  and  C4_4 
REMARK    3  A    between atoms: C7_7  and  O1_8 
REMARK    4  A    between atoms: C9_11  and  N2_12 
REMARK    5  A    between atoms: N2_12  and  C10_13 
ROOT
HETATM    1  C4  UNL     1      25.660   4.324  49.096  1.00  0.00     0.083 C 
HETATM    2  C5  UNL     1      24.379   5.169  49.187  1.00  0.00     0.030 C 
HETATM    3  C6  UNL     1      23.297   4.117  48.898  1.00  0.00     0.065 C 
HETATM    4  C7  UNL     1      21.915   4.575  49.189  1.00  0.00     0.168 C 
HETATM    5  C8  UNL     1      21.034   4.291  47.994  1.00  0.00     0.230 C 
HETATM    6  N1  UNL     1      20.834   2.858  48.091  1.00  0.00    -0.102 NA
HETATM    7  C9  UNL     1      21.043   2.503  49.308  1.00  0.00     0.701 C 
HETATM    8  N3  UNL     1      21.394   3.600  50.179  1.00  0.00    -0.180 N 
HETATM    9  C16 UNL     1      21.207   3.578  51.605  1.00  0.00     0.171 C 
HETATM   10  C17 UNL     1      21.945   4.579  52.390  1.00  0.00     0.188 C 
HETATM   11  O2  UNL     1      23.256   4.682  52.486  1.00  0.00    -0.389 OA
HETATM   12  C18 UNL     1      24.138   3.872  53.010  1.00  0.00     0.175 C 
HETATM   13  C19 UNL     1      24.460   2.569  52.379  1.00  0.00     0.104 C 
HETATM   14  C20 UNL     1      25.232   2.732  51.123  1.00  0.00     0.096 C 
HETATM   15  N4  UNL     1      26.494   2.466  51.193  1.00  0.00    -0.282 NA
HETATM   16  C21 UNL     1      27.115   2.043  52.403  1.00  0.00     0.179 C 
HETATM   17  N5  UNL     1      25.417   3.055  49.757  1.00  0.00    -0.374 N 
HETATM   18  H30 UNL     1      25.333   2.161  49.158  1.00  0.00     0.161 HD
ENDROOT
BRANCH   7  19
HETATM   19  N2  UNL     1      20.901   1.106  49.638  1.00  0.00    -0.184 N 
HETATM   20  H16 UNL     1      21.568   0.420  49.175  1.00  0.00     0.184 HD
BRANCH  19  21
HETATM   21  C10 UNL     1      19.896   0.630  50.558  1.00  0.00     0.126 A 
HETATM   22  C11 UNL     1      20.509   0.101  51.691  1.00  0.00     0.149 A 
HETATM   23  F1  UNL     1      21.845   0.025  51.934  1.00  0.00    -0.203 F 
HETATM   24  C12 UNL     1      19.736  -0.419  52.718  1.00  0.00     0.087 A 
HETATM   25  C13 UNL     1      18.340  -0.413  52.615  1.00  0.00     0.122 A 
HETATM   26  F2  UNL     1      17.542  -0.915  53.601  1.00  0.00    -0.206 F 
HETATM   27  C14 UNL     1      17.783   0.121  51.474  1.00  0.00     0.087 A 
HETATM   28  C15 UNL     1      18.525   0.638  50.454  1.00  0.00     0.149 A 
HETATM   29  F3  UNL     1      18.092   1.181  49.301  1.00  0.00    -0.203 F 
ENDBRANCH  19  21
ENDBRANCH   7  19
BRANCH   4  30
HETATM   30  O1  UNL     1      21.760   5.872  49.578  1.00  0.00    -0.368 OA
HETATM   31  H13 UNL     1      22.175   6.079  50.476  1.00  0.00     0.212 HD
ENDBRANCH   4  30
BRANCH   1  32
HETATM   32  C3  UNL     1      26.914   5.018  49.357  1.00  0.00     0.024 C 
BRANCH  32  33
HETATM   33  C2  UNL     1      27.567   5.851  48.330  1.00  0.00    -0.002 C 
HETATM   34  C1  UNL     1      29.069   5.747  48.242  1.00  0.00     0.005 C 
ENDBRANCH  32  33
ENDBRANCH   1  32
TORSDOF 5
ENDMDL
