MODEL 1
REMARK VINA RESULT:      -7.5      0.000      0.000
REMARK  5 active torsions:
REMARK  status: ('A' for Active; 'I' for Inactive)
REMARK    1  A    between atoms: C5_6  and  C6_7 
REMARK    2  A    between atoms: C6_7  and  C7_8 
REMARK    3  A    between atoms: C10_11  and  C11_12 
REMARK    4  A    between atoms: C11_12  and  N1_13 
REMARK    5  A    between atoms: C12_14  and  N2_15 
ROOT
HETATM    1  C7  UNL     1      24.949   0.619  52.254  1.00  0.00    -0.032 A 
HETATM    2  C8  UNL     1      24.716  -0.486  53.084  1.00  0.00     0.010 A 
HETATM    3  C9  UNL     1      23.559  -0.637  53.816  1.00  0.00     0.009 A 
HETATM    4  C10 UNL     1      22.575   0.310  53.757  1.00  0.00    -0.037 A 
HETATM    5  C14 UNL     1      22.758   1.424  52.949  1.00  0.00     0.033 A 
HETATM    6  C15 UNL     1      23.926   1.532  52.237  1.00  0.00     0.041 A 
HETATM    7 CL2  UNL     1      24.171   2.921  51.206  1.00  0.00    -0.084 Cl
ENDROOT
BRANCH   1   8
HETATM    8  C6  UNL     1      26.236   0.604  51.569  1.00  0.00     0.078 C 
BRANCH   8   9
HETATM    9  C5  UNL     1      27.353   0.724  52.534  1.00  0.00    -0.051 A 
HETATM   10  C4  UNL     1      27.579   2.043  52.948  1.00  0.00     0.007 A 
HETATM   11  C3  UNL     1      28.565   2.430  53.858  1.00  0.00     0.004 A 
HETATM   12  C2  UNL     1      29.344   1.377  54.349  1.00  0.00     0.042 A 
HETATM   13  C1  UNL     1      29.173   0.059  53.982  1.00  0.00     0.116 A 
HETATM   14  F1  UNL     1      29.929  -0.948  54.459  1.00  0.00    -0.206 F 
HETATM   15  C16 UNL     1      28.176  -0.228  53.080  1.00  0.00     0.049 A 
ENDBRANCH   8   9
ENDBRANCH   1   8
BRANCH   4  16
HETATM   16  C11 UNL     1      21.287   0.227  54.519  1.00  0.00     0.188 C 
BRANCH  16  17
HETATM   17  N1  UNL     1      20.176   0.358  53.599  1.00  0.00    -0.278 NA
HETATM   18  C12 UNL     1      19.427  -0.698  53.436  1.00  0.00     0.227 C 
BRANCH  18  19
HETATM   19  N2  UNL     1      19.033  -2.062  53.673  1.00  0.00    -0.243 NA
HETATM   20  C13 UNL     1      17.756  -2.307  53.503  1.00  0.00     0.202 C 
HETATM   21 CL1  UNL     1      17.026  -3.886  53.730  1.00  0.00    -0.076 Cl
ENDBRANCH  18  19
ENDBRANCH  16  17
ENDBRANCH   4  16
TORSDOF 5
ENDMDL
MODEL 2
REMARK VINA RESULT:      -7.5      2.382      3.071
REMARK  5 active torsions:
REMARK  status: ('A' for Active; 'I' for Inactive)
REMARK    1  A    between atoms: C5_6  and  C6_7 
REMARK    2  A    between atoms: C6_7  and  C7_8 
REMARK    3  A    between atoms: C10_11  and  C11_12 
REMARK    4  A    between atoms: C11_12  and  N1_13 
REMARK    5  A    between atoms: C12_14  and  N2_15 
ROOT
HETATM    1  C7  UNL     1      26.088   2.281  52.371  1.00  0.00    -0.032 A 
HETATM    2  C8  UNL     1      25.114   2.101  53.363  1.00  0.00     0.010 A 
HETATM    3  C9  UNL     1      23.764   2.198  53.108  1.00  0.00     0.009 A 
HETATM    4  C10 UNL     1      23.317   2.480  51.847  1.00  0.00    -0.037 A 
HETATM    5  C14 UNL     1      24.243   2.667  50.829  1.00  0.00     0.033 A 
HETATM    6  C15 UNL     1      25.577   2.560  51.130  1.00  0.00     0.041 A 
HETATM    7 CL2  UNL     1      26.758   2.781  49.860  1.00  0.00    -0.084 Cl
ENDROOT
BRANCH   1   8
HETATM    8  C6  UNL     1      27.463   2.149  52.839  1.00  0.00     0.078 C 
BRANCH   8   9
HETATM    9  C5  UNL     1      27.861   0.725  52.926  1.00  0.00    -0.051 A 
HETATM   10  C4  UNL     1      29.119   0.544  53.512  1.00  0.00     0.007 A 
HETATM   11  C3  UNL     1      29.725  -0.697  53.721  1.00  0.00     0.004 A 
HETATM   12  C2  UNL     1      28.966  -1.791  53.290  1.00  0.00     0.042 A 
HETATM   13  C1  UNL     1      27.723  -1.680  52.705  1.00  0.00     0.116 A 
HETATM   14  F1  UNL     1      27.000  -2.738  52.292  1.00  0.00    -0.206 F 
HETATM   15  C16 UNL     1      27.205  -0.416  52.541  1.00  0.00     0.049 A 
ENDBRANCH   8   9
ENDBRANCH   1   8
BRANCH   4  16
HETATM   16  C11 UNL     1      21.870   2.604  51.481  1.00  0.00     0.188 C 
BRANCH  16  17
HETATM   17  N1  UNL     1      21.447   1.409  50.780  1.00  0.00    -0.278 NA
HETATM   18  C12 UNL     1      21.104   0.390  51.519  1.00  0.00     0.227 C 
BRANCH  18  19
HETATM   19  N2  UNL     1      20.882  -0.297  52.765  1.00  0.00    -0.243 NA
HETATM   20  C13 UNL     1      21.937  -0.892  53.265  1.00  0.00     0.202 C 
HETATM   21 CL1  UNL     1      21.928  -1.795  54.769  1.00  0.00    -0.076 Cl
ENDBRANCH  18  19
ENDBRANCH  16  17
ENDBRANCH   4  16
TORSDOF 5
ENDMDL
MODEL 3
REMARK VINA RESULT:      -7.4      2.058      2.565
REMARK  5 active torsions:
REMARK  status: ('A' for Active; 'I' for Inactive)
REMARK    1  A    between atoms: C5_6  and  C6_7 
REMARK    2  A    between atoms: C6_7  and  C7_8 
REMARK    3  A    between atoms: C10_11  and  C11_12 
REMARK    4  A    between atoms: C11_12  and  N1_13 
REMARK    5  A    between atoms: C12_14  and  N2_15 
ROOT
HETATM    1  C7  UNL     1      24.804   0.771  53.503  1.00  0.00    -0.032 A 
HETATM    2  C8  UNL     1      24.609   1.514  52.332  1.00  0.00     0.010 A 
HETATM    3  C9  UNL     1      23.489   1.379  51.542  1.00  0.00     0.009 A 
HETATM    4  C10 UNL     1      22.506   0.491  51.882  1.00  0.00    -0.037 A 
HETATM    5  C14 UNL     1      22.653  -0.270  53.034  1.00  0.00     0.033 A 
HETATM    6  C15 UNL     1      23.786  -0.101  53.790  1.00  0.00     0.041 A 
HETATM    7 CL2  UNL     1      23.985  -1.041  55.249  1.00  0.00    -0.084 Cl
ENDROOT
BRANCH   1   8
HETATM    8  C6  UNL     1      26.057   1.049  54.197  1.00  0.00     0.078 C 
BRANCH   8   9
HETATM    9  C5  UNL     1      27.106   0.078  53.810  1.00  0.00    -0.051 A 
HETATM   10  C4  UNL     1      28.401   0.536  54.079  1.00  0.00     0.007 A 
HETATM   11  C3  UNL     1      29.568  -0.186  53.819  1.00  0.00     0.004 A 
HETATM   12  C2  UNL     1      29.352  -1.447  53.250  1.00  0.00     0.042 A 
HETATM   13  C1  UNL     1      28.104  -1.954  52.959  1.00  0.00     0.116 A 
HETATM   14  F1  UNL     1      27.907  -3.168  52.409  1.00  0.00    -0.206 F 
HETATM   15  C16 UNL     1      27.013  -1.171  53.251  1.00  0.00     0.049 A 
ENDBRANCH   8   9
ENDBRANCH   1   8
BRANCH   4  16
HETATM   16  C11 UNL     1      21.257   0.279  51.082  1.00  0.00     0.188 C 
BRANCH  16  17
HETATM   17  N1  UNL     1      20.184   1.071  51.647  1.00  0.00    -0.278 NA
HETATM   18  C12 UNL     1      19.110   0.425  52.008  1.00  0.00     0.227 C 
BRANCH  18  19
HETATM   19  N2  UNL     1      18.297  -0.750  52.185  1.00  0.00    -0.243 NA
HETATM   20  C13 UNL     1      18.475  -1.381  53.320  1.00  0.00     0.202 C 
HETATM   21 CL1  UNL     1      17.608  -2.836  53.775  1.00  0.00    -0.076 Cl
ENDBRANCH  18  19
ENDBRANCH  16  17
ENDBRANCH   4  16
TORSDOF 5
ENDMDL
MODEL 4
REMARK VINA RESULT:      -7.4      4.184      6.656
REMARK  5 active torsions:
REMARK  status: ('A' for Active; 'I' for Inactive)
REMARK    1  A    between atoms: C5_6  and  C6_7 
REMARK    2  A    between atoms: C6_7  and  C7_8 
REMARK    3  A    between atoms: C10_11  and  C11_12 
REMARK    4  A    between atoms: C11_12  and  N1_13 
REMARK    5  A    between atoms: C12_14  and  N2_15 
ROOT
HETATM    1  C7  UNL     1      25.768   1.477  52.914  1.00  0.00    -0.032 A 
HETATM    2  C8  UNL     1      26.717   2.169  52.149  1.00  0.00     0.010 A 
HETATM    3  C9  UNL     1      26.399   2.818  50.977  1.00  0.00     0.009 A 
HETATM    4  C10 UNL     1      25.114   2.808  50.508  1.00  0.00    -0.037 A 
HETATM    5  C14 UNL     1      24.137   2.135  51.229  1.00  0.00     0.033 A 
HETATM    6  C15 UNL     1      24.501   1.504  52.392  1.00  0.00     0.041 A 
HETATM    7 CL2  UNL     1      23.284   0.661  53.321  1.00  0.00    -0.084 Cl
ENDROOT
BRANCH   1   8
HETATM    8  C6  UNL     1      26.301   0.847  54.117  1.00  0.00     0.078 C 
BRANCH   8   9
HETATM    9  C5  UNL     1      27.288  -0.202  53.775  1.00  0.00    -0.051 A 
HETATM   10  C4  UNL     1      26.730  -1.265  53.056  1.00  0.00     0.007 A 
HETATM   11  C3  UNL     1      27.442  -2.378  52.604  1.00  0.00     0.004 A 
HETATM   12  C2  UNL     1      28.804  -2.363  52.929  1.00  0.00     0.042 A 
HETATM   13  C1  UNL     1      29.413  -1.348  53.635  1.00  0.00     0.116 A 
HETATM   14  F1  UNL     1      30.724  -1.343  53.945  1.00  0.00    -0.206 F 
HETATM   15  C16 UNL     1      28.631  -0.292  54.038  1.00  0.00     0.049 A 
ENDBRANCH   8   9
ENDBRANCH   1   8
BRANCH   4  16
HETATM   16  C11 UNL     1      24.680   3.484  49.243  1.00  0.00     0.188 C 
BRANCH  16  17
HETATM   17  N1  UNL     1      24.262   4.838  49.543  1.00  0.00    -0.278 NA
HETATM   18  C12 UNL     1      25.180   5.762  49.470  1.00  0.00     0.227 C 
BRANCH  18  19
HETATM   19  N2  UNL     1      26.512   6.256  49.238  1.00  0.00    -0.243 NA
HETATM   20  C13 UNL     1      27.289   5.452  48.552  1.00  0.00     0.202 C 
HETATM   21 CL1  UNL     1      28.953   5.821  48.138  1.00  0.00    -0.076 Cl
ENDBRANCH  18  19
ENDBRANCH  16  17
ENDBRANCH   4  16
TORSDOF 5
ENDMDL
MODEL 5
REMARK VINA RESULT:      -7.3      1.718      2.215
REMARK  5 active torsions:
REMARK  status: ('A' for Active; 'I' for Inactive)
REMARK    1  A    between atoms: C5_6  and  C6_7 
REMARK    2  A    between atoms: C6_7  and  C7_8 
REMARK    3  A    between atoms: C10_11  and  C11_12 
REMARK    4  A    between atoms: C11_12  and  N1_13 
REMARK    5  A    between atoms: C12_14  and  N2_15 
ROOT
HETATM    1  C7  UNL     1      25.202   1.487  52.868  1.00  0.00    -0.032 A 
HETATM    2  C8  UNL     1      24.179   0.768  53.499  1.00  0.00     0.010 A 
HETATM    3  C9  UNL     1      22.960   0.527  52.903  1.00  0.00     0.009 A 
HETATM    4  C10 UNL     1      22.702   0.996  51.645  1.00  0.00    -0.037 A 
HETATM    5  C14 UNL     1      23.684   1.716  50.977  1.00  0.00     0.033 A 
HETATM    6  C15 UNL     1      24.883   1.929  51.610  1.00  0.00     0.041 A 
HETATM    7 CL2  UNL     1      26.135   2.823  50.783  1.00  0.00    -0.084 Cl
ENDROOT
BRANCH   1   8
HETATM    8  C6  UNL     1      26.414   1.645  53.664  1.00  0.00     0.078 C 
BRANCH   8   9
HETATM    9  C5  UNL     1      27.326   0.492  53.479  1.00  0.00    -0.051 A 
HETATM   10  C4  UNL     1      28.656   0.791  53.798  1.00  0.00     0.007 A 
HETATM   11  C3  UNL     1      29.713  -0.119  53.720  1.00  0.00     0.004 A 
HETATM   12  C2  UNL     1      29.345  -1.397  53.284  1.00  0.00     0.042 A 
HETATM   13  C1  UNL     1      28.055  -1.753  52.954  1.00  0.00     0.116 A 
HETATM   14  F1  UNL     1      27.710  -2.985  52.534  1.00  0.00    -0.206 F 
HETATM   15  C16 UNL     1      27.079  -0.791  53.063  1.00  0.00     0.049 A 
ENDBRANCH   8   9
ENDBRANCH   1   8
BRANCH   4  16
HETATM   16  C11 UNL     1      21.406   0.783  50.923  1.00  0.00     0.188 C 
BRANCH  16  17
HETATM   17  N1  UNL     1      20.369   1.569  51.557  1.00  0.00    -0.278 NA
HETATM   18  C12 UNL     1      19.321   0.918  51.982  1.00  0.00     0.227 C 
BRANCH  18  19
HETATM   19  N2  UNL     1      18.524  -0.260  52.204  1.00  0.00    -0.243 NA
HETATM   20  C13 UNL     1      18.885  -0.988  53.232  1.00  0.00     0.202 C 
HETATM   21 CL1  UNL     1      18.079  -2.470  53.713  1.00  0.00    -0.076 Cl
ENDBRANCH  18  19
ENDBRANCH  16  17
ENDBRANCH   4  16
TORSDOF 5
ENDMDL
MODEL 6
REMARK VINA RESULT:      -7.3      4.254      5.443
REMARK  5 active torsions:
REMARK  status: ('A' for Active; 'I' for Inactive)
REMARK    1  A    between atoms: C5_6  and  C6_7 
REMARK    2  A    between atoms: C6_7  and  C7_8 
REMARK    3  A    between atoms: C10_11  and  C11_12 
REMARK    4  A    between atoms: C11_12  and  N1_13 
REMARK    5  A    between atoms: C12_14  and  N2_15 
ROOT
HETATM    1  C7  UNL     1      25.226   2.927  50.948  1.00  0.00    -0.032 A 
HETATM    2  C8  UNL     1      26.255   1.976  50.918  1.00  0.00     0.010 A 
HETATM    3  C9  UNL     1      26.710   1.334  52.049  1.00  0.00     0.009 A 
HETATM    4  C10 UNL     1      26.158   1.609  53.269  1.00  0.00    -0.037 A 
HETATM    5  C14 UNL     1      25.135   2.545  53.352  1.00  0.00     0.033 A 
HETATM    6  C15 UNL     1      24.715   3.159  52.199  1.00  0.00     0.041 A 
HETATM    7 CL2  UNL     1      23.422   4.331  52.280  1.00  0.00    -0.084 Cl
ENDROOT
BRANCH   1   8
HETATM    8  C6  UNL     1      24.894   3.503  49.651  1.00  0.00     0.078 C 
BRANCH   8   9
HETATM    9  C5  UNL     1      25.914   4.491  49.230  1.00  0.00    -0.051 A 
HETATM   10  C4  UNL     1      25.437   5.806  49.234  1.00  0.00     0.007 A 
HETATM   11  C3  UNL     1      26.195   6.926  48.887  1.00  0.00     0.004 A 
HETATM   12  C2  UNL     1      27.516   6.639  48.521  1.00  0.00     0.042 A 
HETATM   13  C1  UNL     1      28.046   5.367  48.496  1.00  0.00     0.116 A 
HETATM   14  F1  UNL     1      29.317   5.100  48.141  1.00  0.00    -0.206 F 
HETATM   15  C16 UNL     1      27.223   4.325  48.854  1.00  0.00     0.049 A 
ENDBRANCH   8   9
ENDBRANCH   1   8
BRANCH   4  16
HETATM   16  C11 UNL     1      26.590   0.960  54.548  1.00  0.00     0.188 C 
BRANCH  16  17
HETATM   17  N1  UNL     1      26.395  -0.472  54.450  1.00  0.00    -0.278 NA
HETATM   18  C12 UNL     1      25.159  -0.891  54.413  1.00  0.00     0.227 C 
BRANCH  18  19
HETATM   19  N2  UNL     1      23.730  -0.724  54.414  1.00  0.00    -0.243 NA
HETATM   20  C13 UNL     1      23.179  -0.659  53.226  1.00  0.00     0.202 C 
HETATM   21 CL1  UNL     1      21.457  -0.457  52.958  1.00  0.00    -0.076 Cl
ENDBRANCH  18  19
ENDBRANCH  16  17
ENDBRANCH   4  16
TORSDOF 5
ENDMDL
MODEL 7
REMARK VINA RESULT:      -7.2      3.048      3.613
REMARK  5 active torsions:
REMARK  status: ('A' for Active; 'I' for Inactive)
REMARK    1  A    between atoms: C5_6  and  C6_7 
REMARK    2  A    between atoms: C6_7  and  C7_8 
REMARK    3  A    between atoms: C10_11  and  C11_12 
REMARK    4  A    between atoms: C11_12  and  N1_13 
REMARK    5  A    between atoms: C12_14  and  N2_15 
ROOT
HETATM    1  C7  UNL     1      25.163   1.265  53.117  1.00  0.00    -0.032 A 
HETATM    2  C8  UNL     1      24.222   0.459  53.772  1.00  0.00     0.010 A 
HETATM    3  C9  UNL     1      22.991   0.162  53.232  1.00  0.00     0.009 A 
HETATM    4  C10 UNL     1      22.636   0.656  52.007  1.00  0.00    -0.037 A 
HETATM    5  C14 UNL     1      23.534   1.461  51.318  1.00  0.00     0.033 A 
HETATM    6  C15 UNL     1      24.749   1.729  51.896  1.00  0.00     0.041 A 
HETATM    7 CL2  UNL     1      25.897   2.731  51.040  1.00  0.00    -0.084 Cl
ENDROOT
BRANCH   1   8
HETATM    8  C6  UNL     1      26.404   1.473  53.855  1.00  0.00     0.078 C 
BRANCH   8   9
HETATM    9  C5  UNL     1      27.363   0.373  53.603  1.00  0.00    -0.051 A 
HETATM   10  C4  UNL     1      28.689   0.732  53.873  1.00  0.00     0.007 A 
HETATM   11  C3  UNL     1      29.786  -0.120  53.727  1.00  0.00     0.004 A 
HETATM   12  C2  UNL     1      29.464  -1.405  53.276  1.00  0.00     0.042 A 
HETATM   13  C1  UNL     1      28.180  -1.820  52.993  1.00  0.00     0.116 A 
HETATM   14  F1  UNL     1      27.880  -3.058  52.558  1.00  0.00    -0.206 F 
HETATM   15  C16 UNL     1      27.163  -0.912  53.167  1.00  0.00     0.049 A 
ENDBRANCH   8   9
ENDBRANCH   1   8
BRANCH   4  16
HETATM   16  C11 UNL     1      21.320   0.385  51.345  1.00  0.00     0.188 C 
BRANCH  16  17
HETATM   17  N1  UNL     1      20.247   0.671  52.275  1.00  0.00    -0.278 NA
HETATM   18  C12 UNL     1      20.051   1.927  52.571  1.00  0.00     0.227 C 
BRANCH  18  19
HETATM   19  N2  UNL     1      20.320   3.339  52.492  1.00  0.00    -0.243 NA
HETATM   20  C13 UNL     1      20.520   3.797  51.280  1.00  0.00     0.202 C 
HETATM   21 CL1  UNL     1      20.867   5.478  50.917  1.00  0.00    -0.076 Cl
ENDBRANCH  18  19
ENDBRANCH  16  17
ENDBRANCH   4  16
TORSDOF 5
ENDMDL
MODEL 8
REMARK VINA RESULT:      -7.2      5.432      8.446
REMARK  5 active torsions:
REMARK  status: ('A' for Active; 'I' for Inactive)
REMARK    1  A    between atoms: C5_6  and  C6_7 
REMARK    2  A    between atoms: C6_7  and  C7_8 
REMARK    3  A    between atoms: C10_11  and  C11_12 
REMARK    4  A    between atoms: C11_12  and  N1_13 
REMARK    5  A    between atoms: C12_14  and  N2_15 
ROOT
HETATM    1  C7  UNL     1      25.483   2.732  51.087  1.00  0.00    -0.032 A 
HETATM    2  C8  UNL     1      26.515   2.797  50.141  1.00  0.00     0.010 A 
HETATM    3  C9  UNL     1      26.748   3.913  49.368  1.00  0.00     0.009 A 
HETATM    4  C10 UNL     1      25.960   5.023  49.501  1.00  0.00    -0.037 A 
HETATM    5  C14 UNL     1      24.923   5.007  50.424  1.00  0.00     0.033 A 
HETATM    6  C15 UNL     1      24.729   3.874  51.172  1.00  0.00     0.041 A 
HETATM    7 CL2  UNL     1      23.437   3.839  52.347  1.00  0.00    -0.084 Cl
ENDROOT
BRANCH   1   8
HETATM    8  C6  UNL     1      25.391   1.463  51.798  1.00  0.00     0.078 C 
BRANCH   8   9
HETATM    9  C5  UNL     1      26.646   1.171  52.530  1.00  0.00    -0.051 A 
HETATM   10  C4  UNL     1      26.992  -0.185  52.501  1.00  0.00     0.007 A 
HETATM   11  C3  UNL     1      28.130  -0.726  53.104  1.00  0.00     0.004 A 
HETATM   12  C2  UNL     1      28.933   0.210  53.766  1.00  0.00     0.042 A 
HETATM   13  C1  UNL     1      28.647   1.557  53.832  1.00  0.00     0.116 A 
HETATM   14  F1  UNL     1      29.424   2.450  54.473  1.00  0.00    -0.206 F 
HETATM   15  C16 UNL     1      27.504   1.998  53.207  1.00  0.00     0.049 A 
ENDBRANCH   8   9
ENDBRANCH   1   8
BRANCH   4  16
HETATM   16  C11 UNL     1      26.140   6.277  48.702  1.00  0.00     0.188 C 
BRANCH  16  17
HETATM   17  N1  UNL     1      27.433   6.249  48.049  1.00  0.00    -0.278 NA
HETATM   18  C12 UNL     1      28.238   7.243  48.305  1.00  0.00     0.227 C 
BRANCH  18  19
HETATM   19  N2  UNL     1      28.615   8.482  48.933  1.00  0.00    -0.243 NA
HETATM   20  C13 UNL     1      29.903   8.722  48.958  1.00  0.00     0.202 C 
HETATM   21 CL1  UNL     1      30.616  10.159  49.666  1.00  0.00    -0.076 Cl
ENDBRANCH  18  19
ENDBRANCH  16  17
ENDBRANCH   4  16
TORSDOF 5
ENDMDL
MODEL 9
REMARK VINA RESULT:      -7.0      3.931      4.886
REMARK  5 active torsions:
REMARK  status: ('A' for Active; 'I' for Inactive)
REMARK    1  A    between atoms: C5_6  and  C6_7 
REMARK    2  A    between atoms: C6_7  and  C7_8 
REMARK    3  A    between atoms: C10_11  and  C11_12 
REMARK    4  A    between atoms: C11_12  and  N1_13 
REMARK    5  A    between atoms: C12_14  and  N2_15 
ROOT
HETATM    1  C7  UNL     1      25.483   1.076  52.040  1.00  0.00    -0.032 A 
HETATM    2  C8  UNL     1      26.343   1.807  51.211  1.00  0.00     0.010 A 
HETATM    3  C9  UNL     1      26.038   3.066  50.745  1.00  0.00     0.009 A 
HETATM    4  C10 UNL     1      24.854   3.660  51.084  1.00  0.00    -0.037 A 
HETATM    5  C14 UNL     1      23.965   2.976  51.903  1.00  0.00     0.033 A 
HETATM    6  C15 UNL     1      24.313   1.724  52.344  1.00  0.00     0.041 A 
HETATM    7 CL2  UNL     1      23.214   0.851  53.385  1.00  0.00    -0.084 Cl
ENDROOT
BRANCH   1   8
HETATM    8  C6  UNL     1      25.979  -0.242  52.420  1.00  0.00     0.078 C 
BRANCH   8   9
HETATM    9  C5  UNL     1      27.324  -0.148  53.033  1.00  0.00    -0.051 A 
HETATM   10  C4  UNL     1      28.067  -1.328  52.907  1.00  0.00     0.007 A 
HETATM   11  C3  UNL     1      29.366  -1.502  53.389  1.00  0.00     0.004 A 
HETATM   12  C2  UNL     1      29.899  -0.379  54.033  1.00  0.00     0.042 A 
HETATM   13  C1  UNL     1      29.220   0.810  54.190  1.00  0.00     0.116 A 
HETATM   14  F1  UNL     1      29.740   1.884  54.812  1.00  0.00    -0.206 F 
HETATM   15  C16 UNL     1      27.945   0.889  53.682  1.00  0.00     0.049 A 
ENDBRANCH   8   9
ENDBRANCH   1   8
BRANCH   4  16
HETATM   16  C11 UNL     1      24.439   5.024  50.623  1.00  0.00     0.188 C 
BRANCH  16  17
HETATM   17  N1  UNL     1      24.424   5.056  49.175  1.00  0.00    -0.278 NA
HETATM   18  C12 UNL     1      23.467   4.392  48.587  1.00  0.00     0.227 C 
BRANCH  18  19
HETATM   19  N2  UNL     1      22.295   3.557  48.552  1.00  0.00    -0.243 NA
HETATM   20  C13 UNL     1      22.525   2.273  48.678  1.00  0.00     0.202 C 
HETATM   21 CL1  UNL     1      21.268   1.050  48.666  1.00  0.00    -0.076 Cl
ENDBRANCH  18  19
ENDBRANCH  16  17
ENDBRANCH   4  16
TORSDOF 5
ENDMDL
