MODEL 1
REMARK VINA RESULT:      -8.3      0.000      0.000
REMARK  1 active torsions:
REMARK  status: ('A' for Active; 'I' for Inactive)
REMARK    1  A    between atoms: C16_21  and  P1_22 
ROOT
HETATM    1  C1  UNL     1      21.930   5.520  51.568  1.00  0.00     0.182 C 
HETATM    2  N1  UNL     1      21.862   4.070  51.857  1.00  0.00    -0.255 N 
HETATM    3  N2  UNL     1      20.962   3.238  52.337  1.00  0.00    -0.152 NA
HETATM    4  C2  UNL     1      21.212   1.966  52.483  1.00  0.00     0.162 A 
HETATM    5  C3  UNL     1      22.431   2.215  51.981  1.00  0.00     0.060 A 
HETATM    6  C4  UNL     1      23.527   1.534  51.683  1.00  0.00     0.046 A 
HETATM    7  C5  UNL     1      24.570   2.011  51.249  1.00  0.00     0.034 A 
HETATM    8  N3  UNL     1      24.260   3.298  51.145  1.00  0.00    -0.275 N 
HETATM    9  C6  UNL     1      22.993   3.411  51.565  1.00  0.00     0.146 A 
HETATM   10  C7  UNL     1      25.507   3.820  50.719  1.00  0.00     0.194 A 
HETATM   11  F1  UNL     1      25.514   5.166  50.487  1.00  0.00    -0.186 F 
HETATM   12  C8  UNL     1      26.403   2.743  50.661  1.00  0.00     0.051 A 
HETATM   13  C9  UNL     1      25.921   1.401  51.037  1.00  0.00     0.098 A 
HETATM   14  C10 UNL     1      26.122   0.785  52.351  1.00  0.00    -0.022 A 
HETATM   15  C11 UNL     1      24.964   0.272  53.025  1.00  0.00     0.023 A 
HETATM   16  C12 UNL     1      23.896  -0.258  53.782  1.00  0.00    -0.008 A 
HETATM   17  C13 UNL     1      24.773  -0.520  54.770  1.00  0.00     0.015 A 
HETATM   18  C14 UNL     1      26.114  -0.198  54.609  1.00  0.00     0.025 A 
HETATM   19  C15 UNL     1      26.737   0.390  53.526  1.00  0.00     0.041 A 
HETATM   20 CL1  UNL     1      28.433   0.816  53.325  1.00  0.00    -0.084 Cl
HETATM   21  C16 UNL     1      22.476  -0.269  53.425  1.00  0.00     0.049 C 
HETATM   22  N4  UNL     1      21.545   0.522  52.632  1.00  0.00    -0.338 N 
HETATM   23  H11 UNL     1      20.903   0.119  51.981  1.00  0.00     0.167 HD
ENDROOT
BRANCH  21  24
HETATM   24  P1  UNL     1      21.946  -1.604  54.228  1.00  0.00    -0.043 P 
HETATM   25  H10 UNL     1      20.669  -1.734  54.852  1.00  0.00     0.069 HD
ENDBRANCH  21  24
TORSDOF 1
ENDMDL
MODEL 2
REMARK VINA RESULT:      -8.3      3.597      5.922
REMARK  1 active torsions:
REMARK  status: ('A' for Active; 'I' for Inactive)
REMARK    1  A    between atoms: C16_21  and  P1_22 
ROOT
HETATM    1  C1  UNL     1      27.048   0.234  54.920  1.00  0.00     0.182 C 
HETATM    2  N1  UNL     1      26.859   1.084  53.723  1.00  0.00    -0.255 N 
HETATM    3  N2  UNL     1      27.587   1.948  53.046  1.00  0.00    -0.152 NA
HETATM    4  C2  UNL     1      27.121   2.564  51.995  1.00  0.00     0.162 A 
HETATM    5  C3  UNL     1      25.982   1.881  52.182  1.00  0.00     0.060 A 
HETATM    6  C4  UNL     1      24.798   1.768  51.598  1.00  0.00     0.046 A 
HETATM    7  C5  UNL     1      23.868   1.073  51.993  1.00  0.00     0.034 A 
HETATM    8  N3  UNL     1      24.395   0.496  53.067  1.00  0.00    -0.275 N 
HETATM    9  C6  UNL     1      25.646   0.965  53.166  1.00  0.00     0.146 A 
HETATM   10  C7  UNL     1      23.271  -0.231  53.534  1.00  0.00     0.194 A 
HETATM   11  F1  UNL     1      23.500  -0.981  54.651  1.00  0.00    -0.186 F 
HETATM   12  C8  UNL     1      22.209   0.054  52.664  1.00  0.00     0.051 A 
HETATM   13  C9  UNL     1      22.442   0.984  51.543  1.00  0.00     0.098 A 
HETATM   14  C10 UNL     1      22.091   2.406  51.557  1.00  0.00    -0.022 A 
HETATM   15  C11 UNL     1      23.119   3.345  51.212  1.00  0.00     0.023 A 
HETATM   16  C12 UNL     1      24.052   4.358  50.899  1.00  0.00    -0.008 A 
HETATM   17  C13 UNL     1      23.106   5.271  51.190  1.00  0.00     0.015 A 
HETATM   18  C14 UNL     1      21.846   4.856  51.600  1.00  0.00     0.025 A 
HETATM   19  C15 UNL     1      21.373   3.570  51.770  1.00  0.00     0.041 A 
HETATM   20 CL1  UNL     1      19.782   3.040  52.306  1.00  0.00    -0.084 Cl
HETATM   21  C16 UNL     1      25.462   4.185  50.545  1.00  0.00     0.049 C 
HETATM   22  N4  UNL     1      26.543   3.243  50.802  1.00  0.00    -0.338 N 
HETATM   23  H11 UNL     1      27.132   2.878  50.082  1.00  0.00     0.167 HD
ENDROOT
BRANCH  21  24
HETATM   24  P1  UNL     1      25.728   5.505  49.600  1.00  0.00    -0.043 P 
HETATM   25  H10 UNL     1      26.391   5.491  48.336  1.00  0.00     0.069 HD
ENDBRANCH  21  24
TORSDOF 1
ENDMDL
MODEL 3
REMARK VINA RESULT:      -8.0      2.728      4.537
REMARK  1 active torsions:
REMARK  status: ('A' for Active; 'I' for Inactive)
REMARK    1  A    between atoms: C16_21  and  P1_22 
ROOT
HETATM    1  C1  UNL     1      27.202  -0.403  53.693  1.00  0.00     0.182 C 
HETATM    2  N1  UNL     1      25.731  -0.255  53.750  1.00  0.00    -0.255 N 
HETATM    3  N2  UNL     1      24.733  -0.891  54.328  1.00  0.00    -0.152 NA
HETATM    4  C2  UNL     1      23.495  -0.506  54.179  1.00  0.00     0.162 A 
HETATM    5  C3  UNL     1      23.966   0.488  53.411  1.00  0.00     0.060 A 
HETATM    6  C4  UNL     1      23.482   1.519  52.735  1.00  0.00     0.046 A 
HETATM    7  C5  UNL     1      24.137   2.299  52.052  1.00  0.00     0.034 A 
HETATM    8  N3  UNL     1      25.372   1.843  52.226  1.00  0.00    -0.275 N 
HETATM    9  C6  UNL     1      25.267   0.784  53.040  1.00  0.00     0.146 A 
HETATM   10  C7  UNL     1      26.083   2.716  51.365  1.00  0.00     0.194 A 
HETATM   11  F1  UNL     1      27.434   2.519  51.339  1.00  0.00    -0.186 F 
HETATM   12  C8  UNL     1      25.136   3.561  50.768  1.00  0.00     0.051 A 
HETATM   13  C9  UNL     1      23.713   3.382  51.109  1.00  0.00     0.098 A 
HETATM   14  C10 UNL     1      22.750   2.636  50.295  1.00  0.00    -0.022 A 
HETATM   15  C11 UNL     1      21.982   1.616  50.947  1.00  0.00     0.023 A 
HETATM   16  C12 UNL     1      21.178   0.584  51.481  1.00  0.00    -0.008 A 
HETATM   17  C13 UNL     1      20.697   0.366  50.243  1.00  0.00     0.015 A 
HETATM   18  C14 UNL     1      21.144   1.140  49.179  1.00  0.00     0.025 A 
HETATM   19  C15 UNL     1      22.068   2.165  49.187  1.00  0.00     0.041 A 
HETATM   20 CL1  UNL     1      22.652   3.136  47.838  1.00  0.00    -0.084 Cl
HETATM   21  C16 UNL     1      21.175   0.086  52.857  1.00  0.00     0.049 C 
HETATM   22  N4  UNL     1      22.099  -0.029  53.978  1.00  0.00    -0.338 N 
HETATM   23  H11 UNL     1      21.864   0.243  54.910  1.00  0.00     0.167 HD
ENDROOT
BRANCH  21  24
HETATM   24  P1  UNL     1      19.629  -0.457  53.007  1.00  0.00    -0.043 P 
HETATM   25  H10 UNL     1      18.481   0.160  52.424  1.00  0.00     0.069 HD
ENDBRANCH  21  24
TORSDOF 1
ENDMDL
MODEL 4
REMARK VINA RESULT:      -7.9      2.166      3.011
REMARK  1 active torsions:
REMARK  status: ('A' for Active; 'I' for Inactive)
REMARK    1  A    between atoms: C16_21  and  P1_22 
ROOT
HETATM    1  C1  UNL     1      24.563   5.258  50.826  1.00  0.00     0.182 C 
HETATM    2  N1  UNL     1      23.525   4.206  50.753  1.00  0.00    -0.255 N 
HETATM    3  N2  UNL     1      22.274   4.131  50.350  1.00  0.00    -0.152 NA
HETATM    4  C2  UNL     1      21.596   3.019  50.419  1.00  0.00     0.162 A 
HETATM    5  C3  UNL     1      22.700   2.454  50.928  1.00  0.00     0.060 A 
HETATM    6  C4  UNL     1      23.086   1.259  51.349  1.00  0.00     0.046 A 
HETATM    7  C5  UNL     1      24.184   0.987  51.824  1.00  0.00     0.034 A 
HETATM    8  N3  UNL     1      24.811   2.154  51.747  1.00  0.00    -0.275 N 
HETATM    9  C6  UNL     1      23.937   3.013  51.206  1.00  0.00     0.146 A 
HETATM   10  C7  UNL     1      26.037   1.818  52.373  1.00  0.00     0.194 A 
HETATM   11  F1  UNL     1      26.948   2.834  52.430  1.00  0.00    -0.186 F 
HETATM   12  C8  UNL     1      25.942   0.476  52.766  1.00  0.00     0.051 A 
HETATM   13  C9  UNL     1      24.689  -0.254  52.492  1.00  0.00     0.098 A 
HETATM   14  C10 UNL     1      23.618  -0.463  53.469  1.00  0.00    -0.022 A 
HETATM   15  C11 UNL     1      22.288  -0.090  53.081  1.00  0.00     0.023 A 
HETATM   16  C12 UNL     1      20.943   0.248  52.812  1.00  0.00    -0.008 A 
HETATM   17  C13 UNL     1      20.637  -0.114  54.073  1.00  0.00     0.015 A 
HETATM   18  C14 UNL     1      21.633  -0.582  54.921  1.00  0.00     0.025 A 
HETATM   19  C15 UNL     1      22.980  -0.744  54.663  1.00  0.00     0.041 A 
HETATM   20 CL1  UNL     1      24.248  -1.318  55.741  1.00  0.00    -0.084 Cl
HETATM   21  C16 UNL     1      20.409   0.851  51.591  1.00  0.00     0.049 C 
HETATM   22  N4  UNL     1      20.862   1.727  50.518  1.00  0.00    -0.338 N 
HETATM   23  H11 UNL     1      20.705   1.532  49.551  1.00  0.00     0.167 HD
ENDROOT
BRANCH  21  24
HETATM   24  P1  UNL     1      18.866   0.279  51.589  1.00  0.00    -0.043 P 
HETATM   25  H10 UNL     1      18.260  -0.447  50.521  1.00  0.00     0.069 HD
ENDBRANCH  21  24
TORSDOF 1
ENDMDL
MODEL 5
REMARK VINA RESULT:      -7.9      3.002      4.401
REMARK  1 active torsions:
REMARK  status: ('A' for Active; 'I' for Inactive)
REMARK    1  A    between atoms: C16_21  and  P1_22 
ROOT
HETATM    1  C1  UNL     1      22.250   2.698  47.548  1.00  0.00     0.182 C 
HETATM    2  N1  UNL     1      23.115   2.811  48.744  1.00  0.00    -0.255 N 
HETATM    3  N2  UNL     1      24.352   3.190  48.990  1.00  0.00    -0.152 NA
HETATM    4  C2  UNL     1      24.848   3.173  50.196  1.00  0.00     0.162 A 
HETATM    5  C3  UNL     1      23.655   2.722  50.610  1.00  0.00     0.060 A 
HETATM    6  C4  UNL     1      23.077   2.380  51.751  1.00  0.00     0.046 A 
HETATM    7  C5  UNL     1      21.936   1.946  51.875  1.00  0.00     0.034 A 
HETATM    8  N3  UNL     1      21.499   1.967  50.622  1.00  0.00    -0.275 N 
HETATM    9  C6  UNL     1      22.511   2.438  49.881  1.00  0.00     0.146 A 
HETATM   10  C7  UNL     1      20.217   1.389  50.797  1.00  0.00     0.194 A 
HETATM   11  F1  UNL     1      19.472   1.292  49.657  1.00  0.00    -0.186 F 
HETATM   12  C8  UNL     1      20.093   1.074  52.158  1.00  0.00     0.051 A 
HETATM   13  C9  UNL     1      21.225   1.363  53.057  1.00  0.00     0.098 A 
HETATM   14  C10 UNL     1      22.222   0.377  53.483  1.00  0.00    -0.022 A 
HETATM   15  C11 UNL     1      23.604   0.713  53.301  1.00  0.00     0.023 A 
HETATM   16  C12 UNL     1      24.993   0.933  53.162  1.00  0.00    -0.008 A 
HETATM   17  C13 UNL     1      25.201  -0.311  53.636  1.00  0.00     0.015 A 
HETATM   18  C14 UNL     1      24.120  -1.108  53.988  1.00  0.00     0.025 A 
HETATM   19  C15 UNL     1      22.772  -0.813  53.925  1.00  0.00     0.041 A 
HETATM   20 CL1  UNL     1      21.398  -1.827  54.353  1.00  0.00    -0.084 Cl
HETATM   21  C16 UNL     1      25.650   2.104  52.582  1.00  0.00     0.049 C 
HETATM   22  N4  UNL     1      25.370   3.133  51.589  1.00  0.00    -0.338 N 
HETATM   23  H11 UNL     1      25.525   4.106  51.754  1.00  0.00     0.167 HD
ENDROOT
BRANCH  21  24
HETATM   24  P1  UNL     1      27.087   2.106  53.386  1.00  0.00    -0.043 P 
HETATM   25  H10 UNL     1      28.256   2.815  52.978  1.00  0.00     0.069 HD
ENDBRANCH  21  24
TORSDOF 1
ENDMDL
MODEL 6
REMARK VINA RESULT:      -7.8      3.378      4.976
REMARK  1 active torsions:
REMARK  status: ('A' for Active; 'I' for Inactive)
REMARK    1  A    between atoms: C16_21  and  P1_22 
ROOT
HETATM    1  C1  UNL     1      18.245  -0.936  53.445  1.00  0.00     0.182 C 
HETATM    2  N1  UNL     1      19.724  -0.896  53.421  1.00  0.00    -0.255 N 
HETATM    3  N2  UNL     1      20.699  -1.302  54.208  1.00  0.00    -0.152 NA
HETATM    4  C2  UNL     1      21.953  -1.109  53.904  1.00  0.00     0.162 A 
HETATM    5  C3  UNL     1      21.521  -0.523  52.777  1.00  0.00     0.060 A 
HETATM    6  C4  UNL     1      22.047   0.042  51.701  1.00  0.00     0.046 A 
HETATM    7  C5  UNL     1      21.418   0.558  50.783  1.00  0.00     0.034 A 
HETATM    8  N3  UNL     1      20.162   0.351  51.162  1.00  0.00    -0.275 N 
HETATM    9  C6  UNL     1      20.228  -0.300  52.331  1.00  0.00     0.146 A 
HETATM   10  C7  UNL     1      19.475   1.026  50.122  1.00  0.00     0.194 A 
HETATM   11  F1  UNL     1      18.114   0.972  50.208  1.00  0.00    -0.186 F 
HETATM   12  C8  UNL     1      20.450   1.575  49.277  1.00  0.00     0.051 A 
HETATM   13  C9  UNL     1      21.872   1.375  49.613  1.00  0.00     0.098 A 
HETATM   14  C10 UNL     1      22.708   2.357  50.308  1.00  0.00    -0.022 A 
HETATM   15  C11 UNL     1      23.426   1.913  51.467  1.00  0.00     0.023 A 
HETATM   16  C12 UNL     1      24.170   1.590  52.624  1.00  0.00    -0.008 A 
HETATM   17  C13 UNL     1      24.546   2.881  52.700  1.00  0.00     0.015 A 
HETATM   18  C14 UNL     1      24.097   3.790  51.751  1.00  0.00     0.025 A 
HETATM   19  C15 UNL     1      23.270   3.570  50.668  1.00  0.00     0.041 A 
HETATM   20 CL1  UNL     1      22.684   4.723  49.472  1.00  0.00    -0.084 Cl
HETATM   21  C16 UNL     1      24.221   0.299  53.312  1.00  0.00     0.049 C 
HETATM   22  N4  UNL     1      23.368  -0.865  53.513  1.00  0.00    -0.338 N 
HETATM   23  H11 UNL     1      23.689  -1.804  53.395  1.00  0.00     0.167 HD
ENDROOT
BRANCH  21  24
HETATM   24  P1  UNL     1      25.721   0.348  53.989  1.00  0.00    -0.043 P 
HETATM   25  H10 UNL     1      26.870  -0.338  53.492  1.00  0.00     0.069 HD
ENDBRANCH  21  24
TORSDOF 1
ENDMDL
MODEL 7
REMARK VINA RESULT:      -7.8      2.690      4.354
REMARK  1 active torsions:
REMARK  status: ('A' for Active; 'I' for Inactive)
REMARK    1  A    between atoms: C16_21  and  P1_22 
ROOT
HETATM    1  C1  UNL     1      26.790   4.055  49.275  1.00  0.00     0.182 C 
HETATM    2  N1  UNL     1      26.472   3.292  50.503  1.00  0.00    -0.255 N 
HETATM    3  N2  UNL     1      27.122   2.482  51.313  1.00  0.00    -0.152 NA
HETATM    4  C2  UNL     1      26.545   1.941  52.350  1.00  0.00     0.162 A 
HETATM    5  C3  UNL     1      25.434   2.604  51.996  1.00  0.00     0.060 A 
HETATM    6  C4  UNL     1      24.197   2.754  52.442  1.00  0.00     0.046 A 
HETATM    7  C5  UNL     1      23.315   3.415  51.903  1.00  0.00     0.034 A 
HETATM    8  N3  UNL     1      23.954   3.916  50.852  1.00  0.00    -0.275 N 
HETATM    9  C6  UNL     1      25.207   3.446  50.919  1.00  0.00     0.146 A 
HETATM   10  C7  UNL     1      22.889   4.603  50.218  1.00  0.00     0.194 A 
HETATM   11  F1  UNL     1      23.237   5.272  49.080  1.00  0.00    -0.186 F 
HETATM   12  C8  UNL     1      21.740   4.377  50.989  1.00  0.00     0.051 A 
HETATM   13  C9  UNL     1      21.851   3.530  52.192  1.00  0.00     0.098 A 
HETATM   14  C10 UNL     1      21.498   2.109  52.243  1.00  0.00    -0.022 A 
HETATM   15  C11 UNL     1      22.480   1.201  52.761  1.00  0.00     0.023 A 
HETATM   16  C12 UNL     1      23.372   0.217  53.243  1.00  0.00    -0.008 A 
HETATM   17  C13 UNL     1      22.459  -0.718  52.919  1.00  0.00     0.015 A 
HETATM   18  C14 UNL     1      21.250  -0.339  52.350  1.00  0.00     0.025 A 
HETATM   19  C15 UNL     1      20.802   0.930  52.040  1.00  0.00     0.041 A 
HETATM   20 CL1  UNL     1      19.278   1.414  51.302  1.00  0.00    -0.084 Cl
HETATM   21  C16 UNL     1      24.737   0.421  53.729  1.00  0.00     0.049 C 
HETATM   22  N4  UNL     1      25.843   1.347  53.521  1.00  0.00    -0.338 N 
HETATM   23  H11 UNL     1      26.353   1.765  54.271  1.00  0.00     0.167 HD
ENDROOT
BRANCH  21  24
HETATM   24  P1  UNL     1      24.898  -0.827  54.789  1.00  0.00    -0.043 P 
HETATM   25  H10 UNL     1      23.891  -1.798  55.075  1.00  0.00     0.069 HD
ENDBRANCH  21  24
TORSDOF 1
ENDMDL
MODEL 8
REMARK VINA RESULT:      -7.8      3.342      5.163
REMARK  1 active torsions:
REMARK  status: ('A' for Active; 'I' for Inactive)
REMARK    1  A    between atoms: C16_21  and  P1_22 
ROOT
HETATM    1  C1  UNL     1      17.255  -0.312  51.393  1.00  0.00     0.182 C 
HETATM    2  N1  UNL     1      18.178   0.832  51.568  1.00  0.00    -0.255 N 
HETATM    3  N2  UNL     1      18.265   2.062  51.106  1.00  0.00    -0.152 NA
HETATM    4  C2  UNL     1      19.235   2.860  51.457  1.00  0.00     0.162 A 
HETATM    5  C3  UNL     1      19.691   1.861  52.226  1.00  0.00     0.060 A 
HETATM    6  C4  UNL     1      20.693   1.647  53.065  1.00  0.00     0.046 A 
HETATM    7  C5  UNL     1      20.928   0.593  53.646  1.00  0.00     0.034 A 
HETATM    8  N3  UNL     1      19.928  -0.177  53.232  1.00  0.00    -0.275 N 
HETATM    9  C6  UNL     1      19.193   0.580  52.406  1.00  0.00     0.146 A 
HETATM   10  C7  UNL     1      20.279  -1.398  53.859  1.00  0.00     0.194 A 
HETATM   11  F1  UNL     1      19.402  -2.423  53.645  1.00  0.00    -0.186 F 
HETATM   12  C8  UNL     1      21.482  -1.176  54.543  1.00  0.00     0.051 A 
HETATM   13  C9  UNL     1      22.102   0.160  54.470  1.00  0.00     0.098 A 
HETATM   14  C10 UNL     1      23.190   0.524  53.559  1.00  0.00    -0.022 A 
HETATM   15  C11 UNL     1      23.006   1.686  52.739  1.00  0.00     0.023 A 
HETATM   16  C12 UNL     1      22.930   2.805  51.879  1.00  0.00    -0.008 A 
HETATM   17  C13 UNL     1      24.125   2.449  51.370  1.00  0.00     0.015 A 
HETATM   18  C14 UNL     1      24.777   1.322  51.854  1.00  0.00     0.025 A 
HETATM   19  C15 UNL     1      24.368   0.445  52.839  1.00  0.00     0.041 A 
HETATM   20 CL1  UNL     1      25.183  -0.995  53.442  1.00  0.00    -0.084 Cl
HETATM   21  C16 UNL     1      21.811   3.736  51.734  1.00  0.00     0.049 C 
HETATM   22  N4  UNL     1      20.362   3.733  51.886  1.00  0.00    -0.338 N 
HETATM   23  H11 UNL     1      19.864   4.443  52.382  1.00  0.00     0.167 HD
ENDROOT
BRANCH  21  24
HETATM   24  P1  UNL     1      22.586   5.110  51.263  1.00  0.00    -0.043 P 
HETATM   25  H10 UNL     1      23.996   5.321  51.329  1.00  0.00     0.069 HD
ENDBRANCH  21  24
TORSDOF 1
ENDMDL
MODEL 9
REMARK VINA RESULT:      -7.6      2.818      4.400
REMARK  1 active torsions:
REMARK  status: ('A' for Active; 'I' for Inactive)
REMARK    1  A    between atoms: C16_21  and  P1_22 
ROOT
HETATM    1  C1  UNL     1      19.064   0.440  51.474  1.00  0.00     0.182 C 
HETATM    2  N1  UNL     1      19.975   1.605  51.543  1.00  0.00    -0.255 N 
HETATM    3  N2  UNL     1      19.949   2.856  51.135  1.00  0.00    -0.152 NA
HETATM    4  C2  UNL     1      20.946   3.669  51.351  1.00  0.00     0.162 A 
HETATM    5  C3  UNL     1      21.555   2.651  51.978  1.00  0.00     0.060 A 
HETATM    6  C4  UNL     1      22.693   2.433  52.617  1.00  0.00     0.046 A 
HETATM    7  C5  UNL     1      23.053   1.361  53.093  1.00  0.00     0.034 A 
HETATM    8  N3  UNL     1      22.015   0.579  52.822  1.00  0.00    -0.275 N 
HETATM    9  C6  UNL     1      21.128   1.348  52.177  1.00  0.00     0.146 A 
HETATM   10  C7  UNL     1      22.501  -0.657  53.315  1.00  0.00     0.194 A 
HETATM   11  F1  UNL     1      21.625  -1.700  53.207  1.00  0.00    -0.186 F 
HETATM   12  C8  UNL     1      23.800  -0.427  53.789  1.00  0.00     0.051 A 
HETATM   13  C9  UNL     1      24.364   0.931  53.676  1.00  0.00     0.098 A 
HETATM   14  C10 UNL     1      25.265   1.371  52.608  1.00  0.00    -0.022 A 
HETATM   15  C11 UNL     1      24.911   2.563  51.893  1.00  0.00     0.023 A 
HETATM   16  C12 UNL     1      24.658   3.716  51.118  1.00  0.00    -0.008 A 
HETATM   17  C13 UNL     1      25.753   3.423  50.390  1.00  0.00     0.015 A 
HETATM   18  C14 UNL     1      26.507   2.298  50.695  1.00  0.00     0.025 A 
HETATM   19  C15 UNL     1      26.300   1.364  51.690  1.00  0.00     0.041 A 
HETATM   20 CL1  UNL     1      27.243  -0.075  52.068  1.00  0.00    -0.084 Cl
HETATM   21  C16 UNL     1      23.508   4.616  51.218  1.00  0.00     0.049 C 
HETATM   22  N4  UNL     1      22.109   4.558  51.620  1.00  0.00    -0.338 N 
HETATM   23  H11 UNL     1      21.689   5.228  52.230  1.00  0.00     0.167 HD
ENDROOT
BRANCH  21  24
HETATM   24  P1  UNL     1      24.155   6.034  50.688  1.00  0.00    -0.043 P 
HETATM   25  H10 UNL     1      24.074   6.525  49.351  1.00  0.00     0.069 HD
ENDBRANCH  21  24
TORSDOF 1
ENDMDL
