MODEL 1
REMARK VINA RESULT:      -7.4      0.000      0.000
REMARK  6 active torsions:
REMARK  status: ('A' for Active; 'I' for Inactive)
REMARK    1  A    between atoms: C2_2  and  C3_3 
REMARK    2  A    between atoms: C3_3  and  N1_4 
REMARK    3  A    between atoms: N1_4  and  C4_5 
REMARK    4  A    between atoms: C7_8  and  O1_9 
REMARK    5  A    between atoms: O1_9  and  C8_10 
REMARK    6  A    between atoms: C8_10  and  C9_11 
ROOT
HETATM    1  C4  UNL     1      20.338  -0.603  53.654  1.00  0.00     0.029 A 
HETATM    2  C5  UNL     1      20.695  -0.013  52.462  1.00  0.00     0.032 A 
HETATM    3  C6  UNL     1      22.032   0.160  52.217  1.00  0.00     0.041 A 
HETATM    4  C7  UNL     1      23.041  -0.210  53.072  1.00  0.00     0.091 A 
HETATM    5  C15 UNL     1      22.629  -0.810  54.280  1.00  0.00     0.069 A 
HETATM    6 CL1  UNL     1      23.659  -1.403  55.599  1.00  0.00    -0.081 Cl
HETATM    7  C16 UNL     1      21.274  -1.012  54.582  1.00  0.00     0.056 A 
ENDROOT
BRANCH   4   8
HETATM    8  O1  UNL     1      24.396  -0.168  53.101  1.00  0.00    -0.345 OA
BRANCH   8   9
HETATM    9  C8  UNL     1      25.283   0.610  52.399  1.00  0.00     0.214 C 
BRANCH   9  10
HETATM   10  C9  UNL     1      26.665   0.680  52.896  1.00  0.00    -0.031 A 
HETATM   11  C10 UNL     1      27.307  -0.567  52.925  1.00  0.00     0.009 A 
HETATM   12  C11 UNL     1      28.608  -0.752  53.339  1.00  0.00     0.004 A 
HETATM   13  C12 UNL     1      29.359   0.325  53.756  1.00  0.00     0.042 A 
HETATM   14  C13 UNL     1      28.748   1.557  53.733  1.00  0.00     0.117 A 
HETATM   15  F1  UNL     1      29.351   2.718  54.114  1.00  0.00    -0.206 F 
HETATM   16  C14 UNL     1      27.448   1.721  53.318  1.00  0.00     0.051 A 
ENDBRANCH   9  10
ENDBRANCH   8   9
ENDBRANCH   4   8
BRANCH   1  17
HETATM   17  N1  UNL     1      18.948  -0.778  53.896  1.00  0.00    -0.386 N 
HETATM   18  H6  UNL     1      18.472  -0.440  54.758  1.00  0.00     0.160 HD
BRANCH  17  19
HETATM   19  C3  UNL     1      18.123  -1.449  52.926  1.00  0.00     0.146 C 
BRANCH  19  20
HETATM   20  C2  UNL     1      17.263  -2.493  53.524  1.00  0.00    -0.018 C 
HETATM   21  C1  UNL     1      17.363  -3.817  53.457  1.00  0.00     0.008 C 
ENDBRANCH  19  20
ENDBRANCH  17  19
ENDBRANCH   1  17
TORSDOF 6
ENDMDL
MODEL 2
REMARK VINA RESULT:      -7.3      1.494      1.844
REMARK  6 active torsions:
REMARK  status: ('A' for Active; 'I' for Inactive)
REMARK    1  A    between atoms: C2_2  and  C3_3 
REMARK    2  A    between atoms: C3_3  and  N1_4 
REMARK    3  A    between atoms: N1_4  and  C4_5 
REMARK    4  A    between atoms: C7_8  and  O1_9 
REMARK    5  A    between atoms: O1_9  and  C8_10 
REMARK    6  A    between atoms: C8_10  and  C9_11 
ROOT
HETATM    1  C4  UNL     1      20.515  -0.619  53.535  1.00  0.00     0.029 A 
HETATM    2  C5  UNL     1      20.989   0.055  52.430  1.00  0.00     0.032 A 
HETATM    3  C6  UNL     1      22.341   0.262  52.347  1.00  0.00     0.041 A 
HETATM    4  C7  UNL     1      23.257  -0.152  53.282  1.00  0.00     0.091 A 
HETATM    5  C15 UNL     1      22.728  -0.838  54.395  1.00  0.00     0.069 A 
HETATM    6 CL1  UNL     1      23.618  -1.505  55.778  1.00  0.00    -0.081 Cl
HETATM    7  C16 UNL     1      21.352  -1.078  54.531  1.00  0.00     0.056 A 
ENDROOT
BRANCH   4   8
HETATM    8  O1  UNL     1      24.600  -0.094  53.464  1.00  0.00    -0.345 OA
BRANCH   8   9
HETATM    9  C8  UNL     1      25.600   0.328  52.624  1.00  0.00     0.214 C 
BRANCH   9  10
HETATM   10  C9  UNL     1      26.972  -0.101  52.933  1.00  0.00    -0.031 A 
HETATM   11  C10 UNL     1      27.825   0.964  53.260  1.00  0.00     0.009 A 
HETATM   12  C11 UNL     1      29.151   0.810  53.600  1.00  0.00     0.004 A 
HETATM   13  C12 UNL     1      29.713  -0.447  53.634  1.00  0.00     0.042 A 
HETATM   14  C13 UNL     1      28.893  -1.505  53.318  1.00  0.00     0.117 A 
HETATM   15  F1  UNL     1      29.294  -2.807  53.304  1.00  0.00    -0.206 F 
HETATM   16  C14 UNL     1      27.572  -1.331  52.981  1.00  0.00     0.051 A 
ENDBRANCH   9  10
ENDBRANCH   8   9
ENDBRANCH   4   8
BRANCH   1  17
HETATM   17  N1  UNL     1      19.111  -0.828  53.609  1.00  0.00    -0.386 N 
HETATM   18  H6  UNL     1      18.626  -1.141  54.474  1.00  0.00     0.160 HD
BRANCH  17  19
HETATM   19  C3  UNL     1      18.284  -0.604  52.452  1.00  0.00     0.146 C 
BRANCH  19  20
HETATM   20  C2  UNL     1      16.858  -0.913  52.694  1.00  0.00    -0.018 C 
HETATM   21  C1  UNL     1      16.180  -2.032  52.463  1.00  0.00     0.008 C 
ENDBRANCH  19  20
ENDBRANCH  17  19
ENDBRANCH   1  17
TORSDOF 6
ENDMDL
MODEL 3
REMARK VINA RESULT:      -7.3      3.682      8.120
REMARK  6 active torsions:
REMARK  status: ('A' for Active; 'I' for Inactive)
REMARK    1  A    between atoms: C2_2  and  C3_3 
REMARK    2  A    between atoms: C3_3  and  N1_4 
REMARK    3  A    between atoms: N1_4  and  C4_5 
REMARK    4  A    between atoms: C7_8  and  O1_9 
REMARK    5  A    between atoms: O1_9  and  C8_10 
REMARK    6  A    between atoms: C8_10  and  C9_11 
ROOT
HETATM    1  C4  UNL     1      26.552  -0.003  54.314  1.00  0.00     0.029 A 
HETATM    2  C5  UNL     1      26.455   0.652  53.106  1.00  0.00     0.032 A 
HETATM    3  C6  UNL     1      25.225   0.684  52.501  1.00  0.00     0.041 A 
HETATM    4  C7  UNL     1      24.086   0.110  53.009  1.00  0.00     0.091 A 
HETATM    5  C15 UNL     1      24.233  -0.549  54.247  1.00  0.00     0.069 A 
HETATM    6 CL1  UNL     1      22.979  -1.391  55.180  1.00  0.00    -0.081 Cl
HETATM    7  C16 UNL     1      25.468  -0.612  54.910  1.00  0.00     0.056 A 
ENDROOT
BRANCH   4   8
HETATM    8  O1  UNL     1      22.783  -0.017  52.653  1.00  0.00    -0.345 OA
BRANCH   8   9
HETATM    9  C8  UNL     1      21.726   0.846  52.802  1.00  0.00     0.214 C 
BRANCH   9  10
HETATM   10  C9  UNL     1      20.374   0.302  52.607  1.00  0.00    -0.031 A 
HETATM   11  C10 UNL     1      19.781   0.709  51.403  1.00  0.00     0.009 A 
HETATM   12  C11 UNL     1      18.525   0.319  50.995  1.00  0.00     0.004 A 
HETATM   13  C12 UNL     1      17.772  -0.522  51.785  1.00  0.00     0.042 A 
HETATM   14  C13 UNL     1      18.337  -0.933  52.970  1.00  0.00     0.117 A 
HETATM   15  F1  UNL     1      17.725  -1.762  53.862  1.00  0.00    -0.206 F 
HETATM   16  C14 UNL     1      19.592  -0.532  53.361  1.00  0.00     0.051 A 
ENDBRANCH   9  10
ENDBRANCH   8   9
ENDBRANCH   4   8
BRANCH   1  17
HETATM   17  N1  UNL     1      27.833  -0.029  54.931  1.00  0.00    -0.386 N 
HETATM   18  H6  UNL     1      27.992  -0.368  55.902  1.00  0.00     0.160 HD
BRANCH  17  19
HETATM   19  C3  UNL     1      28.993   0.428  54.211  1.00  0.00     0.146 C 
BRANCH  19  20
HETATM   20  C2  UNL     1      29.766  -0.676  53.603  1.00  0.00    -0.018 C 
HETATM   21  C1  UNL     1      29.389  -1.916  53.309  1.00  0.00     0.008 C 
ENDBRANCH  19  20
ENDBRANCH  17  19
ENDBRANCH   1  17
TORSDOF 6
ENDMDL
MODEL 4
REMARK VINA RESULT:      -7.2      4.184      6.811
REMARK  6 active torsions:
REMARK  status: ('A' for Active; 'I' for Inactive)
REMARK    1  A    between atoms: C2_2  and  C3_3 
REMARK    2  A    between atoms: C3_3  and  N1_4 
REMARK    3  A    between atoms: N1_4  and  C4_5 
REMARK    4  A    between atoms: C7_8  and  O1_9 
REMARK    5  A    between atoms: O1_9  and  C8_10 
REMARK    6  A    between atoms: C8_10  and  C9_11 
ROOT
HETATM    1  C4  UNL     1      26.259   0.383  54.241  1.00  0.00     0.029 A 
HETATM    2  C5  UNL     1      26.440   1.725  53.988  1.00  0.00     0.032 A 
HETATM    3  C6  UNL     1      25.427   2.390  53.348  1.00  0.00     0.041 A 
HETATM    4  C7  UNL     1      24.247   1.818  52.940  1.00  0.00     0.091 A 
HETATM    5  C15 UNL     1      24.106   0.443  53.219  1.00  0.00     0.069 A 
HETATM    6 CL1  UNL     1      22.724  -0.602  52.835  1.00  0.00    -0.081 Cl
HETATM    7  C16 UNL     1      25.111  -0.287  53.873  1.00  0.00     0.056 A 
ENDROOT
BRANCH   4   8
HETATM    8  O1  UNL     1      23.110   2.205  52.311  1.00  0.00    -0.345 OA
BRANCH   8   9
HETATM    9  C8  UNL     1      22.915   2.731  51.057  1.00  0.00     0.214 C 
BRANCH   9  10
HETATM   10  C9  UNL     1      23.937   3.654  50.541  1.00  0.00    -0.031 A 
HETATM   11  C10 UNL     1      23.704   4.992  50.891  1.00  0.00     0.009 A 
HETATM   12  C11 UNL     1      24.530   6.034  50.534  1.00  0.00     0.004 A 
HETATM   13  C12 UNL     1      25.665   5.792  49.791  1.00  0.00     0.042 A 
HETATM   14  C13 UNL     1      25.912   4.486  49.440  1.00  0.00     0.117 A 
HETATM   15  F1  UNL     1      26.989   4.080  48.709  1.00  0.00    -0.206 F 
HETATM   16  C14 UNL     1      25.075   3.459  49.805  1.00  0.00     0.051 A 
ENDBRANCH   9  10
ENDBRANCH   8   9
ENDBRANCH   4   8
BRANCH   1  17
HETATM   17  N1  UNL     1      27.317  -0.295  54.906  1.00  0.00    -0.386 N 
HETATM   18  H6  UNL     1      27.173  -1.151  55.481  1.00  0.00     0.160 HD
BRANCH  17  19
HETATM   19  C3  UNL     1      28.667   0.193  54.804  1.00  0.00     0.146 C 
BRANCH  19  20
HETATM   20  C2  UNL     1      29.528  -0.664  53.961  1.00  0.00    -0.018 C 
HETATM   21  C1  UNL     1      29.231  -1.778  53.300  1.00  0.00     0.008 C 
ENDBRANCH  19  20
ENDBRANCH  17  19
ENDBRANCH   1  17
TORSDOF 6
ENDMDL
MODEL 5
REMARK VINA RESULT:      -7.2      4.547      6.992
REMARK  6 active torsions:
REMARK  status: ('A' for Active; 'I' for Inactive)
REMARK    1  A    between atoms: C2_2  and  C3_3 
REMARK    2  A    between atoms: C3_3  and  N1_4 
REMARK    3  A    between atoms: N1_4  and  C4_5 
REMARK    4  A    between atoms: C7_8  and  O1_9 
REMARK    5  A    between atoms: O1_9  and  C8_10 
REMARK    6  A    between atoms: C8_10  and  C9_11 
ROOT
HETATM    1  C4  UNL     1      26.187  -0.204  52.863  1.00  0.00     0.029 A 
HETATM    2  C5  UNL     1      27.081   0.495  52.081  1.00  0.00     0.032 A 
HETATM    3  C6  UNL     1      26.638   1.653  51.496  1.00  0.00     0.041 A 
HETATM    4  C7  UNL     1      25.372   2.166  51.631  1.00  0.00     0.091 A 
HETATM    5  C15 UNL     1      24.492   1.418  52.440  1.00  0.00     0.069 A 
HETATM    6 CL1  UNL     1      22.799   1.788  52.825  1.00  0.00    -0.081 Cl
HETATM    7  C16 UNL     1      24.892   0.226  53.063  1.00  0.00     0.056 A 
ENDROOT
BRANCH   4   8
HETATM    8  O1  UNL     1      24.675   3.244  51.192  1.00  0.00    -0.345 OA
BRANCH   8   9
HETATM    9  C8  UNL     1      24.531   3.763  49.929  1.00  0.00     0.214 C 
BRANCH   9  10
HETATM   10  C9  UNL     1      25.624   4.599  49.410  1.00  0.00    -0.031 A 
HETATM   11  C10 UNL     1      25.302   5.963  49.361  1.00  0.00     0.009 A 
HETATM   12  C11 UNL     1      26.168   6.941  48.924  1.00  0.00     0.004 A 
HETATM   13  C12 UNL     1      27.436   6.603  48.503  1.00  0.00     0.042 A 
HETATM   14  C13 UNL     1      27.770   5.270  48.546  1.00  0.00     0.117 A 
HETATM   15  F1  UNL     1      28.981   4.772  48.165  1.00  0.00    -0.206 F 
HETATM   16  C14 UNL     1      26.892   4.308  48.984  1.00  0.00     0.051 A 
ENDBRANCH   9  10
ENDBRANCH   8   9
ENDBRANCH   4   8
BRANCH   1  17
HETATM   17  N1  UNL     1      26.658  -1.403  53.464  1.00  0.00    -0.386 N 
HETATM   18  H6  UNL     1      26.519  -1.629  54.470  1.00  0.00     0.160 HD
BRANCH  17  19
HETATM   19  C3  UNL     1      27.367  -2.378  52.677  1.00  0.00     0.146 C 
BRANCH  19  20
HETATM   20  C2  UNL     1      28.813  -2.426  52.983  1.00  0.00    -0.018 C 
HETATM   21  C1  UNL     1      29.580  -1.532  53.597  1.00  0.00     0.008 C 
ENDBRANCH  19  20
ENDBRANCH  17  19
ENDBRANCH   1  17
TORSDOF 6
ENDMDL
MODEL 6
REMARK VINA RESULT:      -7.2      3.919      7.290
REMARK  6 active torsions:
REMARK  status: ('A' for Active; 'I' for Inactive)
REMARK    1  A    between atoms: C2_2  and  C3_3 
REMARK    2  A    between atoms: C3_3  and  N1_4 
REMARK    3  A    between atoms: N1_4  and  C4_5 
REMARK    4  A    between atoms: C7_8  and  O1_9 
REMARK    5  A    between atoms: O1_9  and  C8_10 
REMARK    6  A    between atoms: C8_10  and  C9_11 
ROOT
HETATM    1  C4  UNL     1      27.036   0.606  54.204  1.00  0.00     0.029 A 
HETATM    2  C5  UNL     1      26.804   1.300  53.036  1.00  0.00     0.032 A 
HETATM    3  C6  UNL     1      25.550   1.218  52.490  1.00  0.00     0.041 A 
HETATM    4  C7  UNL     1      24.509   0.496  53.019  1.00  0.00     0.091 A 
HETATM    5  C15 UNL     1      24.791  -0.197  54.214  1.00  0.00     0.069 A 
HETATM    6 CL1  UNL     1      23.688  -1.218  55.159  1.00  0.00    -0.081 Cl
HETATM    7  C16 UNL     1      26.057  -0.149  54.817  1.00  0.00     0.056 A 
ENDROOT
BRANCH   4   8
HETATM    8  O1  UNL     1      23.213   0.238  52.717  1.00  0.00    -0.345 OA
BRANCH   8   9
HETATM    9  C8  UNL     1      22.220   1.063  52.250  1.00  0.00     0.214 C 
BRANCH   9  10
HETATM   10  C9  UNL     1      22.318   1.522  50.856  1.00  0.00    -0.031 A 
HETATM   11  C10 UNL     1      21.479   0.816  49.981  1.00  0.00     0.009 A 
HETATM   12  C11 UNL     1      21.387   1.074  48.631  1.00  0.00     0.004 A 
HETATM   13  C12 UNL     1      22.145   2.076  48.066  1.00  0.00     0.042 A 
HETATM   14  C13 UNL     1      22.973   2.780  48.909  1.00  0.00     0.117 A 
HETATM   15  F1  UNL     1      23.785   3.799  48.509  1.00  0.00    -0.206 F 
HETATM   16  C14 UNL     1      23.052   2.508  50.253  1.00  0.00     0.051 A 
ENDBRANCH   9  10
ENDBRANCH   8   9
ENDBRANCH   4   8
BRANCH   1  17
HETATM   17  N1  UNL     1      28.341   0.699  54.760  1.00  0.00    -0.386 N 
HETATM   18  H6  UNL     1      28.519   0.879  55.769  1.00  0.00     0.160 HD
BRANCH  17  19
HETATM   19  C3  UNL     1      29.499   0.541  53.920  1.00  0.00     0.146 C 
BRANCH  19  20
HETATM   20  C2  UNL     1      29.942  -0.866  53.807  1.00  0.00    -0.018 C 
HETATM   21  C1  UNL     1      29.327  -1.908  53.259  1.00  0.00     0.008 C 
ENDBRANCH  19  20
ENDBRANCH  17  19
ENDBRANCH   1  17
TORSDOF 6
ENDMDL
MODEL 7
REMARK VINA RESULT:      -7.1      3.673      8.164
REMARK  6 active torsions:
REMARK  status: ('A' for Active; 'I' for Inactive)
REMARK    1  A    between atoms: C2_2  and  C3_3 
REMARK    2  A    between atoms: C3_3  and  N1_4 
REMARK    3  A    between atoms: N1_4  and  C4_5 
REMARK    4  A    between atoms: C7_8  and  O1_9 
REMARK    5  A    between atoms: O1_9  and  C8_10 
REMARK    6  A    between atoms: C8_10  and  C9_11 
ROOT
HETATM    1  C4  UNL     1      26.543   0.569  54.301  1.00  0.00     0.029 A 
HETATM    2  C5  UNL     1      26.049  -0.448  55.088  1.00  0.00     0.032 A 
HETATM    3  C6  UNL     1      24.780  -0.893  54.823  1.00  0.00     0.041 A 
HETATM    4  C7  UNL     1      23.966  -0.400  53.833  1.00  0.00     0.091 A 
HETATM    5  C15 UNL     1      24.514   0.640  53.053  1.00  0.00     0.069 A 
HETATM    6 CL1  UNL     1      23.745   1.499  51.703  1.00  0.00    -0.081 Cl
HETATM    7  C16 UNL     1      25.807   1.134  53.280  1.00  0.00     0.056 A 
ENDROOT
BRANCH   4   8
HETATM    8  O1  UNL     1      22.719  -0.629  53.354  1.00  0.00    -0.345 OA
BRANCH   8   9
HETATM    9  C8  UNL     1      21.487  -0.343  53.889  1.00  0.00     0.214 C 
BRANCH   9  10
HETATM   10  C9  UNL     1      20.346  -0.269  52.964  1.00  0.00    -0.031 A 
HETATM   11  C10 UNL     1      19.191  -0.895  53.458  1.00  0.00     0.009 A 
HETATM   12  C11 UNL     1      17.994  -0.944  52.778  1.00  0.00     0.004 A 
HETATM   13  C12 UNL     1      17.880  -0.356  51.538  1.00  0.00     0.042 A 
HETATM   14  C13 UNL     1      19.001   0.264  51.037  1.00  0.00     0.117 A 
HETATM   15  F1  UNL     1      19.054   0.890  49.828  1.00  0.00    -0.206 F 
HETATM   16  C14 UNL     1      20.187   0.302  51.730  1.00  0.00     0.051 A 
ENDBRANCH   9  10
ENDBRANCH   8   9
ENDBRANCH   4   8
BRANCH   1  17
HETATM   17  N1  UNL     1      27.861   1.022  54.585  1.00  0.00    -0.386 N 
HETATM   18  H6  UNL     1      28.139   1.426  55.502  1.00  0.00     0.160 HD
BRANCH  17  19
HETATM   19  C3  UNL     1      28.889   0.932  53.582  1.00  0.00     0.146 C 
BRANCH  19  20
HETATM   20  C2  UNL     1      29.718  -0.286  53.712  1.00  0.00    -0.018 C 
HETATM   21  C1  UNL     1      29.410  -1.553  53.457  1.00  0.00     0.008 C 
ENDBRANCH  19  20
ENDBRANCH  17  19
ENDBRANCH   1  17
TORSDOF 6
ENDMDL
MODEL 8
REMARK VINA RESULT:      -7.0      3.891      7.969
REMARK  6 active torsions:
REMARK  status: ('A' for Active; 'I' for Inactive)
REMARK    1  A    between atoms: C2_2  and  C3_3 
REMARK    2  A    between atoms: C3_3  and  N1_4 
REMARK    3  A    between atoms: N1_4  and  C4_5 
REMARK    4  A    between atoms: C7_8  and  O1_9 
REMARK    5  A    between atoms: O1_9  and  C8_10 
REMARK    6  A    between atoms: C8_10  and  C9_11 
ROOT
HETATM    1  C4  UNL     1      27.456   2.027  53.092  1.00  0.00     0.029 A 
HETATM    2  C5  UNL     1      26.493   1.541  53.950  1.00  0.00     0.032 A 
HETATM    3  C6  UNL     1      25.194   1.548  53.512  1.00  0.00     0.041 A 
HETATM    4  C7  UNL     1      24.783   2.003  52.283  1.00  0.00     0.091 A 
HETATM    5  C15 UNL     1      25.802   2.491  51.439  1.00  0.00     0.069 A 
HETATM    6 CL1  UNL     1      25.626   3.148  49.800  1.00  0.00    -0.081 Cl
HETATM    7  C16 UNL     1      27.148   2.507  51.836  1.00  0.00     0.056 A 
ENDROOT
BRANCH   4   8
HETATM    8  O1  UNL     1      23.619   2.130  51.599  1.00  0.00    -0.345 OA
BRANCH   8   9
HETATM    9  C8  UNL     1      22.797   1.179  51.045  1.00  0.00     0.214 C 
BRANCH   9  10
HETATM   10  C9  UNL     1      21.816   0.531  51.929  1.00  0.00    -0.031 A 
HETATM   11  C10 UNL     1      20.487   0.769  51.549  1.00  0.00     0.009 A 
HETATM   12  C11 UNL     1      19.395   0.257  52.215  1.00  0.00     0.004 A 
HETATM   13  C12 UNL     1      19.574  -0.541  53.323  1.00  0.00     0.042 A 
HETATM   14  C13 UNL     1      20.870  -0.787  53.710  1.00  0.00     0.117 A 
HETATM   15  F1  UNL     1      21.216  -1.555  54.782  1.00  0.00    -0.206 F 
HETATM   16  C14 UNL     1      21.948  -0.267  53.034  1.00  0.00     0.051 A 
ENDBRANCH   9  10
ENDBRANCH   8   9
ENDBRANCH   4   8
BRANCH   1  17
HETATM   17  N1  UNL     1      28.799   2.015  53.559  1.00  0.00    -0.386 N 
HETATM   18  H6  UNL     1      29.472   2.788  53.380  1.00  0.00     0.160 HD
BRANCH  17  19
HETATM   19  C3  UNL     1      29.290   0.895  54.320  1.00  0.00     0.146 C 
BRANCH  19  20
HETATM   20  C2  UNL     1      29.775  -0.212  53.468  1.00  0.00    -0.018 C 
HETATM   21  C1  UNL     1      29.370  -1.476  53.407  1.00  0.00     0.008 C 
ENDBRANCH  19  20
ENDBRANCH  17  19
ENDBRANCH   1  17
TORSDOF 6
ENDMDL
MODEL 9
REMARK VINA RESULT:      -6.9      4.497      7.740
REMARK  6 active torsions:
REMARK  status: ('A' for Active; 'I' for Inactive)
REMARK    1  A    between atoms: C2_2  and  C3_3 
REMARK    2  A    between atoms: C3_3  and  N1_4 
REMARK    3  A    between atoms: N1_4  and  C4_5 
REMARK    4  A    between atoms: C7_8  and  O1_9 
REMARK    5  A    between atoms: O1_9  and  C8_10 
REMARK    6  A    between atoms: C8_10  and  C9_11 
ROOT
HETATM    1  C4  UNL     1      26.537   0.767  54.169  1.00  0.00     0.029 A 
HETATM    2  C5  UNL     1      25.884  -0.417  53.906  1.00  0.00     0.032 A 
HETATM    3  C6  UNL     1      24.636  -0.340  53.343  1.00  0.00     0.041 A 
HETATM    4  C7  UNL     1      23.991   0.830  53.023  1.00  0.00     0.091 A 
HETATM    5  C15 UNL     1      24.697   2.016  53.310  1.00  0.00     0.069 A 
HETATM    6 CL1  UNL     1      24.165   3.686  53.029  1.00  0.00    -0.081 Cl
HETATM    7  C16 UNL     1      25.977   1.996  53.886  1.00  0.00     0.056 A 
ENDROOT
BRANCH   4   8
HETATM    8  O1  UNL     1      22.806   1.204  52.480  1.00  0.00    -0.345 OA
BRANCH   8   9
HETATM    9  C8  UNL     1      22.082   0.661  51.448  1.00  0.00     0.214 C 
BRANCH   9  10
HETATM   10  C9  UNL     1      21.958   1.454  50.215  1.00  0.00    -0.031 A 
HETATM   11  C10 UNL     1      23.115   2.184  49.907  1.00  0.00     0.009 A 
HETATM   12  C11 UNL     1      23.242   2.988  48.796  1.00  0.00     0.004 A 
HETATM   13  C12 UNL     1      22.195   3.110  47.909  1.00  0.00     0.042 A 
HETATM   14  C13 UNL     1      21.052   2.401  48.193  1.00  0.00     0.117 A 
HETATM   15  F1  UNL     1      19.931   2.414  47.419  1.00  0.00    -0.206 F 
HETATM   16  C14 UNL     1      20.943   1.604  49.307  1.00  0.00     0.051 A 
ENDBRANCH   9  10
ENDBRANCH   8   9
ENDBRANCH   4   8
BRANCH   1  17
HETATM   17  N1  UNL     1      27.830   0.673  54.754  1.00  0.00    -0.386 N 
HETATM   18  H6  UNL     1      27.993   0.357  55.731  1.00  0.00     0.160 HD
BRANCH  17  19
HETATM   19  C3  UNL     1      28.997   1.023  53.987  1.00  0.00     0.146 C 
BRANCH  19  20
HETATM   20  C2  UNL     1      29.797  -0.154  53.584  1.00  0.00    -0.018 C 
HETATM   21  C1  UNL     1      29.429  -1.423  53.447  1.00  0.00     0.008 C 
ENDBRANCH  19  20
ENDBRANCH  17  19
ENDBRANCH   1  17
TORSDOF 6
ENDMDL
