MODEL 1
REMARK VINA RESULT:      -8.5      0.000      0.000
REMARK  6 active torsions:
REMARK  status: ('A' for Active; 'I' for Inactive)
REMARK    1  A    between atoms: C2_2  and  C3_3 
REMARK    2  A    between atoms: C3_3  and  C5_5 
REMARK    3  A    between atoms: C13_15  and  N3_16 
REMARK    4  A    between atoms: C13_15  and  C14_17 
REMARK    5  A    between atoms: C14_17  and  C15_18 
REMARK    6  A    between atoms: C16_19  and  N4_20 
ROOT
HETATM    1  C5  UNL     1      23.680  -0.121  53.528  1.00  0.00     0.011 A 
HETATM    2  C6  UNL     1      23.641   0.943  52.720  1.00  0.00     0.034 A 
HETATM    3  C7  UNL     1      24.908   1.533  52.323  1.00  0.00    -0.030 A 
HETATM    4  C8  UNL     1      26.132   1.156  52.659  1.00  0.00     0.010 A 
HETATM    5  C9  UNL     1      27.115   2.006  52.010  1.00  0.00     0.039 C 
HETATM    6  C10 UNL     1      26.532   2.929  51.243  1.00  0.00     0.042 C 
HETATM    7  N1  UNL     1      26.398   4.027  50.338  1.00  0.00    -0.282 N 
HETATM    8  N2  UNL     1      25.053   4.376  50.208  1.00  0.00    -0.190 NA
HETATM    9  C11 UNL     1      24.313   3.649  50.973  1.00  0.00     0.127 C 
HETATM   10  C12 UNL     1      25.166   2.778  51.720  1.00  0.00     0.113 C 
HETATM   11  C13 UNL     1      26.251  -0.014  53.589  1.00  0.00     0.259 A 
HETATM   12  N5  UNL     1      24.971  -0.569  53.918  1.00  0.00    -0.355 N 
HETATM   13  H12 UNL     1      27.286   4.399  49.917  1.00  0.00     0.189 HD
HETATM   14  H23 UNL     1      25.073  -1.416  54.528  1.00  0.00     0.162 HD
ENDROOT
BRANCH  11  15
HETATM   15  N3  UNL     1      26.860   0.480  54.793  1.00  0.00     0.112 N 
HETATM   16  H15 UNL     1      27.882   0.198  54.722  1.00  0.00     0.316 HD
HETATM   17  H16 UNL     1      26.412   0.154  55.660  1.00  0.00     0.316 HD
ENDBRANCH  11  15
BRANCH  11  18
HETATM   18  C14 UNL     1      27.088  -1.121  52.992  1.00  0.00     0.098 C 
BRANCH  18  19
HETATM   19  C15 UNL     1      28.517  -0.992  53.275  1.00  0.00    -0.005 C 
HETATM   20  C16 UNL     1      29.324  -2.037  53.358  1.00  0.00     0.076 C 
BRANCH  20  21
HETATM   21  N4  UNL     1      28.517  -3.210  53.122  1.00  0.00    -0.408 N 
HETATM   22  H21 UNL     1      27.952  -4.095  52.968  1.00  0.00     0.155 HD
HETATM   23  H22 UNL     1      27.936  -4.073  52.956  1.00  0.00     0.155 HD
ENDBRANCH  20  21
ENDBRANCH  18  19
ENDBRANCH  11  18
BRANCH   1  24
HETATM   24  C3  UNL     1      22.463  -0.818  54.008  1.00  0.00     0.031 C 
HETATM   25  C4  UNL     1      22.753  -1.507  55.344  1.00  0.00     0.016 C 
BRANCH  24  26
HETATM   26  C2  UNL     1      21.304   0.141  54.184  1.00  0.00     0.006 C 
HETATM   27  C1  UNL     1      20.081  -0.382  53.476  1.00  0.00     0.006 C 
ENDBRANCH  24  26
ENDBRANCH   1  24
TORSDOF 6
ENDMDL
MODEL 2
REMARK VINA RESULT:      -7.8      2.039      5.205
REMARK  6 active torsions:
REMARK  status: ('A' for Active; 'I' for Inactive)
REMARK    1  A    between atoms: C2_2  and  C3_3 
REMARK    2  A    between atoms: C3_3  and  C5_5 
REMARK    3  A    between atoms: C13_15  and  N3_16 
REMARK    4  A    between atoms: C13_15  and  C14_17 
REMARK    5  A    between atoms: C14_17  and  C15_18 
REMARK    6  A    between atoms: C16_19  and  N4_20 
ROOT
HETATM    1  C5  UNL     1      24.690   2.115  51.246  1.00  0.00     0.011 A 
HETATM    2  C6  UNL     1      23.453   1.736  51.584  1.00  0.00     0.034 A 
HETATM    3  C7  UNL     1      23.317   0.749  52.642  1.00  0.00    -0.030 A 
HETATM    4  C8  UNL     1      24.272   0.152  53.338  1.00  0.00     0.010 A 
HETATM    5  C9  UNL     1      23.691  -0.744  54.322  1.00  0.00     0.039 C 
HETATM    6  C10 UNL     1      22.358  -0.722  54.275  1.00  0.00     0.042 C 
HETATM    7  N1  UNL     1      21.001  -1.027  54.606  1.00  0.00    -0.282 N 
HETATM    8  N2  UNL     1      20.138  -0.426  53.688  1.00  0.00    -0.190 NA
HETATM    9  C11 UNL     1      20.801   0.194  52.772  1.00  0.00     0.127 C 
HETATM   10  C12 UNL     1      22.195  -0.014  53.014  1.00  0.00     0.113 C 
HETATM   11  C13 UNL     1      25.687   0.506  52.992  1.00  0.00     0.259 A 
HETATM   12  N5  UNL     1      25.753   1.505  51.966  1.00  0.00    -0.355 N 
HETATM   13  H12 UNL     1      20.850  -1.631  55.453  1.00  0.00     0.189 HD
HETATM   14  H23 UNL     1      26.747   1.779  51.770  1.00  0.00     0.162 HD
ENDROOT
BRANCH  11  15
HETATM   15  N3  UNL     1      26.302  -0.696  52.502  1.00  0.00     0.112 N 
HETATM   16  H15 UNL     1      27.045  -0.940  53.221  1.00  0.00     0.316 HD
HETATM   17  H16 UNL     1      26.676  -0.623  51.546  1.00  0.00     0.316 HD
ENDBRANCH  11  15
BRANCH  11  18
HETATM   18  C14 UNL     1      26.441   1.033  54.190  1.00  0.00     0.098 C 
BRANCH  18  19
HETATM   19  C15 UNL     1      27.584   0.204  54.572  1.00  0.00    -0.005 C 
HETATM   20  C16 UNL     1      28.814   0.684  54.661  1.00  0.00     0.076 C 
BRANCH  20  21
HETATM   21  N4  UNL     1      28.744   2.085  54.321  1.00  0.00    -0.408 N 
HETATM   22  H21 UNL     1      28.708   3.124  54.108  1.00  0.00     0.155 HD
HETATM   23  H22 UNL     1      28.698   3.110  54.083  1.00  0.00     0.155 HD
ENDBRANCH  20  21
ENDBRANCH  18  19
ENDBRANCH  11  18
BRANCH   1  24
HETATM   24  C3  UNL     1      24.970   3.112  50.186  1.00  0.00     0.031 C 
HETATM   25  C4  UNL     1      24.581   4.511  50.676  1.00  0.00     0.016 C 
BRANCH  24  26
HETATM   26  C2  UNL     1      26.431   3.112  49.791  1.00  0.00     0.006 C 
HETATM   27  C1  UNL     1      26.796   4.421  49.138  1.00  0.00     0.006 C 
ENDBRANCH  24  26
ENDBRANCH   1  24
TORSDOF 6
ENDMDL
MODEL 3
REMARK VINA RESULT:      -7.8      1.702      4.808
REMARK  6 active torsions:
REMARK  status: ('A' for Active; 'I' for Inactive)
REMARK    1  A    between atoms: C2_2  and  C3_3 
REMARK    2  A    between atoms: C3_3  and  C5_5 
REMARK    3  A    between atoms: C13_15  and  N3_16 
REMARK    4  A    between atoms: C13_15  and  C14_17 
REMARK    5  A    between atoms: C14_17  and  C15_18 
REMARK    6  A    between atoms: C16_19  and  N4_20 
ROOT
HETATM    1  C5  UNL     1      23.814  -0.116  53.271  1.00  0.00     0.011 A 
HETATM    2  C6  UNL     1      25.069  -0.460  53.579  1.00  0.00     0.034 A 
HETATM    3  C7  UNL     1      26.124   0.488  53.264  1.00  0.00    -0.030 A 
HETATM    4  C8  UNL     1      26.016   1.680  52.699  1.00  0.00     0.010 A 
HETATM    5  C9  UNL     1      27.320   2.310  52.599  1.00  0.00     0.039 C 
HETATM    6  C10 UNL     1      28.276   1.532  53.111  1.00  0.00     0.042 C 
HETATM    7  N1  UNL     1      29.578   1.105  53.522  1.00  0.00    -0.282 N 
HETATM    8  N2  UNL     1      29.528  -0.218  53.963  1.00  0.00    -0.190 NA
HETATM    9  C11 UNL     1      28.340  -0.702  53.832  1.00  0.00     0.127 C 
HETATM   10  C12 UNL     1      27.517   0.297  53.226  1.00  0.00     0.113 C 
HETATM   11  C13 UNL     1      24.639   2.120  52.298  1.00  0.00     0.259 A 
HETATM   12  N5  UNL     1      23.642   1.157  52.663  1.00  0.00    -0.355 N 
HETATM   13  H12 UNL     1      30.351   1.812  53.441  1.00  0.00     0.189 HD
HETATM   14  H23 UNL     1      22.680   1.500  52.423  1.00  0.00     0.162 HD
ENDROOT
BRANCH  11  15
HETATM   15  N3  UNL     1      24.650   2.251  50.867  1.00  0.00     0.112 N 
HETATM   16  H15 UNL     1      24.793   3.287  50.685  1.00  0.00     0.316 HD
HETATM   17  H16 UNL     1      23.816   1.871  50.400  1.00  0.00     0.316 HD
ENDBRANCH  11  15
BRANCH  11  18
HETATM   18  C14 UNL     1      24.261   3.433  52.944  1.00  0.00     0.098 C 
BRANCH  18  19
HETATM   19  C15 UNL     1      22.942   3.921  52.545  1.00  0.00    -0.005 C 
HETATM   20  C16 UNL     1      22.728   5.173  52.173  1.00  0.00     0.076 C 
BRANCH  20  21
HETATM   21  N4  UNL     1      23.996   5.857  52.253  1.00  0.00    -0.408 N 
HETATM   22  H21 UNL     1      24.947   6.328  52.293  1.00  0.00     0.155 HD
HETATM   23  H22 UNL     1      24.927   6.348  52.305  1.00  0.00     0.155 HD
ENDBRANCH  20  21
ENDBRANCH  18  19
ENDBRANCH  11  18
BRANCH   1  24
HETATM   24  C3  UNL     1      22.647  -0.989  53.538  1.00  0.00     0.031 C 
HETATM   25  C4  UNL     1      22.549  -1.280  55.039  1.00  0.00     0.016 C 
BRANCH  24  26
HETATM   26  C2  UNL     1      21.355  -0.354  53.069  1.00  0.00     0.006 C 
HETATM   27  C1  UNL     1      20.609   0.236  54.238  1.00  0.00     0.006 C 
ENDBRANCH  24  26
ENDBRANCH   1  24
TORSDOF 6
ENDMDL
MODEL 4
REMARK VINA RESULT:      -7.8      1.827      5.796
REMARK  6 active torsions:
REMARK  status: ('A' for Active; 'I' for Inactive)
REMARK    1  A    between atoms: C2_2  and  C3_3 
REMARK    2  A    between atoms: C3_3  and  C5_5 
REMARK    3  A    between atoms: C13_15  and  N3_16 
REMARK    4  A    between atoms: C13_15  and  C14_17 
REMARK    5  A    between atoms: C14_17  and  C15_18 
REMARK    6  A    between atoms: C16_19  and  N4_20 
ROOT
HETATM    1  C5  UNL     1      26.370   0.353  53.296  1.00  0.00     0.011 A 
HETATM    2  C6  UNL     1      25.347  -0.402  53.709  1.00  0.00     0.034 A 
HETATM    3  C7  UNL     1      24.008   0.144  53.569  1.00  0.00    -0.030 A 
HETATM    4  C8  UNL     1      23.646   1.319  53.076  1.00  0.00     0.010 A 
HETATM    5  C9  UNL     1      22.200   1.447  53.092  1.00  0.00     0.039 C 
HETATM    6  C10 UNL     1      21.619   0.351  53.584  1.00  0.00     0.042 C 
HETATM    7  N1  UNL     1      20.585  -0.544  54.000  1.00  0.00    -0.282 N 
HETATM    8  N2  UNL     1      21.143  -1.663  54.619  1.00  0.00    -0.190 NA
HETATM    9  C11 UNL     1      22.426  -1.559  54.687  1.00  0.00     0.127 C 
HETATM   10  C12 UNL     1      22.799  -0.291  54.142  1.00  0.00     0.113 C 
HETATM   11  C13 UNL     1      24.745   2.232  52.621  1.00  0.00     0.259 A 
HETATM   12  N5  UNL     1      26.036   1.624  52.757  1.00  0.00    -0.355 N 
HETATM   13  H12 UNL     1      19.598  -0.249  53.793  1.00  0.00     0.189 HD
HETATM   14  H23 UNL     1      26.790   2.254  52.388  1.00  0.00     0.162 HD
ENDROOT
BRANCH  11  15
HETATM   15  N3  UNL     1      24.692   3.392  53.468  1.00  0.00     0.112 N 
HETATM   16  H15 UNL     1      24.263   4.155  52.867  1.00  0.00     0.316 HD
HETATM   17  H16 UNL     1      25.597   3.661  53.876  1.00  0.00     0.316 HD
ENDBRANCH  11  15
BRANCH  11  18
HETATM   18  C14 UNL     1      24.578   2.630  51.174  1.00  0.00     0.098 C 
BRANCH  18  19
HETATM   19  C15 UNL     1      25.828   2.607  50.414  1.00  0.00    -0.005 C 
HETATM   20  C16 UNL     1      26.435   3.710  50.007  1.00  0.00     0.076 C 
BRANCH  20  21
HETATM   21  N4  UNL     1      25.633   4.822  50.458  1.00  0.00    -0.408 N 
HETATM   22  H21 UNL     1      25.071   5.665  50.776  1.00  0.00     0.155 HD
HETATM   23  H22 UNL     1      25.055   5.641  50.783  1.00  0.00     0.155 HD
ENDBRANCH  20  21
ENDBRANCH  18  19
ENDBRANCH  11  18
BRANCH   1  24
HETATM   24  C3  UNL     1      27.784  -0.083  53.383  1.00  0.00     0.031 C 
HETATM   25  C4  UNL     1      28.310   0.143  54.803  1.00  0.00     0.016 C 
BRANCH  24  26
HETATM   26  C2  UNL     1      27.939  -1.546  53.022  1.00  0.00     0.006 C 
HETATM   27  C1  UNL     1      29.349  -2.004  53.297  1.00  0.00     0.006 C 
ENDBRANCH  24  26
ENDBRANCH   1  24
TORSDOF 6
ENDMDL
MODEL 5
REMARK VINA RESULT:      -7.4      2.668      6.610
REMARK  6 active torsions:
REMARK  status: ('A' for Active; 'I' for Inactive)
REMARK    1  A    between atoms: C2_2  and  C3_3 
REMARK    2  A    between atoms: C3_3  and  C5_5 
REMARK    3  A    between atoms: C13_15  and  N3_16 
REMARK    4  A    between atoms: C13_15  and  C14_17 
REMARK    5  A    between atoms: C14_17  and  C15_18 
REMARK    6  A    between atoms: C16_19  and  N4_20 
ROOT
HETATM    1  C5  UNL     1      24.883   1.698  51.881  1.00  0.00     0.011 A 
HETATM    2  C6  UNL     1      24.370   0.726  52.642  1.00  0.00     0.034 A 
HETATM    3  C7  UNL     1      22.941   0.756  52.899  1.00  0.00    -0.030 A 
HETATM    4  C8  UNL     1      22.048   1.637  52.476  1.00  0.00     0.010 A 
HETATM    5  C9  UNL     1      20.721   1.272  52.941  1.00  0.00     0.039 C 
HETATM    6  C10 UNL     1      20.749   0.146  53.657  1.00  0.00     0.042 C 
HETATM    7  N1  UNL     1      20.279  -0.958  54.433  1.00  0.00    -0.282 N 
HETATM    8  N2  UNL     1      21.360  -1.701  54.911  1.00  0.00    -0.190 NA
HETATM    9  C11 UNL     1      22.478  -1.160  54.562  1.00  0.00     0.127 C 
HETATM   10  C12 UNL     1      22.187   0.046  53.852  1.00  0.00     0.113 C 
HETATM   11  C13 UNL     1      22.557   2.774  51.642  1.00  0.00     0.259 A 
HETATM   12  N5  UNL     1      23.966   2.669  51.399  1.00  0.00    -0.355 N 
HETATM   13  H12 UNL     1      19.237  -1.054  54.531  1.00  0.00     0.189 HD
HETATM   14  H23 UNL     1      24.299   3.443  50.773  1.00  0.00     0.162 HD
ENDROOT
BRANCH  11  15
HETATM   15  N3  UNL     1      22.309   3.976  52.390  1.00  0.00     0.112 N 
HETATM   16  H15 UNL     1      23.173   4.576  52.244  1.00  0.00     0.316 HD
HETATM   17  H16 UNL     1      22.090   3.821  53.382  1.00  0.00     0.316 HD
ENDBRANCH  11  15
BRANCH  11  18
HETATM   18  C14 UNL     1      21.867   2.837  50.300  1.00  0.00     0.098 C 
BRANCH  18  19
HETATM   19  C15 UNL     1      22.296   1.791  49.372  1.00  0.00    -0.005 C 
HETATM   20  C16 UNL     1      21.439   1.027  48.714  1.00  0.00     0.076 C 
BRANCH  20  21
HETATM   21  N4  UNL     1      20.115   1.449  49.105  1.00  0.00    -0.408 N 
HETATM   22  H21 UNL     1      19.126   1.723  49.379  1.00  0.00     0.155 HD
HETATM   23  H22 UNL     1      19.144   1.746  49.387  1.00  0.00     0.155 HD
ENDBRANCH  20  21
ENDBRANCH  18  19
ENDBRANCH  11  18
BRANCH   1  24
HETATM   24  C3  UNL     1      26.324   1.784  51.542  1.00  0.00     0.031 C 
HETATM   25  C4  UNL     1      26.538   2.844  50.457  1.00  0.00     0.016 C 
BRANCH  24  26
HETATM   26  C2  UNL     1      27.163   2.136  52.753  1.00  0.00     0.006 C 
HETATM   27  C1  UNL     1      28.074   0.989  53.108  1.00  0.00     0.006 C 
ENDBRANCH  24  26
ENDBRANCH   1  24
TORSDOF 6
ENDMDL
MODEL 6
REMARK VINA RESULT:      -7.2      1.969      5.984
REMARK  6 active torsions:
REMARK  status: ('A' for Active; 'I' for Inactive)
REMARK    1  A    between atoms: C2_2  and  C3_3 
REMARK    2  A    between atoms: C3_3  and  C5_5 
REMARK    3  A    between atoms: C13_15  and  N3_16 
REMARK    4  A    between atoms: C13_15  and  C14_17 
REMARK    5  A    between atoms: C14_17  and  C15_18 
REMARK    6  A    between atoms: C16_19  and  N4_20 
ROOT
HETATM    1  C5  UNL     1      25.725   2.989  50.521  1.00  0.00     0.011 A 
HETATM    2  C6  UNL     1      26.781   2.481  51.165  1.00  0.00     0.034 A 
HETATM    3  C7  UNL     1      26.527   1.718  52.375  1.00  0.00    -0.030 A 
HETATM    4  C8  UNL     1      25.365   1.447  52.948  1.00  0.00     0.010 A 
HETATM    5  C9  UNL     1      25.566   0.625  54.128  1.00  0.00     0.039 C 
HETATM    6  C10 UNL     1      26.857   0.350  54.316  1.00  0.00     0.042 C 
HETATM    7  N1  UNL     1      28.037  -0.200  54.909  1.00  0.00    -0.282 N 
HETATM    8  N2  UNL     1      29.171   0.299  54.266  1.00  0.00    -0.190 NA
HETATM    9  C11 UNL     1      28.845   1.149  53.353  1.00  0.00     0.127 C 
HETATM   10  C12 UNL     1      27.424   1.306  53.378  1.00  0.00     0.113 C 
HETATM   11  C13 UNL     1      24.138   2.012  52.296  1.00  0.00     0.259 A 
HETATM   12  N5  UNL     1      24.452   2.726  51.093  1.00  0.00    -0.355 N 
HETATM   13  H12 UNL     1      27.893  -0.870  55.705  1.00  0.00     0.189 HD
HETATM   14  H23 UNL     1      23.581   3.071  50.622  1.00  0.00     0.162 HD
ENDROOT
BRANCH  11  15
HETATM   15  N3  UNL     1      23.559   2.930  53.237  1.00  0.00     0.112 N 
HETATM   16  H15 UNL     1      23.435   3.838  52.698  1.00  0.00     0.316 HD
HETATM   17  H16 UNL     1      24.099   3.048  54.104  1.00  0.00     0.316 HD
ENDBRANCH  11  15
BRANCH  11  18
HETATM   18  C14 UNL     1      23.147   0.930  51.938  1.00  0.00     0.098 C 
BRANCH  18  19
HETATM   19  C15 UNL     1      21.918   0.977  52.731  1.00  0.00    -0.005 C 
HETATM   20  C16 UNL     1      21.492  -0.052  53.445  1.00  0.00     0.076 C 
BRANCH  20  21
HETATM   21  N4  UNL     1      22.448  -1.117  53.261  1.00  0.00    -0.408 N 
HETATM   22  H21 UNL     1      23.163  -1.883  53.089  1.00  0.00     0.155 HD
HETATM   23  H22 UNL     1      23.151  -1.889  53.116  1.00  0.00     0.155 HD
ENDBRANCH  20  21
ENDBRANCH  18  19
ENDBRANCH  11  18
BRANCH   1  24
HETATM   24  C3  UNL     1      25.844   3.786  49.276  1.00  0.00     0.031 C 
HETATM   25  C4  UNL     1      24.844   4.946  49.307  1.00  0.00     0.016 C 
BRANCH  24  26
HETATM   26  C2  UNL     1      27.242   4.339  49.098  1.00  0.00     0.006 C 
HETATM   27  C1  UNL     1      27.182   5.748  48.566  1.00  0.00     0.006 C 
ENDBRANCH  24  26
ENDBRANCH   1  24
TORSDOF 6
ENDMDL
MODEL 7
REMARK VINA RESULT:      -7.2      2.185      5.391
REMARK  6 active torsions:
REMARK  status: ('A' for Active; 'I' for Inactive)
REMARK    1  A    between atoms: C2_2  and  C3_3 
REMARK    2  A    between atoms: C3_3  and  C5_5 
REMARK    3  A    between atoms: C13_15  and  N3_16 
REMARK    4  A    between atoms: C13_15  and  C14_17 
REMARK    5  A    between atoms: C14_17  and  C15_18 
REMARK    6  A    between atoms: C16_19  and  N4_20 
ROOT
HETATM    1  C5  UNL     1      21.669   0.801  52.137  1.00  0.00     0.011 A 
HETATM    2  C6  UNL     1      22.577   0.225  52.931  1.00  0.00     0.034 A 
HETATM    3  C7  UNL     1      23.844   0.913  53.114  1.00  0.00    -0.030 A 
HETATM    4  C8  UNL     1      24.238   2.063  52.590  1.00  0.00     0.010 A 
HETATM    5  C9  UNL     1      25.568   2.401  53.063  1.00  0.00     0.039 C 
HETATM    6  C10 UNL     1      26.035   1.478  53.905  1.00  0.00     0.042 C 
HETATM    7  N1  UNL     1      26.925   0.818  54.810  1.00  0.00    -0.282 N 
HETATM    8  N2  UNL     1      26.415  -0.435  55.151  1.00  0.00    -0.190 NA
HETATM    9  C11 UNL     1      25.314  -0.671  54.522  1.00  0.00     0.127 C 
HETATM   10  C12 UNL     1      25.052   0.436  53.656  1.00  0.00     0.113 C 
HETATM   11  C13 UNL     1      23.281   2.751  51.663  1.00  0.00     0.259 A 
HETATM   12  N5  UNL     1      22.041   2.039  51.550  1.00  0.00    -0.355 N 
HETATM   13  H12 UNL     1      27.794   1.343  55.080  1.00  0.00     0.189 HD
HETATM   14  H23 UNL     1      21.363   2.558  50.939  1.00  0.00     0.162 HD
ENDROOT
BRANCH  11  15
HETATM   15  N3  UNL     1      23.910   2.785  50.372  1.00  0.00     0.112 N 
HETATM   16  H15 UNL     1      23.111   2.748  49.674  1.00  0.00     0.316 HD
HETATM   17  H16 UNL     1      24.610   2.047  50.222  1.00  0.00     0.316 HD
ENDBRANCH  11  15
BRANCH  11  18
HETATM   18  C14 UNL     1      22.960   4.152  52.129  1.00  0.00     0.098 C 
BRANCH  18  19
HETATM   19  C15 UNL     1      23.009   5.149  51.061  1.00  0.00    -0.005 C 
HETATM   20  C16 UNL     1      23.658   6.296  51.185  1.00  0.00     0.076 C 
BRANCH  20  21
HETATM   21  N4  UNL     1      24.242   6.306  52.505  1.00  0.00    -0.408 N 
HETATM   22  H21 UNL     1      24.669   6.273  53.476  1.00  0.00     0.155 HD
HETATM   23  H22 UNL     1      24.668   6.302  53.468  1.00  0.00     0.155 HD
ENDBRANCH  20  21
ENDBRANCH  18  19
ENDBRANCH  11  18
BRANCH   1  24
HETATM   24  C3  UNL     1      20.339   0.205  51.866  1.00  0.00     0.031 C 
HETATM   25  C4  UNL     1      19.741  -0.341  53.166  1.00  0.00     0.016 C 
BRANCH  24  26
HETATM   26  C2  UNL     1      19.385   1.218  51.267  1.00  0.00     0.006 C 
HETATM   27  C1  UNL     1      18.358   0.525  50.408  1.00  0.00     0.006 C 
ENDBRANCH  24  26
ENDBRANCH   1  24
TORSDOF 6
ENDMDL
MODEL 8
REMARK VINA RESULT:      -6.8      8.504     10.841
REMARK  6 active torsions:
REMARK  status: ('A' for Active; 'I' for Inactive)
REMARK    1  A    between atoms: C2_2  and  C3_3 
REMARK    2  A    between atoms: C3_3  and  C5_5 
REMARK    3  A    between atoms: C13_15  and  N3_16 
REMARK    4  A    between atoms: C13_15  and  C14_17 
REMARK    5  A    between atoms: C14_17  and  C15_18 
REMARK    6  A    between atoms: C16_19  and  N4_20 
ROOT
HETATM    1  C5  UNL     1      31.686   5.415  47.852  1.00  0.00     0.011 A 
HETATM    2  C6  UNL     1      32.107   5.988  46.720  1.00  0.00     0.034 A 
HETATM    3  C7  UNL     1      33.214   5.361  46.019  1.00  0.00    -0.030 A 
HETATM    4  C8  UNL     1      33.887   4.271  46.353  1.00  0.00     0.010 A 
HETATM    5  C9  UNL     1      34.897   3.977  45.353  1.00  0.00     0.039 C 
HETATM    6  C10 UNL     1      34.874   4.869  44.361  1.00  0.00     0.042 C 
HETATM    7  N1  UNL     1      35.223   5.517  43.135  1.00  0.00    -0.282 N 
HETATM    8  N2  UNL     1      34.519   6.716  43.012  1.00  0.00    -0.190 NA
HETATM    9  C11 UNL     1      33.791   6.930  44.055  1.00  0.00     0.127 C 
HETATM   10  C12 UNL     1      34.021   5.868  44.984  1.00  0.00     0.113 C 
HETATM   11  C13 UNL     1      33.489   3.592  47.630  1.00  0.00     0.259 A 
HETATM   12  N5  UNL     1      32.374   4.239  48.255  1.00  0.00    -0.355 N 
HETATM   13  H12 UNL     1      35.924   5.025  42.527  1.00  0.00     0.189 HD
HETATM   14  H23 UNL     1      32.074   3.725  49.119  1.00  0.00     0.162 HD
ENDROOT
BRANCH  11  15
HETATM   15  N3  UNL     1      34.621   3.676  48.510  1.00  0.00     0.112 N 
HETATM   16  H15 UNL     1      35.168   2.781  48.345  1.00  0.00     0.316 HD
HETATM   17  H16 UNL     1      34.380   3.824  49.499  1.00  0.00     0.316 HD
ENDBRANCH  11  15
BRANCH  11  18
HETATM   18  C14 UNL     1      33.108   2.148  47.400  1.00  0.00     0.098 C 
BRANCH  18  19
HETATM   19  C15 UNL     1      31.928   1.984  46.552  1.00  0.00    -0.005 C 
HETATM   20  C16 UNL     1      31.374   0.804  46.323  1.00  0.00     0.076 C 
BRANCH  20  21
HETATM   21  N4  UNL     1      32.151  -0.173  47.049  1.00  0.00    -0.408 N 
HETATM   22  H21 UNL     1      32.756  -0.867  47.577  1.00  0.00     0.155 HD
HETATM   23  H22 UNL     1      32.727  -0.878  47.578  1.00  0.00     0.155 HD
ENDBRANCH  20  21
ENDBRANCH  18  19
ENDBRANCH  11  18
BRANCH   1  24
HETATM   24  C3  UNL     1      30.567   5.952  48.662  1.00  0.00     0.031 C 
HETATM   25  C4  UNL     1      30.590   7.483  48.628  1.00  0.00     0.016 C 
BRANCH  24  26
HETATM   26  C2  UNL     1      29.226   5.463  48.156  1.00  0.00     0.006 C 
HETATM   27  C1  UNL     1      28.242   6.604  48.099  1.00  0.00     0.006 C 
ENDBRANCH  24  26
ENDBRANCH   1  24
TORSDOF 6
ENDMDL
MODEL 9
REMARK VINA RESULT:      -6.5      2.721      7.167
REMARK  6 active torsions:
REMARK  status: ('A' for Active; 'I' for Inactive)
REMARK    1  A    between atoms: C2_2  and  C3_3 
REMARK    2  A    between atoms: C3_3  and  C5_5 
REMARK    3  A    between atoms: C13_15  and  N3_16 
REMARK    4  A    between atoms: C13_15  and  C14_17 
REMARK    5  A    between atoms: C14_17  and  C15_18 
REMARK    6  A    between atoms: C16_19  and  N4_20 
ROOT
HETATM    1  C5  UNL     1      24.975   4.604  49.989  1.00  0.00     0.011 A 
HETATM    2  C6  UNL     1      25.557   3.427  50.240  1.00  0.00     0.034 A 
HETATM    3  C7  UNL     1      25.122   2.699  51.420  1.00  0.00    -0.030 A 
HETATM    4  C8  UNL     1      24.203   3.047  52.308  1.00  0.00     0.010 A 
HETATM    5  C9  UNL     1      24.059   2.009  53.313  1.00  0.00     0.039 C 
HETATM    6  C10 UNL     1      24.874   0.981  53.073  1.00  0.00     0.042 C 
HETATM    7  N1  UNL     1      25.511  -0.289  53.235  1.00  0.00    -0.282 N 
HETATM    8  N2  UNL     1      26.541  -0.429  52.304  1.00  0.00    -0.190 NA
HETATM    9  C11 UNL     1      26.664   0.639  51.592  1.00  0.00     0.127 C 
HETATM   10  C12 UNL     1      25.720   1.602  52.067  1.00  0.00     0.113 C 
HETATM   11  C13 UNL     1      23.529   4.371  52.106  1.00  0.00     0.259 A 
HETATM   12  N5  UNL     1      23.980   5.023  50.911  1.00  0.00    -0.355 N 
HETATM   13  H12 UNL     1      25.133  -0.910  53.994  1.00  0.00     0.189 HD
HETATM   14  H23 UNL     1      23.463   5.924  50.756  1.00  0.00     0.162 HD
ENDROOT
BRANCH  11  15
HETATM   15  N3  UNL     1      23.881   5.187  53.235  1.00  0.00     0.112 N 
HETATM   16  H15 UNL     1      24.919   5.020  53.385  1.00  0.00     0.316 HD
HETATM   17  H16 UNL     1      23.319   5.011  54.078  1.00  0.00     0.316 HD
ENDBRANCH  11  15
BRANCH  11  18
HETATM   18  C14 UNL     1      22.029   4.226  52.008  1.00  0.00     0.098 C 
BRANCH  18  19
HETATM   19  C15 UNL     1      21.447   4.932  50.867  1.00  0.00    -0.005 C 
HETATM   20  C16 UNL     1      20.170   4.824  50.538  1.00  0.00     0.076 C 
BRANCH  20  21
HETATM   21  N4  UNL     1      19.565   3.928  51.494  1.00  0.00    -0.408 N 
HETATM   22  H21 UNL     1      19.144   3.285  52.226  1.00  0.00     0.155 HD
HETATM   23  H22 UNL     1      19.129   3.278  52.200  1.00  0.00     0.155 HD
ENDBRANCH  20  21
ENDBRANCH  18  19
ENDBRANCH  11  18
BRANCH   1  24
HETATM   24  C3  UNL     1      25.326   5.447  48.821  1.00  0.00     0.031 C 
HETATM   25  C4  UNL     1      24.130   6.325  48.438  1.00  0.00     0.016 C 
BRANCH  24  26
HETATM   26  C2  UNL     1      26.521   6.331  49.109  1.00  0.00     0.006 C 
HETATM   27  C1  UNL     1      27.744   5.801  48.405  1.00  0.00     0.006 C 
ENDBRANCH  24  26
ENDBRANCH   1  24
TORSDOF 6
ENDMDL
