MODEL 1
REMARK VINA RESULT:      -7.7      0.000      0.000
REMARK  7 active torsions:
REMARK  status: ('A' for Active; 'I' for Inactive)
REMARK    1  A    between atoms: C4_4  and  C5_5 
REMARK    2  A    between atoms: C5_5  and  N1_6 
REMARK    3  A    between atoms: N1_6  and  C6_7 
REMARK    4  A    between atoms: C12_16  and  C13_17 
REMARK    5  A    between atoms: C13_17  and  C17_21 
REMARK    6  A    between atoms: C14_18  and  C15_19 
REMARK    7  A    between atoms: C18_22  and  N5_23 
ROOT
HETATM    1  C1  UNL     1      28.179   5.091  48.548  1.00  0.00     0.027 C 
HETATM    2  C2  UNL     1      27.065   5.541  48.704  1.00  0.00    -0.026 C 
HETATM    3  C3  UNL     1      25.760   6.071  48.871  1.00  0.00    -0.014 C 
HETATM    4  C4  UNL     1      24.643   6.519  49.000  1.00  0.00    -0.073 C 
ENDROOT
BRANCH   4   5
HETATM    5  C5  UNL     1      23.271   7.083  49.144  1.00  0.00     0.216 C 
BRANCH   5   6
HETATM    6  N1  UNL     1      22.671   6.311  50.212  1.00  0.00    -0.364 N 
HETATM    7  H4  UNL     1      22.799   6.964  51.000  1.00  0.00     0.162 HD
BRANCH   6   8
HETATM    8  C6  UNL     1      22.174   5.060  49.820  1.00  0.00     0.138 A 
HETATM    9  N2  UNL     1      21.364   4.945  48.757  1.00  0.00    -0.224 NA
HETATM   10  C7  UNL     1      20.842   3.793  48.324  1.00  0.00     0.235 A 
HETATM   11  N3  UNL     1      21.119   2.650  48.963  1.00  0.00    -0.241 NA
HETATM   12  C8  UNL     1      21.912   2.638  50.033  1.00  0.00     0.072 A 
HETATM   13  C9  UNL     1      22.419   3.853  50.430  1.00  0.00     0.036 A 
HETATM   14  C21 UNL     1      21.964   1.368  50.400  1.00  0.00     0.035 C 
HETATM   15  C10 UNL     1      23.223   4.120  51.425  1.00  0.00     0.010 C 
HETATM   16  C11 UNL     1      24.014   3.675  52.575  1.00  0.00     0.148 C 
HETATM   17  N4  UNL     1      23.651   2.336  53.040  1.00  0.00    -0.386 N 
HETATM   18  C12 UNL     1      23.378   1.024  52.599  1.00  0.00     0.041 C 
HETATM   19  H9  UNL     1      23.541   2.321  54.109  1.00  0.00     0.160 HD
HETATM   20  C20 UNL     1      22.679   0.752  51.507  1.00  0.00     0.032 C 
BRANCH  18  21
HETATM   21  C13 UNL     1      23.861  -0.051  53.439  1.00  0.00     0.026 C 
HETATM   22  C14 UNL     1      23.227  -0.811  54.302  1.00  0.00     0.016 C 
BRANCH  22  23
HETATM   23  C15 UNL     1      21.904  -0.987  54.827  1.00  0.00    -0.009 C 
HETATM   24  C16 UNL     1      20.863  -1.409  54.139  1.00  0.00     0.011 C 
ENDBRANCH  22  23
BRANCH  21  25
HETATM   25  C17 UNL     1      25.291  -0.403  53.304  1.00  0.00     0.105 A 
HETATM   26  C18 UNL     1      26.329   0.075  53.984  1.00  0.00     0.062 A 
HETATM   27  C19 UNL     1      27.247  -0.785  53.247  1.00  0.00     0.235 A 
HETATM   28  O1  UNL     1      26.130  -1.225  52.575  1.00  0.00    -0.342 OA
BRANCH  26  29
HETATM   29  N5  UNL     1      26.756   0.961  54.994  1.00  0.00    -0.398 N 
HETATM   30  H14 UNL     1      27.784   0.944  55.252  1.00  0.00     0.156 HD
HETATM   31  H15 UNL     1      26.060   1.599  55.451  1.00  0.00     0.156 HD
ENDBRANCH  26  29
ENDBRANCH  21  25
ENDBRANCH  18  21
ENDBRANCH   6   8
ENDBRANCH   5   6
ENDBRANCH   4   5
TORSDOF 7
ENDMDL
MODEL 2
REMARK VINA RESULT:      -7.5      3.038      7.614
REMARK  7 active torsions:
REMARK  status: ('A' for Active; 'I' for Inactive)
REMARK    1  A    between atoms: C4_4  and  C5_5 
REMARK    2  A    between atoms: C5_5  and  N1_6 
REMARK    3  A    between atoms: N1_6  and  C6_7 
REMARK    4  A    between atoms: C12_16  and  C13_17 
REMARK    5  A    between atoms: C13_17  and  C17_21 
REMARK    6  A    between atoms: C14_18  and  C15_19 
REMARK    7  A    between atoms: C18_22  and  N5_23 
ROOT
HETATM    1  C1  UNL     1      29.246  -0.473  54.076  1.00  0.00     0.027 C 
HETATM    2  C2  UNL     1      28.089  -0.185  53.861  1.00  0.00    -0.026 C 
HETATM    3  C3  UNL     1      26.732   0.140  53.601  1.00  0.00    -0.014 C 
HETATM    4  C4  UNL     1      25.572   0.403  53.380  1.00  0.00    -0.073 C 
ENDROOT
BRANCH   4   5
HETATM    5  C5  UNL     1      24.144   0.716  53.090  1.00  0.00     0.216 C 
BRANCH   5   6
HETATM    6  N1  UNL     1      24.161   1.292  51.762  1.00  0.00    -0.364 N 
HETATM    7  H4  UNL     1      24.440   0.466  51.211  1.00  0.00     0.162 HD
BRANCH   6   8
HETATM    8  C6  UNL     1      23.819   2.651  51.711  1.00  0.00     0.138 A 
HETATM    9  N2  UNL     1      22.725   3.108  52.339  1.00  0.00    -0.224 NA
HETATM   10  C7  UNL     1      22.326   4.385  52.332  1.00  0.00     0.235 A 
HETATM   11  N3  UNL     1      23.035   5.304  51.668  1.00  0.00    -0.241 NA
HETATM   12  C8  UNL     1      24.141   4.970  51.004  1.00  0.00     0.072 A 
HETATM   13  C9  UNL     1      24.501   3.643  51.048  1.00  0.00     0.036 A 
HETATM   14  C21 UNL     1      24.573   6.104  50.476  1.00  0.00     0.035 C 
HETATM   15  C10 UNL     1      25.534   3.056  50.505  1.00  0.00     0.010 C 
HETATM   16  C11 UNL     1      26.753   3.121  49.696  1.00  0.00     0.148 C 
HETATM   17  N4  UNL     1      26.855   4.349  48.906  1.00  0.00    -0.386 N 
HETATM   18  C12 UNL     1      26.712   5.750  48.976  1.00  0.00     0.041 C 
HETATM   19  H9  UNL     1      27.136   4.127  47.892  1.00  0.00     0.160 HD
HETATM   20  C20 UNL     1      25.742   6.353  49.646  1.00  0.00     0.032 C 
BRANCH  18  21
HETATM   21  C13 UNL     1      27.668   6.533  48.220  1.00  0.00     0.026 C 
HETATM   22  C14 UNL     1      27.503   7.623  47.507  1.00  0.00     0.016 C 
BRANCH  22  23
HETATM   23  C15 UNL     1      26.454   8.522  47.124  1.00  0.00    -0.009 C 
HETATM   24  C16 UNL     1      25.474   8.237  46.291  1.00  0.00     0.011 C 
ENDBRANCH  22  23
BRANCH  21  25
HETATM   25  C17 UNL     1      29.075   6.082  48.266  1.00  0.00     0.105 A 
HETATM   26  C18 UNL     1      30.134   6.720  48.756  1.00  0.00     0.062 A 
HETATM   27  C19 UNL     1      31.005   5.603  48.411  1.00  0.00     0.235 A 
HETATM   28  O1  UNL     1      29.870   5.007  47.913  1.00  0.00    -0.342 OA
BRANCH  26  29
HETATM   29  N5  UNL     1      30.604   7.891  49.386  1.00  0.00    -0.398 N 
HETATM   30  H14 UNL     1      29.970   8.343  50.105  1.00  0.00     0.156 HD
HETATM   31  H15 UNL     1      31.547   8.272  49.132  1.00  0.00     0.156 HD
ENDBRANCH  26  29
ENDBRANCH  21  25
ENDBRANCH  18  21
ENDBRANCH   6   8
ENDBRANCH   5   6
ENDBRANCH   4   5
TORSDOF 7
ENDMDL
MODEL 3
REMARK VINA RESULT:      -7.2      2.534      3.418
REMARK  7 active torsions:
REMARK  status: ('A' for Active; 'I' for Inactive)
REMARK    1  A    between atoms: C4_4  and  C5_5 
REMARK    2  A    between atoms: C5_5  and  N1_6 
REMARK    3  A    between atoms: N1_6  and  C6_7 
REMARK    4  A    between atoms: C12_16  and  C13_17 
REMARK    5  A    between atoms: C13_17  and  C17_21 
REMARK    6  A    between atoms: C14_18  and  C15_19 
REMARK    7  A    between atoms: C18_22  and  N5_23 
ROOT
HETATM    1  C1  UNL     1      24.336   8.479  43.148  1.00  0.00     0.027 C 
HETATM    2  C2  UNL     1      24.689   8.352  44.300  1.00  0.00    -0.026 C 
HETATM    3  C3  UNL     1      25.109   8.189  45.645  1.00  0.00    -0.014 C 
HETATM    4  C4  UNL     1      25.481   8.045  46.788  1.00  0.00    -0.073 C 
ENDROOT
BRANCH   4   5
HETATM    5  C5  UNL     1      25.939   7.848  48.192  1.00  0.00     0.216 C 
BRANCH   5   6
HETATM    6  N1  UNL     1      25.649   6.458  48.477  1.00  0.00    -0.364 N 
HETATM    7  H4  UNL     1      26.281   6.000  47.805  1.00  0.00     0.162 HD
BRANCH   6   8
HETATM    8  C6  UNL     1      24.692   6.257  49.483  1.00  0.00     0.138 A 
HETATM    9  N2  UNL     1      23.673   7.115  49.643  1.00  0.00    -0.224 NA
HETATM   10  C7  UNL     1      22.726   7.000  50.581  1.00  0.00     0.235 A 
HETATM   11  N3  UNL     1      22.756   5.974  51.439  1.00  0.00    -0.241 NA
HETATM   12  C8  UNL     1      23.721   5.057  51.379  1.00  0.00     0.072 A 
HETATM   13  C9  UNL     1      24.665   5.228  50.394  1.00  0.00     0.036 A 
HETATM   14  C21 UNL     1      23.442   4.210  52.357  1.00  0.00     0.035 C 
HETATM   15  C10 UNL     1      25.695   4.479  50.107  1.00  0.00     0.010 C 
HETATM   16  C11 UNL     1      26.524   3.301  50.374  1.00  0.00     0.148 C 
HETATM   17  N4  UNL     1      26.284   2.715  51.694  1.00  0.00    -0.386 N 
HETATM   18  C12 UNL     1      25.264   2.318  52.583  1.00  0.00     0.041 C 
HETATM   19  H9  UNL     1      27.213   2.507  52.192  1.00  0.00     0.160 HD
HETATM   20  C20 UNL     1      24.149   3.008  52.771  1.00  0.00     0.032 C 
BRANCH  18  21
HETATM   21  C13 UNL     1      25.510   1.113  53.348  1.00  0.00     0.026 C 
HETATM   22  C14 UNL     1      24.710   0.116  53.649  1.00  0.00     0.016 C 
BRANCH  22  23
HETATM   23  C15 UNL     1      23.352  -0.291  53.433  1.00  0.00    -0.009 C 
HETATM   24  C16 UNL     1      22.619  -0.977  54.286  1.00  0.00     0.011 C 
ENDBRANCH  22  23
BRANCH  21  25
HETATM   25  C17 UNL     1      26.885   0.923  53.857  1.00  0.00     0.105 A 
HETATM   26  C18 UNL     1      27.640  -0.171  53.815  1.00  0.00     0.062 A 
HETATM   27  C19 UNL     1      28.737   0.523  54.479  1.00  0.00     0.235 A 
HETATM   28  O1  UNL     1      27.896   1.612  54.500  1.00  0.00    -0.342 OA
BRANCH  26  29
HETATM   29  N5  UNL     1      27.722  -1.519  53.410  1.00  0.00    -0.398 N 
HETATM   30  H14 UNL     1      26.858  -2.119  53.543  1.00  0.00     0.156 HD
HETATM   31  H15 UNL     1      28.615  -1.882  52.996  1.00  0.00     0.156 HD
ENDBRANCH  26  29
ENDBRANCH  21  25
ENDBRANCH  18  21
ENDBRANCH   6   8
ENDBRANCH   5   6
ENDBRANCH   4   5
TORSDOF 7
ENDMDL
MODEL 4
REMARK VINA RESULT:      -7.2      2.468      4.368
REMARK  7 active torsions:
REMARK  status: ('A' for Active; 'I' for Inactive)
REMARK    1  A    between atoms: C4_4  and  C5_5 
REMARK    2  A    between atoms: C5_5  and  N1_6 
REMARK    3  A    between atoms: N1_6  and  C6_7 
REMARK    4  A    between atoms: C12_16  and  C13_17 
REMARK    5  A    between atoms: C13_17  and  C17_21 
REMARK    6  A    between atoms: C14_18  and  C15_19 
REMARK    7  A    between atoms: C18_22  and  N5_23 
ROOT
HETATM    1  C1  UNL     1      20.825   4.249  46.222  1.00  0.00     0.027 C 
HETATM    2  C2  UNL     1      21.639   5.043  46.640  1.00  0.00    -0.026 C 
HETATM    3  C3  UNL     1      22.581   5.979  47.139  1.00  0.00    -0.014 C 
HETATM    4  C4  UNL     1      23.380   6.776  47.579  1.00  0.00    -0.073 C 
ENDROOT
BRANCH   4   5
HETATM    5  C5  UNL     1      24.347   7.768  48.126  1.00  0.00     0.216 C 
BRANCH   5   6
HETATM    6  N1  UNL     1      24.719   7.238  49.420  1.00  0.00    -0.364 N 
HETATM    7  H4  UNL     1      24.179   7.866  50.034  1.00  0.00     0.162 HD
BRANCH   6   8
HETATM    8  C6  UNL     1      25.606   6.152  49.373  1.00  0.00     0.138 A 
HETATM    9  N2  UNL     1      26.723   6.209  48.634  1.00  0.00    -0.224 NA
HETATM   10  C7  UNL     1      27.613   5.216  48.529  1.00  0.00     0.235 A 
HETATM   11  N3  UNL     1      27.417   4.069  49.190  1.00  0.00    -0.241 NA
HETATM   12  C8  UNL     1      26.341   3.894  49.956  1.00  0.00     0.072 A 
HETATM   13  C9  UNL     1      25.464   4.950  50.025  1.00  0.00     0.036 A 
HETATM   14  C21 UNL     1      26.471   2.671  50.444  1.00  0.00     0.035 C 
HETATM   15  C10 UNL     1      24.353   5.049  50.706  1.00  0.00     0.010 C 
HETATM   16  C11 UNL     1      23.366   4.470  51.619  1.00  0.00     0.148 C 
HETATM   17  N4  UNL     1      23.480   3.016  51.743  1.00  0.00    -0.386 N 
HETATM   18  C12 UNL     1      24.406   1.969  51.926  1.00  0.00     0.041 C 
HETATM   19  H9  UNL     1      22.514   2.551  51.662  1.00  0.00     0.160 HD
HETATM   20  C20 UNL     1      25.595   1.936  51.344  1.00  0.00     0.032 C 
BRANCH  18  21
HETATM   21  C13 UNL     1      23.975   0.867  52.761  1.00  0.00     0.026 C 
HETATM   22  C14 UNL     1      24.665  -0.105  53.313  1.00  0.00     0.016 C 
BRANCH  22  23
HETATM   23  C15 UNL     1      26.020  -0.565  53.395  1.00  0.00    -0.009 C 
HETATM   24  C16 UNL     1      26.623  -1.317  52.497  1.00  0.00     0.011 C 
ENDBRANCH  22  23
BRANCH  21  25
HETATM   25  C17 UNL     1      22.536   0.816  53.098  1.00  0.00     0.105 A 
HETATM   26  C18 UNL     1      21.925   0.064  54.009  1.00  0.00     0.062 A 
HETATM   27  C19 UNL     1      20.634   0.650  53.672  1.00  0.00     0.235 A 
HETATM   28  O1  UNL     1      21.329   1.388  52.741  1.00  0.00    -0.342 OA
BRANCH  26  29
HETATM   29  N5  UNL     1      22.081  -0.920  55.008  1.00  0.00    -0.398 N 
HETATM   30  H14 UNL     1      22.919  -1.563  54.928  1.00  0.00     0.156 HD
HETATM   31  H15 UNL     1      21.380  -0.984  55.784  1.00  0.00     0.156 HD
ENDBRANCH  26  29
ENDBRANCH  21  25
ENDBRANCH  18  21
ENDBRANCH   6   8
ENDBRANCH   5   6
ENDBRANCH   4   5
TORSDOF 7
ENDMDL
MODEL 5
REMARK VINA RESULT:      -7.1      3.716      6.616
REMARK  7 active torsions:
REMARK  status: ('A' for Active; 'I' for Inactive)
REMARK    1  A    between atoms: C4_4  and  C5_5 
REMARK    2  A    between atoms: C5_5  and  N1_6 
REMARK    3  A    between atoms: N1_6  and  C6_7 
REMARK    4  A    between atoms: C12_16  and  C13_17 
REMARK    5  A    between atoms: C13_17  and  C17_21 
REMARK    6  A    between atoms: C14_18  and  C15_19 
REMARK    7  A    between atoms: C18_22  and  N5_23 
ROOT
HETATM    1  C1  UNL     1      26.737   5.855  48.568  1.00  0.00     0.027 C 
HETATM    2  C2  UNL     1      26.609   4.912  49.318  1.00  0.00    -0.026 C 
HETATM    3  C3  UNL     1      26.455   3.799  50.184  1.00  0.00    -0.014 C 
HETATM    4  C4  UNL     1      26.327   2.841  50.913  1.00  0.00    -0.073 C 
ENDROOT
BRANCH   4   5
HETATM    5  C5  UNL     1      26.155   1.655  51.798  1.00  0.00     0.216 C 
BRANCH   5   6
HETATM    6  N1  UNL     1      24.747   1.330  51.700  1.00  0.00    -0.364 N 
HETATM    7  H4  UNL     1      24.505   1.834  50.834  1.00  0.00     0.162 HD
BRANCH   6   8
HETATM    8  C6  UNL     1      24.263   0.516  52.735  1.00  0.00     0.138 A 
HETATM    9  N2  UNL     1      25.087   0.050  53.685  1.00  0.00    -0.224 NA
HETATM   10  C7  UNL     1      24.708  -0.737  54.697  1.00  0.00     0.235 A 
HETATM   11  N3  UNL     1      23.428  -1.111  54.811  1.00  0.00    -0.241 NA
HETATM   12  C8  UNL     1      22.516  -0.712  53.926  1.00  0.00     0.072 A 
HETATM   13  C9  UNL     1      22.966   0.096  52.908  1.00  0.00     0.036 A 
HETATM   14  C21 UNL     1      21.384  -1.259  54.339  1.00  0.00     0.035 C 
HETATM   15  C10 UNL     1      22.289   0.634  51.929  1.00  0.00     0.010 C 
HETATM   16  C11 UNL     1      21.024   0.842  51.222  1.00  0.00     0.148 C 
HETATM   17  N4  UNL     1      19.989  -0.123  51.597  1.00  0.00    -0.386 N 
HETATM   18  C12 UNL     1      19.379  -0.751  52.702  1.00  0.00     0.041 C 
HETATM   19  H9  UNL     1      19.504  -0.519  50.723  1.00  0.00     0.160 HD
HETATM   20  C20 UNL     1      20.050  -1.172  53.764  1.00  0.00     0.032 C 
BRANCH  18  21
HETATM   21  C13 UNL     1      17.951  -0.973  52.610  1.00  0.00     0.026 C 
HETATM   22  C14 UNL     1      17.211  -1.963  53.053  1.00  0.00     0.016 C 
BRANCH  22  23
HETATM   23  C15 UNL     1      17.363  -3.197  53.766  1.00  0.00    -0.009 C 
HETATM   24  C16 UNL     1      16.664  -4.293  53.548  1.00  0.00     0.011 C 
ENDBRANCH  22  23
BRANCH  21  25
HETATM   25  C17 UNL     1      17.160   0.086  51.947  1.00  0.00     0.105 A 
HETATM   26  C18 UNL     1      16.144  -0.048  51.099  1.00  0.00     0.062 A 
HETATM   27  C19 UNL     1      15.999   1.399  50.996  1.00  0.00     0.235 A 
HETATM   28  O1  UNL     1      17.063   1.463  51.867  1.00  0.00    -0.342 OA
BRANCH  26  29
HETATM   29  N5  UNL     1      15.313  -0.951  50.405  1.00  0.00    -0.398 N 
HETATM   30  H14 UNL     1      15.277  -0.864  49.350  1.00  0.00     0.156 HD
HETATM   31  H15 UNL     1      14.766  -1.668  50.941  1.00  0.00     0.156 HD
ENDBRANCH  26  29
ENDBRANCH  21  25
ENDBRANCH  18  21
ENDBRANCH   6   8
ENDBRANCH   5   6
ENDBRANCH   4   5
TORSDOF 7
ENDMDL
MODEL 6
REMARK VINA RESULT:      -7.1      2.304      3.653
REMARK  7 active torsions:
REMARK  status: ('A' for Active; 'I' for Inactive)
REMARK    1  A    between atoms: C4_4  and  C5_5 
REMARK    2  A    between atoms: C5_5  and  N1_6 
REMARK    3  A    between atoms: N1_6  and  C6_7 
REMARK    4  A    between atoms: C12_16  and  C13_17 
REMARK    5  A    between atoms: C13_17  and  C17_21 
REMARK    6  A    between atoms: C14_18  and  C15_19 
REMARK    7  A    between atoms: C18_22  and  N5_23 
ROOT
HETATM    1  C1  UNL     1      21.453   3.838  45.138  1.00  0.00     0.027 C 
HETATM    2  C2  UNL     1      22.002   4.703  45.785  1.00  0.00    -0.026 C 
HETATM    3  C3  UNL     1      22.632   5.717  46.551  1.00  0.00    -0.014 C 
HETATM    4  C4  UNL     1      23.163   6.577  47.217  1.00  0.00    -0.073 C 
ENDROOT
BRANCH   4   5
HETATM    5  C5  UNL     1      23.799   7.642  48.042  1.00  0.00     0.216 C 
BRANCH   5   6
HETATM    6  N1  UNL     1      24.080   7.002  49.310  1.00  0.00    -0.364 N 
HETATM    7  H4  UNL     1      23.338   7.419  49.891  1.00  0.00     0.162 HD
BRANCH   6   8
HETATM    8  C6  UNL     1      25.170   6.119  49.288  1.00  0.00     0.138 A 
HETATM    9  N2  UNL     1      26.232   6.358  48.506  1.00  0.00    -0.224 NA
HETATM   10  C7  UNL     1      27.305   5.564  48.422  1.00  0.00     0.235 A 
HETATM   11  N3  UNL     1      27.366   4.442  49.150  1.00  0.00    -0.241 NA
HETATM   12  C8  UNL     1      26.369   4.098  49.963  1.00  0.00     0.072 A 
HETATM   13  C9  UNL     1      25.294   4.955  50.008  1.00  0.00     0.036 A 
HETATM   14  C21 UNL     1      26.760   2.958  50.510  1.00  0.00     0.035 C 
HETATM   15  C10 UNL     1      24.205   4.865  50.723  1.00  0.00     0.010 C 
HETATM   16  C11 UNL     1      23.381   4.152  51.702  1.00  0.00     0.148 C 
HETATM   17  N4  UNL     1      23.795   2.762  51.899  1.00  0.00    -0.386 N 
HETATM   18  C12 UNL     1      24.921   1.939  52.103  1.00  0.00     0.041 C 
HETATM   19  H9  UNL     1      22.944   2.105  51.878  1.00  0.00     0.160 HD
HETATM   20  C20 UNL     1      26.078   2.115  51.480  1.00  0.00     0.032 C 
BRANCH  18  21
HETATM   21  C13 UNL     1      24.748   0.824  53.011  1.00  0.00     0.026 C 
HETATM   22  C14 UNL     1      23.728   0.015  53.184  1.00  0.00     0.016 C 
BRANCH  22  23
HETATM   23  C15 UNL     1      22.410  -0.198  52.661  1.00  0.00    -0.009 C 
HETATM   24  C16 UNL     1      21.305  -0.237  53.378  1.00  0.00     0.011 C 
ENDBRANCH  22  23
BRANCH  21  25
HETATM   25  C17 UNL     1      25.901   0.490  53.874  1.00  0.00     0.105 A 
HETATM   26  C18 UNL     1      26.720  -0.555  53.795  1.00  0.00     0.062 A 
HETATM   27  C19 UNL     1      27.487  -0.081  54.940  1.00  0.00     0.235 A 
HETATM   28  O1  UNL     1      26.595   0.967  54.971  1.00  0.00    -0.342 OA
BRANCH  26  29
HETATM   29  N5  UNL     1      27.038  -1.740  53.099  1.00  0.00    -0.398 N 
HETATM   30  H14 UNL     1      27.828  -2.332  53.485  1.00  0.00     0.156 HD
HETATM   31  H15 UNL     1      26.496  -1.996  52.239  1.00  0.00     0.156 HD
ENDBRANCH  26  29
ENDBRANCH  21  25
ENDBRANCH  18  21
ENDBRANCH   6   8
ENDBRANCH   5   6
ENDBRANCH   4   5
TORSDOF 7
ENDMDL
MODEL 7
REMARK VINA RESULT:      -7.0      2.450      4.030
REMARK  7 active torsions:
REMARK  status: ('A' for Active; 'I' for Inactive)
REMARK    1  A    between atoms: C4_4  and  C5_5 
REMARK    2  A    between atoms: C5_5  and  N1_6 
REMARK    3  A    between atoms: N1_6  and  C6_7 
REMARK    4  A    between atoms: C12_16  and  C13_17 
REMARK    5  A    between atoms: C13_17  and  C17_21 
REMARK    6  A    between atoms: C14_18  and  C15_19 
REMARK    7  A    between atoms: C18_22  and  N5_23 
ROOT
HETATM    1  C1  UNL     1      18.513   9.425  48.759  1.00  0.00     0.027 C 
HETATM    2  C2  UNL     1      19.655   9.146  49.052  1.00  0.00    -0.026 C 
HETATM    3  C3  UNL     1      20.993   8.809  49.384  1.00  0.00    -0.014 C 
HETATM    4  C4  UNL     1      22.137   8.520  49.653  1.00  0.00    -0.073 C 
ENDROOT
BRANCH   4   5
HETATM    5  C5  UNL     1      23.542   8.145  49.976  1.00  0.00     0.216 C 
BRANCH   5   6
HETATM    6  N1  UNL     1      23.461   6.765  50.406  1.00  0.00    -0.364 N 
HETATM    7  H4  UNL     1      22.552   6.781  50.892  1.00  0.00     0.162 HD
BRANCH   6   8
HETATM    8  C6  UNL     1      24.557   5.972  50.034  1.00  0.00     0.138 A 
HETATM    9  N2  UNL     1      25.342   6.325  49.006  1.00  0.00    -0.224 NA
HETATM   10  C7  UNL     1      26.398   5.621  48.583  1.00  0.00     0.235 A 
HETATM   11  N3  UNL     1      26.733   4.482  49.199  1.00  0.00    -0.241 NA
HETATM   12  C8  UNL     1      26.026   4.028  50.233  1.00  0.00     0.072 A 
HETATM   13  C9  UNL     1      24.953   4.794  50.622  1.00  0.00     0.036 A 
HETATM   14  C21 UNL     1      26.628   2.903  50.584  1.00  0.00     0.035 C 
HETATM   15  C10 UNL     1      24.113   4.592  51.602  1.00  0.00     0.010 C 
HETATM   16  C11 UNL     1      23.643   3.778  52.725  1.00  0.00     0.148 C 
HETATM   17  N4  UNL     1      24.186   2.419  52.719  1.00  0.00    -0.386 N 
HETATM   18  C12 UNL     1      25.376   1.680  52.557  1.00  0.00     0.041 C 
HETATM   19  H9  UNL     1      23.407   1.698  52.894  1.00  0.00     0.160 HD
HETATM   20  C20 UNL     1      26.299   1.971  51.652  1.00  0.00     0.032 C 
BRANCH  18  21
HETATM   21  C13 UNL     1      25.535   0.521  53.410  1.00  0.00     0.026 C 
HETATM   22  C14 UNL     1      24.690  -0.438  53.713  1.00  0.00     0.016 C 
BRANCH  22  23
HETATM   23  C15 UNL     1      23.342  -0.829  53.424  1.00  0.00    -0.009 C 
HETATM   24  C16 UNL     1      22.266  -0.337  54.004  1.00  0.00     0.011 C 
ENDBRANCH  22  23
BRANCH  21  25
HETATM   25  C17 UNL     1      26.865   0.335  54.030  1.00  0.00     0.105 A 
HETATM   26  C18 UNL     1      27.741  -0.645  53.830  1.00  0.00     0.062 A 
HETATM   27  C19 UNL     1      28.679  -0.039  54.769  1.00  0.00     0.235 A 
HETATM   28  O1  UNL     1      27.721   0.934  54.935  1.00  0.00    -0.342 OA
BRANCH  26  29
HETATM   29  N5  UNL     1      28.018  -1.842  53.138  1.00  0.00    -0.398 N 
HETATM   30  H14 UNL     1      28.811  -1.824  52.436  1.00  0.00     0.156 HD
HETATM   31  H15 UNL     1      27.445  -2.698  53.336  1.00  0.00     0.156 HD
ENDBRANCH  26  29
ENDBRANCH  21  25
ENDBRANCH  18  21
ENDBRANCH   6   8
ENDBRANCH   5   6
ENDBRANCH   4   5
TORSDOF 7
ENDMDL
MODEL 8
REMARK VINA RESULT:      -6.9      2.238      2.452
REMARK  7 active torsions:
REMARK  status: ('A' for Active; 'I' for Inactive)
REMARK    1  A    between atoms: C4_4  and  C5_5 
REMARK    2  A    between atoms: C5_5  and  N1_6 
REMARK    3  A    between atoms: N1_6  and  C6_7 
REMARK    4  A    between atoms: C12_16  and  C13_17 
REMARK    5  A    between atoms: C13_17  and  C17_21 
REMARK    6  A    between atoms: C14_18  and  C15_19 
REMARK    7  A    between atoms: C18_22  and  N5_23 
ROOT
HETATM    1  C1  UNL     1      30.374   9.423  48.594  1.00  0.00     0.027 C 
HETATM    2  C2  UNL     1      29.304   8.869  48.470  1.00  0.00    -0.026 C 
HETATM    3  C3  UNL     1      28.044   8.234  48.326  1.00  0.00    -0.014 C 
HETATM    4  C4  UNL     1      26.963   7.704  48.195  1.00  0.00    -0.073 C 
ENDROOT
BRANCH   4   5
HETATM    5  C5  UNL     1      25.625   7.066  48.046  1.00  0.00     0.216 C 
BRANCH   5   6
HETATM    6  N1  UNL     1      25.784   5.747  48.622  1.00  0.00    -0.364 N 
HETATM    7  H4  UNL     1      26.812   5.669  48.611  1.00  0.00     0.162 HD
BRANCH   6   8
HETATM    8  C6  UNL     1      24.582   5.109  48.960  1.00  0.00     0.138 A 
HETATM    9  N2  UNL     1      23.426   5.476  48.388  1.00  0.00    -0.224 NA
HETATM   10  C7  UNL     1      22.238   4.926  48.661  1.00  0.00     0.235 A 
HETATM   11  N3  UNL     1      22.149   3.936  49.558  1.00  0.00    -0.241 NA
HETATM   12  C8  UNL     1      23.230   3.486  50.192  1.00  0.00     0.072 A 
HETATM   13  C9  UNL     1      24.422   4.091  49.869  1.00  0.00     0.036 A 
HETATM   14  C21 UNL     1      22.780   2.530  50.988  1.00  0.00     0.035 C 
HETATM   15  C10 UNL     1      25.620   3.836  50.325  1.00  0.00     0.010 C 
HETATM   16  C11 UNL     1      26.511   3.070  51.198  1.00  0.00     0.148 C 
HETATM   17  N4  UNL     1      25.801   2.342  52.251  1.00  0.00    -0.386 N 
HETATM   18  C12 UNL     1      24.690   1.508  52.492  1.00  0.00     0.041 C 
HETATM   19  H9  UNL     1      26.280   2.485  53.202  1.00  0.00     0.160 HD
HETATM   20  C20 UNL     1      23.508   1.682  51.920  1.00  0.00     0.032 C 
BRANCH  18  21
HETATM   21  C13 UNL     1      24.879   0.448  53.461  1.00  0.00     0.026 C 
HETATM   22  C14 UNL     1      24.024  -0.418  53.955  1.00  0.00     0.016 C 
BRANCH  22  23
HETATM   23  C15 UNL     1      22.637  -0.761  53.841  1.00  0.00    -0.009 C 
HETATM   24  C16 UNL     1      22.009  -1.645  54.589  1.00  0.00     0.011 C 
ENDBRANCH  22  23
BRANCH  21  25
HETATM   25  C17 UNL     1      26.253   0.258  53.972  1.00  0.00     0.105 A 
HETATM   26  C18 UNL     1      27.090  -0.749  53.742  1.00  0.00     0.062 A 
HETATM   27  C19 UNL     1      28.116  -0.126  54.569  1.00  0.00     0.235 A 
HETATM   28  O1  UNL     1      27.195   0.875  54.774  1.00  0.00    -0.342 OA
BRANCH  26  29
HETATM   29  N5  UNL     1      27.283  -1.981  53.082  1.00  0.00    -0.398 N 
HETATM   30  H14 UNL     1      27.276  -1.970  52.023  1.00  0.00     0.156 HD
HETATM   31  H15 UNL     1      27.427  -2.853  53.647  1.00  0.00     0.156 HD
ENDBRANCH  26  29
ENDBRANCH  21  25
ENDBRANCH  18  21
ENDBRANCH   6   8
ENDBRANCH   5   6
ENDBRANCH   4   5
TORSDOF 7
ENDMDL
MODEL 9
REMARK VINA RESULT:      -6.9      2.387      3.908
REMARK  7 active torsions:
REMARK  status: ('A' for Active; 'I' for Inactive)
REMARK    1  A    between atoms: C4_4  and  C5_5 
REMARK    2  A    between atoms: C5_5  and  N1_6 
REMARK    3  A    between atoms: N1_6  and  C6_7 
REMARK    4  A    between atoms: C12_16  and  C13_17 
REMARK    5  A    between atoms: C13_17  and  C17_21 
REMARK    6  A    between atoms: C14_18  and  C15_19 
REMARK    7  A    between atoms: C18_22  and  N5_23 
ROOT
HETATM    1  C1  UNL     1      32.005   5.057  48.086  1.00  0.00     0.027 C 
HETATM    2  C2  UNL     1      30.903   5.556  48.160  1.00  0.00    -0.026 C 
HETATM    3  C3  UNL     1      29.611   6.133  48.260  1.00  0.00    -0.014 C 
HETATM    4  C4  UNL     1      28.510   6.626  48.360  1.00  0.00    -0.073 C 
ENDROOT
BRANCH   4   5
HETATM    5  C5  UNL     1      27.148   7.216  48.494  1.00  0.00     0.216 C 
BRANCH   5   6
HETATM    6  N1  UNL     1      26.252   6.081  48.432  1.00  0.00    -0.364 N 
HETATM    7  H4  UNL     1      26.608   5.616  47.583  1.00  0.00     0.162 HD
BRANCH   6   8
HETATM    8  C6  UNL     1      25.304   6.029  49.464  1.00  0.00     0.138 A 
HETATM    9  N2  UNL     1      24.485   7.065  49.697  1.00  0.00    -0.224 NA
HETATM   10  C7  UNL     1      23.563   7.098  50.665  1.00  0.00     0.235 A 
HETATM   11  N3  UNL     1      23.409   6.048  51.480  1.00  0.00    -0.241 NA
HETATM   12  C8  UNL     1      24.167   4.960  51.346  1.00  0.00     0.072 A 
HETATM   13  C9  UNL     1      25.097   4.985  50.334  1.00  0.00     0.036 A 
HETATM   14  C21 UNL     1      23.752   4.142  52.300  1.00  0.00     0.035 C 
HETATM   15  C10 UNL     1      25.946   4.058  49.978  1.00  0.00     0.010 C 
HETATM   16  C11 UNL     1      26.527   2.727  50.166  1.00  0.00     0.148 C 
HETATM   17  N4  UNL     1      26.212   2.140  51.469  1.00  0.00    -0.386 N 
HETATM   18  C12 UNL     1      25.160   1.914  52.380  1.00  0.00     0.041 C 
HETATM   19  H9  UNL     1      27.095   1.726  51.923  1.00  0.00     0.160 HD
HETATM   20  C20 UNL     1      24.214   2.804  52.638  1.00  0.00     0.032 C 
BRANCH  18  21
HETATM   21  C13 UNL     1      25.180   0.650  53.086  1.00  0.00     0.026 C 
HETATM   22  C14 UNL     1      26.182  -0.020  53.608  1.00  0.00     0.016 C 
BRANCH  22  23
HETATM   23  C15 UNL     1      27.603   0.092  53.756  1.00  0.00    -0.009 C 
HETATM   24  C16 UNL     1      28.259   0.003  54.896  1.00  0.00     0.011 C 
ENDBRANCH  22  23
BRANCH  21  25
HETATM   25  C17 UNL     1      23.873  -0.004  53.306  1.00  0.00     0.105 A 
HETATM   26  C18 UNL     1      23.481  -0.746  54.338  1.00  0.00     0.062 A 
HETATM   27  C19 UNL     1      22.161  -0.928  53.747  1.00  0.00     0.235 A 
HETATM   28  O1  UNL     1      22.637  -0.164  52.707  1.00  0.00    -0.342 OA
BRANCH  26  29
HETATM   29  N5  UNL     1      23.845  -1.303  55.582  1.00  0.00    -0.398 N 
HETATM   30  H14 UNL     1      23.998  -0.632  56.388  1.00  0.00     0.156 HD
HETATM   31  H15 UNL     1      23.949  -2.342  55.673  1.00  0.00     0.156 HD
ENDBRANCH  26  29
ENDBRANCH  21  25
ENDBRANCH  18  21
ENDBRANCH   6   8
ENDBRANCH   5   6
ENDBRANCH   4   5
TORSDOF 7
ENDMDL
