MODEL 1
REMARK VINA RESULT:      -7.0      0.000      0.000
REMARK  8 active torsions:
REMARK  status: ('A' for Active; 'I' for Inactive)
REMARK    1  A    between atoms: C3_3  and  O1_4 
REMARK    2  A    between atoms: C3_3  and  C4_5 
REMARK    3  A    between atoms: C4_5  and  O5_19 
REMARK    4  A    between atoms: C5_6  and  O2_7 
REMARK    5  A    between atoms: O2_7  and  C6_8 
REMARK    6  A    between atoms: C6_8  and  C8_11 
REMARK    7  A    between atoms: C8_11  and  C9_13 
REMARK    8  A    between atoms: C12_16  and  O4_17 
ROOT
HETATM    1  C6  UNL     1      26.413   1.450  52.090  1.00  0.00     0.307 C 
HETATM    2  C7  UNL     1      26.645   2.510  51.115  1.00  0.00     0.100 C 
HETATM    3  N1  UNL     1      26.814   3.359  50.348  1.00  0.00    -0.194 NA
ENDROOT
BRANCH   1   4
HETATM    4  O2  UNL     1      25.185   1.623  52.767  1.00  0.00    -0.333 OA
BRANCH   4   5
HETATM    5  C5  UNL     1      24.364   0.605  53.203  1.00  0.00     0.176 C 
HETATM    6  C4  UNL     1      23.094   0.804  52.810  1.00  0.00     0.122 C 
BRANCH   6   7
HETATM    7  C3  UNL     1      22.705   1.984  52.014  1.00  0.00     0.096 C 
HETATM    8  C2  UNL     1      22.106   1.872  50.832  1.00  0.00     0.008 C 
HETATM    9  C1  UNL     1      21.614   0.858  49.878  1.00  0.00     0.039 C 
BRANCH   7  10
HETATM   10  O1  UNL     1      23.015   3.223  52.604  1.00  0.00    -0.358 OA
HETATM   11  H5  UNL     1      22.399   3.526  53.340  1.00  0.00     0.217 HD
ENDBRANCH   7  10
ENDBRANCH   6   7
BRANCH   6  12
HETATM   12  O5  UNL     1      22.139  -0.155  53.182  1.00  0.00    -0.351 OA
HETATM   13  C14 UNL     1      22.239  -0.755  54.459  1.00  0.00     0.210 C 
ENDBRANCH   6  12
ENDBRANCH   4   5
ENDBRANCH   1   4
BRANCH   1  14
HETATM   14  C8  UNL     1      27.492   1.391  53.100  1.00  0.00     0.199 C 
HETATM   15  O3  UNL     1      27.747   2.415  53.807  1.00  0.00    -0.289 OA
BRANCH  14  16
HETATM   16  C9  UNL     1      28.250   0.163  53.273  1.00  0.00    -0.002 A 
HETATM   17  C10 UNL     1      29.537   0.075  53.643  1.00  0.00     0.014 A 
HETATM   18  C11 UNL     1      29.957  -1.321  53.711  1.00  0.00     0.033 A 
HETATM   19  C12 UNL     1      28.900  -2.048  53.379  1.00  0.00     0.047 A 
HETATM   20  C13 UNL     1      27.705  -1.220  53.063  1.00  0.00     0.106 A 
BRANCH  19  21
HETATM   21  O4  UNL     1      28.763  -3.429  53.287  1.00  0.00    -0.365 OA
HETATM   22  H10 UNL     1      29.384  -4.003  53.840  1.00  0.00     0.217 HD
ENDBRANCH  19  21
ENDBRANCH  14  16
ENDBRANCH   1  14
TORSDOF 8
ENDMDL
MODEL 2
REMARK VINA RESULT:      -7.0      1.581      2.036
REMARK  8 active torsions:
REMARK  status: ('A' for Active; 'I' for Inactive)
REMARK    1  A    between atoms: C3_3  and  O1_4 
REMARK    2  A    between atoms: C3_3  and  C4_5 
REMARK    3  A    between atoms: C4_5  and  O5_19 
REMARK    4  A    between atoms: C5_6  and  O2_7 
REMARK    5  A    between atoms: O2_7  and  C6_8 
REMARK    6  A    between atoms: C6_8  and  C8_11 
REMARK    7  A    between atoms: C8_11  and  C9_13 
REMARK    8  A    between atoms: C12_16  and  O4_17 
ROOT
HETATM    1  C6  UNL     1      26.031   1.738  52.356  1.00  0.00     0.307 C 
HETATM    2  C7  UNL     1      26.529   2.490  51.208  1.00  0.00     0.100 C 
HETATM    3  N1  UNL     1      26.912   3.100  50.303  1.00  0.00    -0.194 NA
ENDROOT
BRANCH   1   4
HETATM    4  O2  UNL     1      24.953   2.400  52.984  1.00  0.00    -0.333 OA
BRANCH   4   5
HETATM    5  C5  UNL     1      23.618   2.121  52.781  1.00  0.00     0.176 C 
HETATM    6  C4  UNL     1      22.939   3.228  52.434  1.00  0.00     0.122 C 
BRANCH   6   7
HETATM    7  C3  UNL     1      23.606   4.538  52.307  1.00  0.00     0.096 C 
HETATM    8  C2  UNL     1      23.876   5.082  51.124  1.00  0.00     0.008 C 
HETATM    9  C1  UNL     1      23.739   4.824  49.676  1.00  0.00     0.039 C 
BRANCH   7  10
HETATM   10  O1  UNL     1      23.927   5.158  53.528  1.00  0.00    -0.358 OA
HETATM   11  H5  UNL     1      23.559   6.086  53.660  1.00  0.00     0.217 HD
ENDBRANCH   7  10
ENDBRANCH   6   7
BRANCH   6  12
HETATM   12  O5  UNL     1      21.562   3.100  52.192  1.00  0.00    -0.351 OA
HETATM   13  C14 UNL     1      20.899   1.934  52.643  1.00  0.00     0.210 C 
ENDBRANCH   6  12
ENDBRANCH   4   5
ENDBRANCH   1   4
BRANCH   1  14
HETATM   14  C8  UNL     1      27.089   1.518  53.365  1.00  0.00     0.199 C 
HETATM   15  O3  UNL     1      27.307   2.403  54.250  1.00  0.00    -0.289 OA
BRANCH  14  16
HETATM   16  C9  UNL     1      27.871   0.293  53.335  1.00  0.00    -0.002 A 
HETATM   17  C10 UNL     1      29.181   0.186  53.600  1.00  0.00     0.014 A 
HETATM   18  C11 UNL     1      29.619  -1.201  53.469  1.00  0.00     0.033 A 
HETATM   19  C12 UNL     1      28.550  -1.902  53.125  1.00  0.00     0.047 A 
HETATM   20  C13 UNL     1      27.326  -1.065  52.997  1.00  0.00     0.106 A 
BRANCH  19  21
HETATM   21  O4  UNL     1      28.420  -3.264  52.875  1.00  0.00    -0.365 OA
HETATM   22  H10 UNL     1      29.217  -3.856  53.062  1.00  0.00     0.217 HD
ENDBRANCH  19  21
ENDBRANCH  14  16
ENDBRANCH   1  14
TORSDOF 8
ENDMDL
MODEL 3
REMARK VINA RESULT:      -6.8      2.173      2.793
REMARK  8 active torsions:
REMARK  status: ('A' for Active; 'I' for Inactive)
REMARK    1  A    between atoms: C3_3  and  O1_4 
REMARK    2  A    between atoms: C3_3  and  C4_5 
REMARK    3  A    between atoms: C4_5  and  O5_19 
REMARK    4  A    between atoms: C5_6  and  O2_7 
REMARK    5  A    between atoms: O2_7  and  C6_8 
REMARK    6  A    between atoms: C6_8  and  C8_11 
REMARK    7  A    between atoms: C8_11  and  C9_13 
REMARK    8  A    between atoms: C12_16  and  O4_17 
ROOT
HETATM    1  C6  UNL     1      25.763   1.562  53.297  1.00  0.00     0.307 C 
HETATM    2  C7  UNL     1      24.682   0.583  53.259  1.00  0.00     0.100 C 
HETATM    3  N1  UNL     1      23.814  -0.181  53.222  1.00  0.00    -0.194 NA
ENDROOT
BRANCH   1   4
HETATM    4  O2  UNL     1      25.327   2.837  52.873  1.00  0.00    -0.333 OA
BRANCH   4   5
HETATM    5  C5  UNL     1      24.039   3.316  52.980  1.00  0.00     0.176 C 
HETATM    6  C4  UNL     1      23.627   3.865  51.824  1.00  0.00     0.122 C 
BRANCH   6   7
HETATM    7  C3  UNL     1      24.500   3.911  50.635  1.00  0.00     0.096 C 
HETATM    8  C2  UNL     1      24.137   3.382  49.470  1.00  0.00     0.008 C 
HETATM    9  C1  UNL     1      23.023   2.656  48.829  1.00  0.00     0.039 C 
BRANCH   7  10
HETATM   10  O1  UNL     1      25.734   4.557  50.833  1.00  0.00    -0.358 OA
HETATM   11  H5  UNL     1      25.963   4.786  51.786  1.00  0.00     0.217 HD
ENDBRANCH   7  10
ENDBRANCH   6   7
BRANCH   6  12
HETATM   12  O5  UNL     1      22.329   4.397  51.779  1.00  0.00    -0.351 OA
HETATM   13  C14 UNL     1      21.244   3.571  52.153  1.00  0.00     0.210 C 
ENDBRANCH   6  12
ENDBRANCH   4   5
ENDBRANCH   1   4
BRANCH   1  14
HETATM   14  C8  UNL     1      26.899   1.155  52.442  1.00  0.00     0.199 C 
HETATM   15  O3  UNL     1      27.124   1.778  51.358  1.00  0.00    -0.289 OA
BRANCH  14  16
HETATM   16  C9  UNL     1      27.747   0.046  52.850  1.00  0.00    -0.002 A 
HETATM   17  C10 UNL     1      28.963   0.145  53.407  1.00  0.00     0.014 A 
HETATM   18  C11 UNL     1      29.512  -1.180  53.680  1.00  0.00     0.033 A 
HETATM   19  C12 UNL     1      28.601  -2.054  53.277  1.00  0.00     0.047 A 
HETATM   20  C13 UNL     1      27.389  -1.405  52.709  1.00  0.00     0.106 A 
BRANCH  19  21
HETATM   21  O4  UNL     1      28.625  -3.444  53.310  1.00  0.00    -0.365 OA
HETATM   22  H10 UNL     1      28.313  -3.901  54.156  1.00  0.00     0.217 HD
ENDBRANCH  19  21
ENDBRANCH  14  16
ENDBRANCH   1  14
TORSDOF 8
ENDMDL
MODEL 4
REMARK VINA RESULT:      -6.8      1.097      2.063
REMARK  8 active torsions:
REMARK  status: ('A' for Active; 'I' for Inactive)
REMARK    1  A    between atoms: C3_3  and  O1_4 
REMARK    2  A    between atoms: C3_3  and  C4_5 
REMARK    3  A    between atoms: C4_5  and  O5_19 
REMARK    4  A    between atoms: C5_6  and  O2_7 
REMARK    5  A    between atoms: O2_7  and  C6_8 
REMARK    6  A    between atoms: C6_8  and  C8_11 
REMARK    7  A    between atoms: C8_11  and  C9_13 
REMARK    8  A    between atoms: C12_16  and  O4_17 
ROOT
HETATM    1  C6  UNL     1      25.911   1.481  52.228  1.00  0.00     0.307 C 
HETATM    2  C7  UNL     1      26.412   2.428  51.236  1.00  0.00     0.100 C 
HETATM    3  N1  UNL     1      26.796   3.189  50.455  1.00  0.00    -0.194 NA
ENDROOT
BRANCH   1   4
HETATM    4  O2  UNL     1      24.692   1.915  52.793  1.00  0.00    -0.333 OA
BRANCH   4   5
HETATM    5  C5  UNL     1      23.989   3.037  52.410  1.00  0.00     0.176 C 
HETATM    6  C4  UNL     1      22.710   2.736  52.127  1.00  0.00     0.122 C 
BRANCH   6   7
HETATM    7  C3  UNL     1      22.196   1.357  52.238  1.00  0.00     0.096 C 
HETATM    8  C2  UNL     1      21.704   0.700  51.192  1.00  0.00     0.008 C 
HETATM    9  C1  UNL     1      21.439   0.861  49.748  1.00  0.00     0.039 C 
BRANCH   7  10
HETATM   10  O1  UNL     1      22.272   0.800  53.528  1.00  0.00    -0.358 OA
HETATM   11  H5  UNL     1      21.480   0.250  53.816  1.00  0.00     0.217 HD
ENDBRANCH   7  10
ENDBRANCH   6   7
BRANCH   6  12
HETATM   12  O5  UNL     1      21.867   3.783  51.721  1.00  0.00    -0.351 OA
HETATM   13  C14 UNL     1      22.286   4.619  50.660  1.00  0.00     0.210 C 
ENDBRANCH   6  12
ENDBRANCH   4   5
ENDBRANCH   1   4
BRANCH   1  14
HETATM   14  C8  UNL     1      26.881   1.275  53.325  1.00  0.00     0.199 C 
HETATM   15  O3  UNL     1      26.959   2.129  54.263  1.00  0.00    -0.289 OA
BRANCH  14  16
HETATM   16  C9  UNL     1      27.737   0.100  53.319  1.00  0.00    -0.002 A 
HETATM   17  C10 UNL     1      29.043   0.073  53.624  1.00  0.00     0.014 A 
HETATM   18  C11 UNL     1      29.568  -1.284  53.508  1.00  0.00     0.033 A 
HETATM   19  C12 UNL     1      28.554  -2.049  53.133  1.00  0.00     0.047 A 
HETATM   20  C13 UNL     1      27.286  -1.288  52.967  1.00  0.00     0.106 A 
BRANCH  19  21
HETATM   21  O4  UNL     1      28.515  -3.417  52.882  1.00  0.00    -0.365 OA
HETATM   22  H10 UNL     1      28.053  -3.729  52.039  1.00  0.00     0.217 HD
ENDBRANCH  19  21
ENDBRANCH  14  16
ENDBRANCH   1  14
TORSDOF 8
ENDMDL
MODEL 5
REMARK VINA RESULT:      -6.4      2.457      6.182
REMARK  8 active torsions:
REMARK  status: ('A' for Active; 'I' for Inactive)
REMARK    1  A    between atoms: C3_3  and  O1_4 
REMARK    2  A    between atoms: C3_3  and  C4_5 
REMARK    3  A    between atoms: C4_5  and  O5_19 
REMARK    4  A    between atoms: C5_6  and  O2_7 
REMARK    5  A    between atoms: O2_7  and  C6_8 
REMARK    6  A    between atoms: C6_8  and  C8_11 
REMARK    7  A    between atoms: C8_11  and  C9_13 
REMARK    8  A    between atoms: C12_16  and  O4_17 
ROOT
HETATM    1  C6  UNL     1      22.983  -0.472  53.205  1.00  0.00     0.307 C 
HETATM    2  C7  UNL     1      22.485  -1.202  54.366  1.00  0.00     0.100 C 
HETATM    3  N1  UNL     1      22.107  -1.779  55.294  1.00  0.00    -0.194 NA
ENDROOT
BRANCH   1   4
HETATM    4  O2  UNL     1      24.359  -0.176  53.325  1.00  0.00    -0.333 OA
BRANCH   4   5
HETATM    5  C5  UNL     1      25.385  -1.087  53.198  1.00  0.00     0.176 C 
HETATM    6  C4  UNL     1      26.570  -0.528  53.495  1.00  0.00     0.122 C 
BRANCH   6   7
HETATM    7  C3  UNL     1      26.680   0.888  53.898  1.00  0.00     0.096 C 
HETATM    8  C2  UNL     1      26.822   1.866  53.010  1.00  0.00     0.008 C 
HETATM    9  C1  UNL     1      26.928   2.099  51.555  1.00  0.00     0.039 C 
BRANCH   7  10
HETATM   10  O1  UNL     1      26.620   1.113  55.285  1.00  0.00    -0.358 OA
HETATM   11  H5  UNL     1      26.466   2.067  55.570  1.00  0.00     0.217 HD
ENDBRANCH   7  10
ENDBRANCH   6   7
BRANCH   6  12
HETATM   12  O5  UNL     1      27.714  -1.338  53.411  1.00  0.00    -0.351 OA
HETATM   13  C14 UNL     1      28.969  -0.776  53.740  1.00  0.00     0.210 C 
ENDBRANCH   6  12
ENDBRANCH   4   5
ENDBRANCH   1   4
BRANCH   1  14
HETATM   14  C8  UNL     1      22.253   0.799  53.005  1.00  0.00     0.199 C 
HETATM   15  O3  UNL     1      21.129   0.973  53.571  1.00  0.00    -0.289 OA
BRANCH  14  16
HETATM   16  C9  UNL     1      22.827   1.836  52.163  1.00  0.00    -0.002 A 
HETATM   17  C10 UNL     1      22.926   1.803  50.826  1.00  0.00     0.014 A 
HETATM   18  C11 UNL     1      23.559   3.020  50.328  1.00  0.00     0.033 A 
HETATM   19  C12 UNL     1      23.827   3.765  51.390  1.00  0.00     0.047 A 
HETATM   20  C13 UNL     1      23.408   3.126  52.666  1.00  0.00     0.106 A 
BRANCH  19  21
HETATM   21  O4  UNL     1      24.427   5.018  51.471  1.00  0.00    -0.365 OA
HETATM   22  H10 UNL     1      24.521   5.438  52.385  1.00  0.00     0.217 HD
ENDBRANCH  19  21
ENDBRANCH  14  16
ENDBRANCH   1  14
TORSDOF 8
ENDMDL
MODEL 6
REMARK VINA RESULT:      -6.3      2.382      3.619
REMARK  8 active torsions:
REMARK  status: ('A' for Active; 'I' for Inactive)
REMARK    1  A    between atoms: C3_3  and  O1_4 
REMARK    2  A    between atoms: C3_3  and  C4_5 
REMARK    3  A    between atoms: C4_5  and  O5_19 
REMARK    4  A    between atoms: C5_6  and  O2_7 
REMARK    5  A    between atoms: O2_7  and  C6_8 
REMARK    6  A    between atoms: C6_8  and  C8_11 
REMARK    7  A    between atoms: C8_11  and  C9_13 
REMARK    8  A    between atoms: C12_16  and  O4_17 
ROOT
HETATM    1  C6  UNL     1      24.890   0.293  53.395  1.00  0.00     0.307 C 
HETATM    2  C7  UNL     1      23.790  -0.525  53.896  1.00  0.00     0.100 C 
HETATM    3  N1  UNL     1      22.908  -1.169  54.278  1.00  0.00    -0.194 NA
ENDROOT
BRANCH   1   4
HETATM    4  O2  UNL     1      24.531   0.983  52.216  1.00  0.00    -0.333 OA
BRANCH   4   5
HETATM    5  C5  UNL     1      23.241   1.234  51.799  1.00  0.00     0.176 C 
HETATM    6  C4  UNL     1      23.045   2.547  51.591  1.00  0.00     0.122 C 
BRANCH   6   7
HETATM    7  C3  UNL     1      24.122   3.534  51.802  1.00  0.00     0.096 C 
HETATM    8  C2  UNL     1      24.735   4.139  50.789  1.00  0.00     0.008 C 
HETATM    9  C1  UNL     1      24.741   4.199  49.313  1.00  0.00     0.039 C 
BRANCH   7  10
HETATM   10  O1  UNL     1      24.442   3.780  53.149  1.00  0.00    -0.358 OA
HETATM   11  H5  UNL     1      23.877   4.471  53.616  1.00  0.00     0.217 HD
ENDBRANCH   7  10
ENDBRANCH   6   7
BRANCH   6  12
HETATM   12  O5  UNL     1      21.774   2.957  51.161  1.00  0.00    -0.351 OA
HETATM   13  C14 UNL     1      21.019   3.816  51.994  1.00  0.00     0.210 C 
ENDBRANCH   6  12
ENDBRANCH   4   5
ENDBRANCH   1   4
BRANCH   1  14
HETATM   14  C8  UNL     1      26.089  -0.523  53.106  1.00  0.00     0.199 C 
HETATM   15  O3  UNL     1      25.958  -1.656  52.547  1.00  0.00    -0.289 OA
BRANCH  14  16
HETATM   16  C9  UNL     1      27.406  -0.021  53.464  1.00  0.00    -0.002 A 
HETATM   17  C10 UNL     1      28.564  -0.687  53.343  1.00  0.00     0.014 A 
HETATM   18  C11 UNL     1      29.679   0.135  53.804  1.00  0.00     0.033 A 
HETATM   19  C12 UNL     1      29.158   1.289  54.194  1.00  0.00     0.047 A 
HETATM   20  C13 UNL     1      27.680   1.341  54.034  1.00  0.00     0.106 A 
BRANCH  19  21
HETATM   21  O4  UNL     1      29.783   2.417  54.714  1.00  0.00    -0.365 OA
HETATM   22  H10 UNL     1      29.934   2.455  55.713  1.00  0.00     0.217 HD
ENDBRANCH  19  21
ENDBRANCH  14  16
ENDBRANCH   1  14
TORSDOF 8
ENDMDL
MODEL 7
REMARK VINA RESULT:      -6.3      1.961      5.631
REMARK  8 active torsions:
REMARK  status: ('A' for Active; 'I' for Inactive)
REMARK    1  A    between atoms: C3_3  and  O1_4 
REMARK    2  A    between atoms: C3_3  and  C4_5 
REMARK    3  A    between atoms: C4_5  and  O5_19 
REMARK    4  A    between atoms: C5_6  and  O2_7 
REMARK    5  A    between atoms: O2_7  and  C6_8 
REMARK    6  A    between atoms: C6_8  and  C8_11 
REMARK    7  A    between atoms: C8_11  and  C9_13 
REMARK    8  A    between atoms: C12_16  and  O4_17 
ROOT
HETATM    1  C6  UNL     1      24.041   2.614  52.301  1.00  0.00     0.307 C 
HETATM    2  C7  UNL     1      24.423   3.403  51.134  1.00  0.00     0.100 C 
HETATM    3  N1  UNL     1      24.743   4.023  50.212  1.00  0.00    -0.194 NA
ENDROOT
BRANCH   1   4
HETATM    4  O2  UNL     1      25.164   2.028  52.925  1.00  0.00    -0.333 OA
BRANCH   4   5
HETATM    5  C5  UNL     1      26.479   2.274  52.594  1.00  0.00     0.176 C 
HETATM    6  C4  UNL     1      27.299   1.365  53.151  1.00  0.00     0.122 C 
BRANCH   6   7
HETATM    7  C3  UNL     1      26.781   0.272  53.996  1.00  0.00     0.096 C 
HETATM    8  C2  UNL     1      26.625  -0.965  53.534  1.00  0.00     0.008 C 
HETATM    9  C1  UNL     1      26.799  -1.771  52.309  1.00  0.00     0.039 C 
BRANCH   7  10
HETATM   10  O1  UNL     1      26.473   0.642  55.318  1.00  0.00    -0.358 OA
HETATM   11  H5  UNL     1      25.558   1.038  55.462  1.00  0.00     0.217 HD
ENDBRANCH   7  10
ENDBRANCH   6   7
BRANCH   6  12
HETATM   12  O5  UNL     1      28.674   1.487  52.901  1.00  0.00    -0.351 OA
HETATM   13  C14 UNL     1      29.579   0.773  53.721  1.00  0.00     0.210 C 
ENDBRANCH   6  12
ENDBRANCH   4   5
ENDBRANCH   1   4
BRANCH   1  14
HETATM   14  C8  UNL     1      23.095   1.534  51.944  1.00  0.00     0.199 C 
HETATM   15  O3  UNL     1      22.836   1.306  50.722  1.00  0.00    -0.289 OA
BRANCH  14  16
HETATM   16  C9  UNL     1      22.470   0.747  52.994  1.00  0.00    -0.002 A 
HETATM   17  C10 UNL     1      21.269   0.976  53.544  1.00  0.00     0.014 A 
HETATM   18  C11 UNL     1      20.975  -0.023  54.568  1.00  0.00     0.033 A 
HETATM   19  C12 UNL     1      22.018  -0.838  54.608  1.00  0.00     0.047 A 
HETATM   20  C13 UNL     1      23.081  -0.466  53.637  1.00  0.00     0.106 A 
BRANCH  19  21
HETATM   21  O4  UNL     1      22.246  -1.954  55.407  1.00  0.00    -0.365 OA
HETATM   22  H10 UNL     1      22.959  -1.887  56.119  1.00  0.00     0.217 HD
ENDBRANCH  19  21
ENDBRANCH  14  16
ENDBRANCH   1  14
TORSDOF 8
ENDMDL
MODEL 8
REMARK VINA RESULT:      -6.1      2.707      4.090
REMARK  8 active torsions:
REMARK  status: ('A' for Active; 'I' for Inactive)
REMARK    1  A    between atoms: C3_3  and  O1_4 
REMARK    2  A    between atoms: C3_3  and  C4_5 
REMARK    3  A    between atoms: C4_5  and  O5_19 
REMARK    4  A    between atoms: C5_6  and  O2_7 
REMARK    5  A    between atoms: O2_7  and  C6_8 
REMARK    6  A    between atoms: C6_8  and  C8_11 
REMARK    7  A    between atoms: C8_11  and  C9_13 
REMARK    8  A    between atoms: C12_16  and  O4_17 
ROOT
HETATM    1  C6  UNL     1      25.370   2.623  51.450  1.00  0.00     0.307 C 
HETATM    2  C7  UNL     1      26.254   3.176  50.430  1.00  0.00     0.100 C 
HETATM    3  N1  UNL     1      26.950   3.632  49.626  1.00  0.00    -0.194 NA
ENDROOT
BRANCH   1   4
HETATM    4  O2  UNL     1      24.627   3.633  52.100  1.00  0.00    -0.333 OA
BRANCH   4   5
HETATM    5  C5  UNL     1      23.256   3.770  52.055  1.00  0.00     0.176 C 
HETATM    6  C4  UNL     1      22.904   4.996  51.631  1.00  0.00     0.122 C 
BRANCH   6   7
HETATM    7  C3  UNL     1      23.913   6.012  51.277  1.00  0.00     0.096 C 
HETATM    8  C2  UNL     1      24.267   6.247  50.017  1.00  0.00     0.008 C 
HETATM    9  C1  UNL     1      23.987   5.804  48.637  1.00  0.00     0.039 C 
BRANCH   7  10
HETATM   10  O1  UNL     1      24.463   6.706  52.371  1.00  0.00    -0.358 OA
HETATM   11  H5  UNL     1      24.820   6.135  53.119  1.00  0.00     0.217 HD
ENDBRANCH   7  10
ENDBRANCH   6   7
BRANCH   6  12
HETATM   12  O5  UNL     1      21.534   5.284  51.533  1.00  0.00    -0.351 OA
HETATM   13  C14 UNL     1      20.741   4.518  50.647  1.00  0.00     0.210 C 
ENDBRANCH   6  12
ENDBRANCH   4   5
ENDBRANCH   1   4
BRANCH   1  14
HETATM   14  C8  UNL     1      26.124   1.871  52.477  1.00  0.00     0.199 C 
HETATM   15  O3  UNL     1      27.351   2.136  52.673  1.00  0.00    -0.289 OA
BRANCH  14  16
HETATM   16  C9  UNL     1      25.455   0.838  53.250  1.00  0.00    -0.002 A 
HETATM   17  C10 UNL     1      24.240   0.329  53.003  1.00  0.00     0.014 A 
HETATM   18  C11 UNL     1      23.899  -0.690  53.992  1.00  0.00     0.033 A 
HETATM   19  C12 UNL     1      24.930  -0.770  54.818  1.00  0.00     0.047 A 
HETATM   20  C13 UNL     1      26.030   0.168  54.465  1.00  0.00     0.106 A 
BRANCH  19  21
HETATM   21  O4  UNL     1      25.118  -1.583  55.932  1.00  0.00    -0.365 OA
HETATM   22  H10 UNL     1      25.673  -1.218  56.694  1.00  0.00     0.217 HD
ENDBRANCH  19  21
ENDBRANCH  14  16
ENDBRANCH   1  14
TORSDOF 8
ENDMDL
MODEL 9
REMARK VINA RESULT:      -6.1      3.006      5.552
REMARK  8 active torsions:
REMARK  status: ('A' for Active; 'I' for Inactive)
REMARK    1  A    between atoms: C3_3  and  O1_4 
REMARK    2  A    between atoms: C3_3  and  C4_5 
REMARK    3  A    between atoms: C4_5  and  O5_19 
REMARK    4  A    between atoms: C5_6  and  O2_7 
REMARK    5  A    between atoms: O2_7  and  C6_8 
REMARK    6  A    between atoms: C6_8  and  C8_11 
REMARK    7  A    between atoms: C8_11  and  C9_13 
REMARK    8  A    between atoms: C12_16  and  O4_17 
ROOT
HETATM    1  C6  UNL     1      25.675   1.883  51.685  1.00  0.00     0.307 C 
HETATM    2  C7  UNL     1      27.024   2.146  52.176  1.00  0.00     0.100 C 
HETATM    3  N1  UNL     1      28.094   2.369  52.553  1.00  0.00    -0.194 NA
ENDROOT
BRANCH   1   4
HETATM    4  O2  UNL     1      25.335   2.734  50.611  1.00  0.00    -0.333 OA
BRANCH   4   5
HETATM    5  C5  UNL     1      26.235   3.387  49.796  1.00  0.00     0.176 C 
HETATM    6  C4  UNL     1      25.844   4.651  49.556  1.00  0.00     0.122 C 
BRANCH   6   7
HETATM    7  C3  UNL     1      24.598   5.198  50.128  1.00  0.00     0.096 C 
HETATM    8  C2  UNL     1      23.543   5.490  49.374  1.00  0.00     0.008 C 
HETATM    9  C1  UNL     1      23.085   5.470  47.970  1.00  0.00     0.039 C 
BRANCH   7  10
HETATM   10  O1  UNL     1      24.620   5.381  51.523  1.00  0.00    -0.358 OA
HETATM   11  H5  UNL     1      24.647   4.540  52.077  1.00  0.00     0.217 HD
ENDBRANCH   7  10
ENDBRANCH   6   7
BRANCH   6  12
HETATM   12  O5  UNL     1      26.664   5.444  48.738  1.00  0.00    -0.351 OA
HETATM   13  C14 UNL     1      28.007   5.048  48.536  1.00  0.00     0.210 C 
ENDBRANCH   6  12
ENDBRANCH   4   5
ENDBRANCH   1   4
BRANCH   1  14
HETATM   14  C8  UNL     1      24.663   2.057  52.750  1.00  0.00     0.199 C 
HETATM   15  O3  UNL     1      24.690   3.098  53.477  1.00  0.00    -0.289 OA
BRANCH  14  16
HETATM   16  C9  UNL     1      23.648   1.036  52.954  1.00  0.00    -0.002 A 
HETATM   17  C10 UNL     1      23.849  -0.184  53.472  1.00  0.00     0.014 A 
HETATM   18  C11 UNL     1      22.597  -0.932  53.523  1.00  0.00     0.033 A 
HETATM   19  C12 UNL     1      21.662  -0.134  53.031  1.00  0.00     0.047 A 
HETATM   20  C13 UNL     1      22.194   1.191  52.614  1.00  0.00     0.106 A 
BRANCH  19  21
HETATM   21  O4  UNL     1      20.300  -0.359  52.856  1.00  0.00    -0.365 OA
HETATM   22  H10 UNL     1      19.656   0.300  53.272  1.00  0.00     0.217 HD
ENDBRANCH  19  21
ENDBRANCH  14  16
ENDBRANCH   1  14
TORSDOF 8
ENDMDL
