MODEL 1
REMARK VINA RESULT:      -8.0      0.000      0.000
REMARK  6 active torsions:
REMARK  status: ('A' for Active; 'I' for Inactive)
REMARK    1  A    between atoms: C2_2  and  C3_3 
REMARK    2  A    between atoms: C4_5  and  C5_6 
REMARK    3  A    between atoms: C5_6  and  N1_8 
REMARK    4  A    between atoms: N1_8  and  C7_9 
REMARK    5  A    between atoms: C14_19  and  O1_20 
REMARK    6  A    between atoms: C16_22  and  O2_23 
ROOT
HETATM    1  C7  UNL     1      24.593   5.518  50.765  1.00  0.00     0.160 A 
HETATM    2  N2  UNL     1      23.348   6.042  50.939  1.00  0.00    -0.222 NA
HETATM    3  C8  UNL     1      22.344   5.245  51.396  1.00  0.00     0.238 A 
HETATM    4  N3  UNL     1      22.472   3.942  51.702  1.00  0.00    -0.215 NA
HETATM    5  C9  UNL     1      23.686   3.385  51.543  1.00  0.00     0.202 A 
HETATM    6  C10 UNL     1      24.744   4.173  51.075  1.00  0.00     0.129 A 
HETATM    7  N4  UNL     1      26.065   3.755  50.843  1.00  0.00    -0.379 N 
HETATM    8  C11 UNL     1      26.867   2.734  51.426  1.00  0.00     0.161 C 
HETATM    9  C12 UNL     1      26.170   1.755  52.241  1.00  0.00    -0.004 A 
HETATM   10  C13 UNL     1      27.175   1.049  52.907  1.00  0.00     0.051 A 
HETATM   11  C14 UNL     1      26.870   0.013  53.792  1.00  0.00     0.102 A 
HETATM   12  C16 UNL     1      25.541  -0.296  53.993  1.00  0.00     0.104 A 
HETATM   13  C18 UNL     1      24.497   0.375  53.355  1.00  0.00     0.077 A 
HETATM   14  C19 UNL     1      24.840   1.393  52.487  1.00  0.00     0.088 A 
HETATM   15  O3  UNL     1      23.732   2.019  51.886  1.00  0.00    -0.289 OA
HETATM   16  H9  UNL     1      26.540   4.315  50.084  1.00  0.00     0.160 HD
ENDROOT
BRANCH   1  17
HETATM   17  N1  UNL     1      25.686   6.317  50.287  1.00  0.00    -0.343 N 
HETATM   18  H7  UNL     1      25.783   6.831  51.213  1.00  0.00     0.167 HD
BRANCH  17  19
HETATM   19  C5  UNL     1      26.238   6.226  48.959  1.00  0.00     0.012 C 
HETATM   20  C6  UNL     1      25.212   6.576  48.163  1.00  0.00     0.063 C 
BRANCH  19  21
HETATM   21  C4  UNL     1      27.587   5.847  48.550  1.00  0.00     0.044 C 
HETATM   22  C3  UNL     1      28.657   6.548  48.213  1.00  0.00     0.012 C 
HETATM   23 BR1  UNL     1      30.252   5.637  47.734  1.00  0.00    -0.051 Br
BRANCH  22  24
HETATM   24  C2  UNL     1      28.625   7.996  48.205  1.00  0.00     0.009 C 
HETATM   25  C1  UNL     1      29.438   8.659  49.003  1.00  0.00     0.012 C 
ENDBRANCH  22  24
ENDBRANCH  19  21
ENDBRANCH  17  19
ENDBRANCH   1  17
BRANCH  12  26
HETATM   26  O2  UNL     1      25.230  -1.313  54.861  1.00  0.00    -0.353 OA
HETATM   27  C17 UNL     1      24.067  -1.342  55.661  1.00  0.00     0.210 C 
ENDBRANCH  12  26
BRANCH  11  28
HETATM   28  O1  UNL     1      27.840  -0.710  54.472  1.00  0.00    -0.353 OA
HETATM   29  C15 UNL     1      29.224  -0.481  54.166  1.00  0.00     0.210 C 
ENDBRANCH  11  28
TORSDOF 6
ENDMDL
MODEL 2
REMARK VINA RESULT:      -8.0      5.616      8.397
REMARK  6 active torsions:
REMARK  status: ('A' for Active; 'I' for Inactive)
REMARK    1  A    between atoms: C2_2  and  C3_3 
REMARK    2  A    between atoms: C4_5  and  C5_6 
REMARK    3  A    between atoms: C5_6  and  N1_8 
REMARK    4  A    between atoms: N1_8  and  C7_9 
REMARK    5  A    between atoms: C14_19  and  O1_20 
REMARK    6  A    between atoms: C16_22  and  O2_23 
ROOT
HETATM    1  C7  UNL     1      23.026   0.070  53.356  1.00  0.00     0.160 A 
HETATM    2  N2  UNL     1      23.442  -0.826  54.294  1.00  0.00    -0.222 NA
HETATM    3  C8  UNL     1      22.521  -1.560  54.975  1.00  0.00     0.238 A 
HETATM    4  N3  UNL     1      21.190  -1.480  54.802  1.00  0.00    -0.215 NA
HETATM    5  C9  UNL     1      20.736  -0.607  53.884  1.00  0.00     0.202 A 
HETATM    6  C10 UNL     1      21.655   0.167  53.163  1.00  0.00     0.129 A 
HETATM    7  N4  UNL     1      21.357   1.128  52.183  1.00  0.00    -0.379 N 
HETATM    8  C11 UNL     1      20.274   1.267  51.270  1.00  0.00     0.161 C 
HETATM    9  C12 UNL     1      19.112   0.431  51.518  1.00  0.00    -0.004 A 
HETATM   10  C13 UNL     1      18.329   0.542  50.366  1.00  0.00     0.051 A 
HETATM   11  C14 UNL     1      17.115  -0.139  50.246  1.00  0.00     0.102 A 
HETATM   12  C16 UNL     1      16.709  -0.928  51.303  1.00  0.00     0.104 A 
HETATM   13  C18 UNL     1      17.452  -1.074  52.475  1.00  0.00     0.077 A 
HETATM   14  C19 UNL     1      18.645  -0.386  52.554  1.00  0.00     0.088 A 
HETATM   15  O3  UNL     1      19.333  -0.587  53.766  1.00  0.00    -0.289 OA
HETATM   16  H9  UNL     1      22.087   1.888  52.127  1.00  0.00     0.160 HD
ENDROOT
BRANCH   1  17
HETATM   17  N1  UNL     1      23.959   0.867  52.610  1.00  0.00    -0.343 N 
HETATM   18  H7  UNL     1      23.567   0.543  51.675  1.00  0.00     0.167 HD
BRANCH  17  19
HETATM   19  C5  UNL     1      24.963   1.711  53.205  1.00  0.00     0.012 C 
HETATM   20  C6  UNL     1      24.472   2.954  53.042  1.00  0.00     0.063 C 
BRANCH  19  21
HETATM   21  C4  UNL     1      26.221   1.333  53.841  1.00  0.00     0.044 C 
HETATM   22  C3  UNL     1      27.139   0.426  53.555  1.00  0.00     0.012 C 
HETATM   23 BR1  UNL     1      28.664   0.261  54.675  1.00  0.00    -0.051 Br
BRANCH  22  24
HETATM   24  C2  UNL     1      26.996  -0.440  52.403  1.00  0.00     0.009 C 
HETATM   25  C1  UNL     1      26.792  -1.728  52.590  1.00  0.00     0.012 C 
ENDBRANCH  22  24
ENDBRANCH  19  21
ENDBRANCH  17  19
ENDBRANCH   1  17
BRANCH  12  26
HETATM   26  O2  UNL     1      15.517  -1.601  51.194  1.00  0.00    -0.353 OA
HETATM   27  C17 UNL     1      14.936  -2.353  52.239  1.00  0.00     0.210 C 
ENDBRANCH  12  26
BRANCH  11  28
HETATM   28  O1  UNL     1      16.310  -0.054  49.120  1.00  0.00    -0.353 OA
HETATM   29  C15 UNL     1      15.582   1.159  48.870  1.00  0.00     0.210 C 
ENDBRANCH  11  28
TORSDOF 6
ENDMDL
MODEL 3
REMARK VINA RESULT:      -7.9      1.868      2.846
REMARK  6 active torsions:
REMARK  status: ('A' for Active; 'I' for Inactive)
REMARK    1  A    between atoms: C2_2  and  C3_3 
REMARK    2  A    between atoms: C4_5  and  C5_6 
REMARK    3  A    between atoms: C5_6  and  N1_8 
REMARK    4  A    between atoms: N1_8  and  C7_9 
REMARK    5  A    between atoms: C14_19  and  O1_20 
REMARK    6  A    between atoms: C16_22  and  O2_23 
ROOT
HETATM    1  C7  UNL     1      24.519   5.544  50.869  1.00  0.00     0.160 A 
HETATM    2  N2  UNL     1      23.343   6.145  51.200  1.00  0.00    -0.222 NA
HETATM    3  C8  UNL     1      22.354   5.410  51.779  1.00  0.00     0.238 A 
HETATM    4  N3  UNL     1      22.435   4.099  52.065  1.00  0.00    -0.215 NA
HETATM    5  C9  UNL     1      23.581   3.466  51.755  1.00  0.00     0.202 A 
HETATM    6  C10 UNL     1      24.621   4.189  51.157  1.00  0.00     0.129 A 
HETATM    7  N4  UNL     1      25.871   3.689  50.760  1.00  0.00    -0.379 N 
HETATM    8  C11 UNL     1      26.674   2.614  51.236  1.00  0.00     0.161 C 
HETATM    9  C12 UNL     1      26.022   1.674  52.133  1.00  0.00    -0.004 A 
HETATM   10  C13 UNL     1      27.056   0.900  52.666  1.00  0.00     0.051 A 
HETATM   11  C14 UNL     1      26.798  -0.122  53.582  1.00  0.00     0.102 A 
HETATM   12  C16 UNL     1      25.487  -0.347  53.949  1.00  0.00     0.104 A 
HETATM   13  C18 UNL     1      24.418   0.396  53.448  1.00  0.00     0.077 A 
HETATM   14  C19 UNL     1      24.713   1.397  52.545  1.00  0.00     0.088 A 
HETATM   15  O3  UNL     1      23.582   2.098  52.089  1.00  0.00    -0.289 OA
HETATM   16  H9  UNL     1      26.282   4.224  49.947  1.00  0.00     0.160 HD
ENDROOT
BRANCH   1  17
HETATM   17  N1  UNL     1      25.593   6.275  50.257  1.00  0.00    -0.343 N 
HETATM   18  H7  UNL     1      26.126   6.360  51.174  1.00  0.00     0.167 HD
BRANCH  17  19
HETATM   19  C5  UNL     1      25.644   6.625  48.860  1.00  0.00     0.012 C 
HETATM   20  C6  UNL     1      26.857   6.193  48.469  1.00  0.00     0.063 C 
BRANCH  19  21
HETATM   21  C4  UNL     1      24.634   7.287  48.042  1.00  0.00     0.044 C 
HETATM   22  C3  UNL     1      23.512   6.869  47.481  1.00  0.00     0.012 C 
HETATM   23 BR1  UNL     1      22.466   8.091  46.471  1.00  0.00    -0.051 Br
BRANCH  22  24
HETATM   24  C2  UNL     1      23.074   5.496  47.627  1.00  0.00     0.009 C 
HETATM   25  C1  UNL     1      21.842   5.255  48.027  1.00  0.00     0.012 C 
ENDBRANCH  22  24
ENDBRANCH  19  21
ENDBRANCH  17  19
ENDBRANCH   1  17
BRANCH  12  26
HETATM   26  O2  UNL     1      25.224  -1.349  54.849  1.00  0.00    -0.353 OA
HETATM   27  C17 UNL     1      24.089  -1.378  55.690  1.00  0.00     0.210 C 
ENDBRANCH  12  26
BRANCH  11  28
HETATM   28  O1  UNL     1      27.797  -0.911  54.134  1.00  0.00    -0.353 OA
HETATM   29  C15 UNL     1      29.082  -0.327  54.401  1.00  0.00     0.210 C 
ENDBRANCH  11  28
TORSDOF 6
ENDMDL
MODEL 4
REMARK VINA RESULT:      -7.7      2.173      2.751
REMARK  6 active torsions:
REMARK  status: ('A' for Active; 'I' for Inactive)
REMARK    1  A    between atoms: C2_2  and  C3_3 
REMARK    2  A    between atoms: C4_5  and  C5_6 
REMARK    3  A    between atoms: C5_6  and  N1_8 
REMARK    4  A    between atoms: N1_8  and  C7_9 
REMARK    5  A    between atoms: C14_19  and  O1_20 
REMARK    6  A    between atoms: C16_22  and  O2_23 
ROOT
HETATM    1  C7  UNL     1      25.649   7.090  50.162  1.00  0.00     0.160 A 
HETATM    2  N2  UNL     1      24.717   8.035  50.463  1.00  0.00    -0.222 NA
HETATM    3  C8  UNL     1      23.470   7.648  50.848  1.00  0.00     0.238 A 
HETATM    4  N3  UNL     1      23.060   6.372  50.963  1.00  0.00    -0.215 NA
HETATM    5  C9  UNL     1      23.951   5.407  50.674  1.00  0.00     0.202 A 
HETATM    6  C10 UNL     1      25.244   5.767  50.274  1.00  0.00     0.129 A 
HETATM    7  N4  UNL     1      26.289   4.895  49.927  1.00  0.00    -0.379 N 
HETATM    8  C11 UNL     1      26.606   3.566  50.326  1.00  0.00     0.161 C 
HETATM    9  C12 UNL     1      25.562   2.838  51.026  1.00  0.00    -0.004 A 
HETATM   10  C13 UNL     1      26.189   1.702  51.542  1.00  0.00     0.051 A 
HETATM   11  C14 UNL     1      25.481   0.756  52.286  1.00  0.00     0.102 A 
HETATM   12  C16 UNL     1      24.136   0.977  52.500  1.00  0.00     0.104 A 
HETATM   13  C18 UNL     1      23.459   2.094  52.009  1.00  0.00     0.077 A 
HETATM   14  C19 UNL     1      24.195   3.006  51.278  1.00  0.00     0.088 A 
HETATM   15  O3  UNL     1      23.440   4.102  50.821  1.00  0.00    -0.289 OA
HETATM   16  H9  UNL     1      26.961   5.324  49.234  1.00  0.00     0.160 HD
ENDROOT
BRANCH   1  17
HETATM   17  N1  UNL     1      26.978   7.447  49.753  1.00  0.00    -0.343 N 
HETATM   18  H7  UNL     1      27.428   6.865  50.521  1.00  0.00     0.167 HD
BRANCH  17  19
HETATM   19  C5  UNL     1      27.280   8.318  48.645  1.00  0.00     0.012 C 
HETATM   20  C6  UNL     1      27.212   7.505  47.574  1.00  0.00     0.063 C 
BRANCH  19  21
HETATM   21  C4  UNL     1      27.587   9.744  48.655  1.00  0.00     0.044 C 
HETATM   22  C3  UNL     1      28.684  10.428  48.936  1.00  0.00     0.012 C 
HETATM   23 BR1  UNL     1      28.652  12.323  48.823  1.00  0.00    -0.051 Br
BRANCH  22  24
HETATM   24  C2  UNL     1      29.903   9.751  49.329  1.00  0.00     0.009 C 
HETATM   25  C1  UNL     1      31.012   9.990  48.659  1.00  0.00     0.012 C 
ENDBRANCH  22  24
ENDBRANCH  19  21
ENDBRANCH  17  19
ENDBRANCH   1  17
BRANCH  12  26
HETATM   26  O2  UNL     1      23.430   0.054  53.231  1.00  0.00    -0.353 OA
HETATM   27  C17 UNL     1      22.197  -0.501  52.825  1.00  0.00     0.210 C 
ENDBRANCH  12  26
BRANCH  11  28
HETATM   28  O1  UNL     1      26.069  -0.384  52.814  1.00  0.00    -0.353 OA
HETATM   29  C15 UNL     1      26.937  -0.260  53.951  1.00  0.00     0.210 C 
ENDBRANCH  11  28
TORSDOF 6
ENDMDL
MODEL 5
REMARK VINA RESULT:      -7.5      4.123      6.488
REMARK  6 active torsions:
REMARK  status: ('A' for Active; 'I' for Inactive)
REMARK    1  A    between atoms: C2_2  and  C3_3 
REMARK    2  A    between atoms: C4_5  and  C5_6 
REMARK    3  A    between atoms: C5_6  and  N1_8 
REMARK    4  A    between atoms: N1_8  and  C7_9 
REMARK    5  A    between atoms: C14_19  and  O1_20 
REMARK    6  A    between atoms: C16_22  and  O2_23 
ROOT
HETATM    1  C7  UNL     1      25.087   2.379  52.012  1.00  0.00     0.160 A 
HETATM    2  N2  UNL     1      26.051   1.429  52.158  1.00  0.00    -0.222 NA
HETATM    3  C8  UNL     1      25.731   0.228  52.713  1.00  0.00     0.238 A 
HETATM    4  N3  UNL     1      24.506  -0.119  53.145  1.00  0.00    -0.215 NA
HETATM    5  C9  UNL     1      23.524   0.791  53.020  1.00  0.00     0.202 A 
HETATM    6  C10 UNL     1      23.815   2.039  52.454  1.00  0.00     0.129 A 
HETATM    7  N4  UNL     1      22.919   3.102  52.259  1.00  0.00    -0.379 N 
HETATM    8  C11 UNL     1      21.514   3.149  52.040  1.00  0.00     0.161 C 
HETATM    9  C12 UNL     1      20.781   1.922  52.301  1.00  0.00    -0.004 A 
HETATM   10  C13 UNL     1      19.510   2.131  51.763  1.00  0.00     0.051 A 
HETATM   11  C14 UNL     1      18.521   1.147  51.830  1.00  0.00     0.102 A 
HETATM   12  C16 UNL     1      18.838  -0.046  52.448  1.00  0.00     0.104 A 
HETATM   13  C18 UNL     1      20.091  -0.308  53.002  1.00  0.00     0.077 A 
HETATM   14  C19 UNL     1      21.040   0.690  52.915  1.00  0.00     0.088 A 
HETATM   15  O3  UNL     1      22.275   0.346  53.496  1.00  0.00    -0.289 OA
HETATM   16  H9  UNL     1      23.397   4.044  52.283  1.00  0.00     0.160 HD
ENDROOT
BRANCH   1  17
HETATM   17  N1  UNL     1      25.373   3.661  51.432  1.00  0.00    -0.343 N 
HETATM   18  H7  UNL     1      25.561   4.106  52.380  1.00  0.00     0.167 HD
BRANCH  17  19
HETATM   19  C5  UNL     1      25.335   3.938  50.018  1.00  0.00     0.012 C 
HETATM   20  C6  UNL     1      26.572   3.614  49.597  1.00  0.00     0.063 C 
BRANCH  19  21
HETATM   21  C4  UNL     1      24.231   4.449  49.212  1.00  0.00     0.044 C 
HETATM   22  C3  UNL     1      23.209   3.864  48.612  1.00  0.00     0.012 C 
HETATM   23 BR1  UNL     1      21.970   4.927  47.640  1.00  0.00    -0.051 Br
BRANCH  22  24
HETATM   24  C2  UNL     1      23.023   2.430  48.685  1.00  0.00     0.009 C 
HETATM   25  C1  UNL     1      21.809   1.933  48.556  1.00  0.00     0.012 C 
ENDBRANCH  22  24
ENDBRANCH  19  21
ENDBRANCH  17  19
ENDBRANCH   1  17
BRANCH  12  26
HETATM   26  O2  UNL     1      17.873  -1.020  52.519  1.00  0.00    -0.353 OA
HETATM   27  C17 UNL     1      17.865  -2.056  53.478  1.00  0.00     0.210 C 
ENDBRANCH  12  26
BRANCH  11  28
HETATM   28  O1  UNL     1      17.248   1.318  51.307  1.00  0.00    -0.353 OA
HETATM   29  C15 UNL     1      16.543   2.542  51.569  1.00  0.00     0.210 C 
ENDBRANCH  11  28
TORSDOF 6
ENDMDL
MODEL 6
REMARK VINA RESULT:      -7.4      3.921      8.163
REMARK  6 active torsions:
REMARK  status: ('A' for Active; 'I' for Inactive)
REMARK    1  A    between atoms: C2_2  and  C3_3 
REMARK    2  A    between atoms: C4_5  and  C5_6 
REMARK    3  A    between atoms: C5_6  and  N1_8 
REMARK    4  A    between atoms: N1_8  and  C7_9 
REMARK    5  A    between atoms: C14_19  and  O1_20 
REMARK    6  A    between atoms: C16_22  and  O2_23 
ROOT
HETATM    1  C7  UNL     1      24.876   1.843  52.802  1.00  0.00     0.160 A 
HETATM    2  N2  UNL     1      25.903   1.344  53.545  1.00  0.00    -0.222 NA
HETATM    3  C8  UNL     1      27.182   1.491  53.104  1.00  0.00     0.238 A 
HETATM    4  N3  UNL     1      27.539   2.106  51.963  1.00  0.00    -0.215 NA
HETATM    5  C9  UNL     1      26.555   2.613  51.199  1.00  0.00     0.202 A 
HETATM    6  C10 UNL     1      25.225   2.481  51.619  1.00  0.00     0.129 A 
HETATM    7  N4  UNL     1      24.081   2.938  50.945  1.00  0.00    -0.379 N 
HETATM    8  C11 UNL     1      23.862   4.022  50.049  1.00  0.00     0.161 C 
HETATM    9  C12 UNL     1      25.049   4.656  49.502  1.00  0.00    -0.004 A 
HETATM   10  C13 UNL     1      24.593   5.828  48.895  1.00  0.00     0.051 A 
HETATM   11  C14 UNL     1      25.473   6.704  48.255  1.00  0.00     0.102 A 
HETATM   12  C16 UNL     1      26.813   6.378  48.241  1.00  0.00     0.104 A 
HETATM   13  C18 UNL     1      27.323   5.221  48.832  1.00  0.00     0.077 A 
HETATM   14  C19 UNL     1      26.421   4.381  49.454  1.00  0.00     0.088 A 
HETATM   15  O3  UNL     1      27.014   3.240  50.024  1.00  0.00    -0.289 OA
HETATM   16  H9  UNL     1      23.227   2.353  51.152  1.00  0.00     0.160 HD
ENDROOT
BRANCH   1  17
HETATM   17  N1  UNL     1      23.510   1.715  53.224  1.00  0.00    -0.343 N 
HETATM   18  H7  UNL     1      23.503   2.680  53.671  1.00  0.00     0.167 HD
BRANCH  17  19
HETATM   19  C5  UNL     1      22.691   0.555  52.980  1.00  0.00     0.012 C 
HETATM   20  C6  UNL     1      23.507  -0.477  53.263  1.00  0.00     0.063 C 
BRANCH  19  21
HETATM   21  C4  UNL     1      21.302   0.489  52.534  1.00  0.00     0.044 C 
HETATM   22  C3  UNL     1      20.738   0.506  51.339  1.00  0.00     0.012 C 
HETATM   23 BR1  UNL     1      18.847   0.396  51.202  1.00  0.00    -0.051 Br
BRANCH  22  24
HETATM   24  C2  UNL     1      21.541   0.608  50.138  1.00  0.00     0.009 C 
HETATM   25  C1  UNL     1      21.155   1.422  49.177  1.00  0.00     0.012 C 
ENDBRANCH  22  24
ENDBRANCH  19  21
ENDBRANCH  17  19
ENDBRANCH   1  17
BRANCH  12  26
HETATM   26  O2  UNL     1      27.687   7.233  47.616  1.00  0.00    -0.353 OA
HETATM   27  C17 UNL     1      29.092   7.129  47.700  1.00  0.00     0.210 C 
ENDBRANCH  12  26
BRANCH  11  28
HETATM   28  O1  UNL     1      25.058   7.877  47.641  1.00  0.00    -0.353 OA
HETATM   29  C15 UNL     1      24.204   7.798  46.490  1.00  0.00     0.210 C 
ENDBRANCH  11  28
TORSDOF 6
ENDMDL
MODEL 7
REMARK VINA RESULT:      -7.4      4.056      8.100
REMARK  6 active torsions:
REMARK  status: ('A' for Active; 'I' for Inactive)
REMARK    1  A    between atoms: C2_2  and  C3_3 
REMARK    2  A    between atoms: C4_5  and  C5_6 
REMARK    3  A    between atoms: C5_6  and  N1_8 
REMARK    4  A    between atoms: N1_8  and  C7_9 
REMARK    5  A    between atoms: C14_19  and  O1_20 
REMARK    6  A    between atoms: C16_22  and  O2_23 
ROOT
HETATM    1  C7  UNL     1      24.360   3.919  51.405  1.00  0.00     0.160 A 
HETATM    2  N2  UNL     1      24.793   2.917  52.219  1.00  0.00    -0.222 NA
HETATM    3  C8  UNL     1      25.991   2.321  51.971  1.00  0.00     0.238 A 
HETATM    4  N3  UNL     1      26.818   2.643  50.961  1.00  0.00    -0.215 NA
HETATM    5  C9  UNL     1      26.428   3.629  50.132  1.00  0.00     0.202 A 
HETATM    6  C10 UNL     1      25.201   4.265  50.355  1.00  0.00     0.129 A 
HETATM    7  N4  UNL     1      24.638   5.298  49.588  1.00  0.00    -0.379 N 
HETATM    8  C11 UNL     1      25.214   6.329  48.793  1.00  0.00     0.161 C 
HETATM    9  C12 UNL     1      26.626   6.188  48.481  1.00  0.00    -0.004 A 
HETATM   10  C13 UNL     1      27.008   7.422  47.948  1.00  0.00     0.051 A 
HETATM   11  C14 UNL     1      28.320   7.657  47.531  1.00  0.00     0.102 A 
HETATM   12  C16 UNL     1      29.233   6.630  47.660  1.00  0.00     0.104 A 
HETATM   13  C18 UNL     1      28.906   5.380  48.184  1.00  0.00     0.077 A 
HETATM   14  C19 UNL     1      27.599   5.187  48.586  1.00  0.00     0.088 A 
HETATM   15  O3  UNL     1      27.351   3.902  49.103  1.00  0.00    -0.289 OA
HETATM   16  H9  UNL     1      23.583   5.294  49.615  1.00  0.00     0.160 HD
ENDROOT
BRANCH   1  17
HETATM   17  N1  UNL     1      23.105   4.579  51.625  1.00  0.00    -0.343 N 
HETATM   18  H7  UNL     1      23.571   5.518  51.805  1.00  0.00     0.167 HD
BRANCH  17  19
HETATM   19  C5  UNL     1      21.822   3.926  51.558  1.00  0.00     0.012 C 
HETATM   20  C6  UNL     1      21.178   4.589  50.579  1.00  0.00     0.063 C 
BRANCH  19  21
HETATM   21  C4  UNL     1      21.318   2.809  52.350  1.00  0.00     0.044 C 
HETATM   22  C3  UNL     1      21.361   1.498  52.188  1.00  0.00     0.012 C 
HETATM   23 BR1  UNL     1      20.559   0.373  53.492  1.00  0.00    -0.051 Br
BRANCH  22  24
HETATM   24  C2  UNL     1      22.009   0.911  51.033  1.00  0.00     0.009 C 
HETATM   25  C1  UNL     1      21.315   0.740  49.927  1.00  0.00     0.012 C 
ENDBRANCH  22  24
ENDBRANCH  19  21
ENDBRANCH  17  19
ENDBRANCH   1  17
BRANCH  12  26
HETATM   26  O2  UNL     1      30.525   6.851  47.252  1.00  0.00    -0.353 OA
HETATM   27  C17 UNL     1      31.655   6.243  47.842  1.00  0.00     0.210 C 
ENDBRANCH  12  26
BRANCH  11  28
HETATM   28  O1  UNL     1      28.738   8.867  46.997  1.00  0.00    -0.353 OA
HETATM   29  C15 UNL     1      28.933   9.987  47.875  1.00  0.00     0.210 C 
ENDBRANCH  11  28
TORSDOF 6
ENDMDL
MODEL 8
REMARK VINA RESULT:      -7.3      4.313      8.745
REMARK  6 active torsions:
REMARK  status: ('A' for Active; 'I' for Inactive)
REMARK    1  A    between atoms: C2_2  and  C3_3 
REMARK    2  A    between atoms: C4_5  and  C5_6 
REMARK    3  A    between atoms: C5_6  and  N1_8 
REMARK    4  A    between atoms: N1_8  and  C7_9 
REMARK    5  A    between atoms: C14_19  and  O1_20 
REMARK    6  A    between atoms: C16_22  and  O2_23 
ROOT
HETATM    1  C7  UNL     1      24.391   2.443  51.225  1.00  0.00     0.160 A 
HETATM    2  N2  UNL     1      25.189   1.753  52.086  1.00  0.00    -0.222 NA
HETATM    3  C8  UNL     1      26.541   1.865  51.983  1.00  0.00     0.238 A 
HETATM    4  N3  UNL     1      27.186   2.623  51.078  1.00  0.00    -0.215 NA
HETATM    5  C9  UNL     1      26.434   3.322  50.208  1.00  0.00     0.202 A 
HETATM    6  C10 UNL     1      25.039   3.231  50.283  1.00  0.00     0.129 A 
HETATM    7  N4  UNL     1      24.109   3.879  49.453  1.00  0.00    -0.379 N 
HETATM    8  C11 UNL     1      24.155   5.106  48.732  1.00  0.00     0.161 C 
HETATM    9  C12 UNL     1      25.463   5.721  48.591  1.00  0.00    -0.004 A 
HETATM   10  C13 UNL     1      25.213   7.008  48.107  1.00  0.00     0.051 A 
HETATM   11  C14 UNL     1      26.255   7.901  47.849  1.00  0.00     0.102 A 
HETATM   12  C16 UNL     1      27.546   7.475  48.087  1.00  0.00     0.104 A 
HETATM   13  C18 UNL     1      27.852   6.202  48.569  1.00  0.00     0.077 A 
HETATM   14  C19 UNL     1      26.795   5.349  48.812  1.00  0.00     0.088 A 
HETATM   15  O3  UNL     1      27.187   4.088  49.297  1.00  0.00    -0.289 OA
HETATM   16  H9  UNL     1      23.208   3.338  49.355  1.00  0.00     0.160 HD
ENDROOT
BRANCH   1  17
HETATM   17  N1  UNL     1      22.959   2.360  51.293  1.00  0.00    -0.343 N 
HETATM   18  H7  UNL     1      22.849   3.415  51.371  1.00  0.00     0.167 HD
BRANCH  17  19
HETATM   19  C5  UNL     1      22.216   1.126  51.250  1.00  0.00     0.012 C 
HETATM   20  C6  UNL     1      21.732   1.090  49.994  1.00  0.00     0.063 C 
BRANCH  19  21
HETATM   21  C4  UNL     1      22.020   0.134  52.302  1.00  0.00     0.044 C 
HETATM   22  C3  UNL     1      20.967  -0.227  53.015  1.00  0.00     0.012 C 
HETATM   23 BR1  UNL     1      21.151  -1.597  54.317  1.00  0.00    -0.051 Br
BRANCH  22  24
HETATM   24  C2  UNL     1      19.680   0.406  52.816  1.00  0.00     0.009 C 
HETATM   25  C1  UNL     1      18.690  -0.298  52.304  1.00  0.00     0.012 C 
ENDBRANCH  22  24
ENDBRANCH  19  21
ENDBRANCH  17  19
ENDBRANCH   1  17
BRANCH  12  26
HETATM   26  O2  UNL     1      28.577   8.346  47.836  1.00  0.00    -0.353 OA
HETATM   27  C17 UNL     1      29.462   8.828  48.825  1.00  0.00     0.210 C 
ENDBRANCH  12  26
BRANCH  11  28
HETATM   28  O1  UNL     1      26.047   9.186  47.369  1.00  0.00    -0.353 OA
HETATM   29  C15 UNL     1      25.655   9.364  45.998  1.00  0.00     0.210 C 
ENDBRANCH  11  28
TORSDOF 6
ENDMDL
MODEL 9
REMARK VINA RESULT:      -7.2      4.073      8.302
REMARK  6 active torsions:
REMARK  status: ('A' for Active; 'I' for Inactive)
REMARK    1  A    between atoms: C2_2  and  C3_3 
REMARK    2  A    between atoms: C4_5  and  C5_6 
REMARK    3  A    between atoms: C5_6  and  N1_8 
REMARK    4  A    between atoms: N1_8  and  C7_9 
REMARK    5  A    between atoms: C14_19  and  O1_20 
REMARK    6  A    between atoms: C16_22  and  O2_23 
ROOT
HETATM    1  C7  UNL     1      23.823   0.458  52.853  1.00  0.00     0.160 A 
HETATM    2  N2  UNL     1      24.711   0.218  53.857  1.00  0.00    -0.222 NA
HETATM    3  C8  UNL     1      25.961   0.750  53.788  1.00  0.00     0.238 A 
HETATM    4  N3  UNL     1      26.418   1.519  52.785  1.00  0.00    -0.215 NA
HETATM    5  C9  UNL     1      25.572   1.782  51.772  1.00  0.00     0.202 A 
HETATM    6  C10 UNL     1      24.276   1.251  51.807  1.00  0.00     0.129 A 
HETATM    7  N4  UNL     1      23.275   1.414  50.837  1.00  0.00    -0.379 N 
HETATM    8  C11 UNL     1      23.000   2.453  49.903  1.00  0.00     0.161 C 
HETATM    9  C12 UNL     1      24.053   3.433  49.702  1.00  0.00    -0.004 A 
HETATM   10  C13 UNL     1      23.458   4.469  48.979  1.00  0.00     0.051 A 
HETATM   11  C14 UNL     1      24.183   5.601  48.601  1.00  0.00     0.102 A 
HETATM   12  C16 UNL     1      25.513   5.667  48.963  1.00  0.00     0.104 A 
HETATM   13  C18 UNL     1      26.158   4.662  49.685  1.00  0.00     0.077 A 
HETATM   14  C19 UNL     1      25.406   3.560  50.040  1.00  0.00     0.088 A 
HETATM   15  O3  UNL     1      26.129   2.594  50.765  1.00  0.00    -0.289 OA
HETATM   16  H9  UNL     1      22.605   0.599  50.805  1.00  0.00     0.160 HD
ENDROOT
BRANCH   1  17
HETATM   17  N1  UNL     1      22.492  -0.079  52.880  1.00  0.00    -0.343 N 
HETATM   18  H7  UNL     1      22.787  -0.973  52.385  1.00  0.00     0.167 HD
BRANCH  17  19
HETATM   19  C5  UNL     1      21.354   0.598  53.449  1.00  0.00     0.012 C 
HETATM   20  C6  UNL     1      21.190  -0.003  54.642  1.00  0.00     0.063 C 
BRANCH  19  21
HETATM   21  C4  UNL     1      20.555   1.683  52.887  1.00  0.00     0.044 C 
HETATM   22  C3  UNL     1      19.674   1.737  51.903  1.00  0.00     0.012 C 
HETATM   23 BR1  UNL     1      18.844   3.394  51.488  1.00  0.00    -0.051 Br
BRANCH  22  24
HETATM   24  C2  UNL     1      19.336   0.552  51.141  1.00  0.00     0.009 C 
HETATM   25  C1  UNL     1      18.300  -0.173  51.510  1.00  0.00     0.012 C 
ENDBRANCH  22  24
ENDBRANCH  19  21
ENDBRANCH  17  19
ENDBRANCH   1  17
BRANCH  12  26
HETATM   26  O2  UNL     1      26.235   6.776  48.596  1.00  0.00    -0.353 OA
HETATM   27  C17 UNL     1      27.565   6.732  48.123  1.00  0.00     0.210 C 
ENDBRANCH  12  26
BRANCH  11  28
HETATM   28  O1  UNL     1      23.627   6.650  47.883  1.00  0.00    -0.353 OA
HETATM   29  C15 UNL     1      22.589   6.372  46.930  1.00  0.00     0.210 C 
ENDBRANCH  11  28
TORSDOF 6
ENDMDL
