MODEL 1
REMARK VINA RESULT:      -9.0      0.000      0.000
REMARK  0 active torsions:
REMARK  status: ('A' for Active; 'I' for Inactive)
ROOT
HETATM    1  C1  UNL     1      21.560  -1.277  54.846  1.00  0.00     0.054 C 
HETATM    2  C2  UNL     1      22.963  -0.948  54.411  1.00  0.00     0.002 A 
HETATM    3  C3  UNL     1      23.972  -1.229  55.332  1.00  0.00     0.146 A 
HETATM    4  N1  UNL     1      25.203  -0.921  54.903  1.00  0.00    -0.075 NA
HETATM    5  C4  UNL     1      25.446  -0.388  53.690  1.00  0.00     0.724 A 
HETATM    6  N2  UNL     1      24.449  -0.132  52.830  1.00  0.00    -0.045 NA
HETATM    7  C5  UNL     1      23.160  -0.398  53.145  1.00  0.00     0.150 A 
HETATM    8  N3  UNL     1      22.034  -0.181  52.355  1.00  0.00    -0.370 N 
HETATM    9  C6  UNL     1      21.928   0.965  51.456  1.00  0.00     0.149 C 
HETATM   10  C7  UNL     1      22.141   2.106  52.377  1.00  0.00     0.007 C 
HETATM   11  C8  UNL     1      21.288   3.093  52.146  1.00  0.00    -0.004 C 
HETATM   12  C9  UNL     1      21.028   3.151  50.846  1.00  0.00     0.018 C 
HETATM   13  C10 UNL     1      19.808   3.501  50.124  1.00  0.00     0.059 C 
HETATM   14  C11 UNL     1      19.670   2.386  49.112  1.00  0.00     0.026 C 
HETATM   15  C12 UNL     1      21.096   2.172  48.729  1.00  0.00     0.123 C 
HETATM   16  N4  UNL     1      21.917   2.879  49.761  1.00  0.00    -0.381 N 
HETATM   17  C13 UNL     1      23.323   3.162  49.373  1.00  0.00     0.149 C 
HETATM   18  C14 UNL     1      24.054   4.075  50.278  1.00  0.00     0.187 C 
HETATM   19  O1  UNL     1      25.303   4.276  49.762  1.00  0.00    -0.386 OA
HETATM   20  C15 UNL     1      26.143   3.226  49.603  1.00  0.00     0.194 C 
HETATM   21  C16 UNL     1      26.577   2.512  50.792  1.00  0.00    -0.003 C 
HETATM   22  C17 UNL     1      26.759   1.527  51.633  1.00  0.00    -0.004 C 
HETATM   23  C18 UNL     1      27.338   1.124  52.943  1.00  0.00     0.118 C 
HETATM   24  C19 UNL     1      27.078   2.158  54.018  1.00  0.00     0.037 C 
HETATM   25  N5  UNL     1      26.799  -0.118  53.393  1.00  0.00    -0.215 N 
HETATM   26  H5  UNL     1      21.288  -0.899  52.457  1.00  0.00     0.161 HD
HETATM   27  H27 UNL     1      27.420  -0.944  53.534  1.00  0.00     0.178 HD
ENDROOT
TORSDOF 0
ENDMDL
MODEL 2
REMARK VINA RESULT:      -8.8      2.129      6.929
REMARK  0 active torsions:
REMARK  status: ('A' for Active; 'I' for Inactive)
ROOT
HETATM    1  C1  UNL     1      26.437   4.881  49.588  1.00  0.00     0.054 C 
HETATM    2  C2  UNL     1      25.103   4.196  49.709  1.00  0.00     0.002 A 
HETATM    3  C3  UNL     1      23.994   4.942  49.307  1.00  0.00     0.146 A 
HETATM    4  N1  UNL     1      22.828   4.293  49.433  1.00  0.00    -0.075 NA
HETATM    5  C4  UNL     1      22.734   3.035  49.903  1.00  0.00     0.724 A 
HETATM    6  N2  UNL     1      23.824   2.349  50.278  1.00  0.00    -0.045 NA
HETATM    7  C5  UNL     1      25.061   2.893  50.201  1.00  0.00     0.150 A 
HETATM    8  N3  UNL     1      26.269   2.300  50.558  1.00  0.00    -0.370 N 
HETATM    9  C6  UNL     1      26.377   1.384  51.691  1.00  0.00     0.149 C 
HETATM   10  C7  UNL     1      25.854   2.203  52.808  1.00  0.00     0.007 C 
HETATM   11  C8  UNL     1      26.593   2.080  53.900  1.00  0.00    -0.004 C 
HETATM   12  C9  UNL     1      27.069   0.843  53.968  1.00  0.00     0.018 C 
HETATM   13  C10 UNL     1      28.339   0.327  54.471  1.00  0.00     0.059 C 
HETATM   14  C11 UNL     1      28.802  -0.596  53.367  1.00  0.00     0.026 C 
HETATM   15  C12 UNL     1      27.508  -1.209  52.948  1.00  0.00     0.123 C 
HETATM   16  N4  UNL     1      26.430  -0.366  53.554  1.00  0.00    -0.381 N 
HETATM   17  C13 UNL     1      25.090  -1.003  53.630  1.00  0.00     0.149 C 
HETATM   18  C14 UNL     1      24.094  -0.278  54.449  1.00  0.00     0.187 C 
HETATM   19  O1  UNL     1      22.941  -1.009  54.464  1.00  0.00    -0.386 OA
HETATM   20  C15 UNL     1      22.291  -1.265  53.304  1.00  0.00     0.194 C 
HETATM   21  C16 UNL     1      21.754  -0.138  52.559  1.00  0.00    -0.003 C 
HETATM   22  C17 UNL     1      21.560   0.701  51.575  1.00  0.00    -0.004 C 
HETATM   23  C18 UNL     1      20.818   1.908  51.121  1.00  0.00     0.118 C 
HETATM   24  C19 UNL     1      20.743   2.965  52.201  1.00  0.00     0.037 C 
HETATM   25  N5  UNL     1      21.430   2.498  49.975  1.00  0.00    -0.215 N 
HETATM   26  H5  UNL     1      27.075   2.560  49.954  1.00  0.00     0.161 HD
HETATM   27  H27 UNL     1      20.911   2.566  49.073  1.00  0.00     0.178 HD
ENDROOT
TORSDOF 0
ENDMDL
MODEL 3
REMARK VINA RESULT:      -8.5      2.348      4.780
REMARK  0 active torsions:
REMARK  status: ('A' for Active; 'I' for Inactive)
ROOT
HETATM    1  C1  UNL     1      24.839   4.659  48.943  1.00  0.00     0.054 C 
HETATM    2  C2  UNL     1      25.343   3.815  50.082  1.00  0.00     0.002 A 
HETATM    3  C3  UNL     1      26.722   3.614  50.132  1.00  0.00     0.146 A 
HETATM    4  N1  UNL     1      27.125   2.857  51.161  1.00  0.00    -0.075 NA
HETATM    5  C4  UNL     1      26.276   2.337  52.068  1.00  0.00     0.724 A 
HETATM    6  N2  UNL     1      24.955   2.553  51.987  1.00  0.00    -0.045 NA
HETATM    7  C5  UNL     1      24.422   3.301  50.993  1.00  0.00     0.150 A 
HETATM    8  N3  UNL     1      23.077   3.601  50.788  1.00  0.00    -0.370 N 
HETATM    9  C6  UNL     1      22.015   2.645  51.093  1.00  0.00     0.149 C 
HETATM   10  C7  UNL     1      22.412   1.469  50.285  1.00  0.00     0.007 C 
HETATM   11  C8  UNL     1      21.376   0.925  49.663  1.00  0.00    -0.004 C 
HETATM   12  C9  UNL     1      20.296   1.047  50.425  1.00  0.00     0.018 C 
HETATM   13  C10 UNL     1      18.893   1.260  50.077  1.00  0.00     0.059 C 
HETATM   14  C11 UNL     1      18.475   2.388  50.993  1.00  0.00     0.026 C 
HETATM   15  C12 UNL     1      19.208   2.026  52.242  1.00  0.00     0.123 C 
HETATM   16  N4  UNL     1      20.217   0.993  51.851  1.00  0.00    -0.381 N 
HETATM   17  C13 UNL     1      20.770   0.186  52.969  1.00  0.00     0.149 C 
HETATM   18  C14 UNL     1      21.567  -0.991  52.561  1.00  0.00     0.187 C 
HETATM   19  O1  UNL     1      21.958  -1.652  53.691  1.00  0.00    -0.386 OA
HETATM   20  C15 UNL     1      22.737  -1.026  54.603  1.00  0.00     0.194 C 
HETATM   21  C16 UNL     1      24.069  -0.613  54.193  1.00  0.00    -0.003 C 
HETATM   22  C17 UNL     1      25.088   0.168  53.940  1.00  0.00    -0.004 C 
HETATM   23  C18 UNL     1      26.496   0.231  53.461  1.00  0.00     0.118 C 
HETATM   24  C19 UNL     1      26.726  -0.665  52.263  1.00  0.00     0.037 C 
HETATM   25  N5  UNL     1      26.862   1.559  53.089  1.00  0.00    -0.215 N 
HETATM   26  H5  UNL     1      22.898   4.552  50.408  1.00  0.00     0.161 HD
HETATM   27  H27 UNL     1      27.633   2.054  53.588  1.00  0.00     0.178 HD
ENDROOT
TORSDOF 0
ENDMDL
MODEL 4
REMARK VINA RESULT:      -8.3      2.221      4.979
REMARK  0 active torsions:
REMARK  status: ('A' for Active; 'I' for Inactive)
ROOT
HETATM    1  C1  UNL     1      26.945   0.572  52.751  1.00  0.00     0.054 C 
HETATM    2  C2  UNL     1      25.460   0.592  52.989  1.00  0.00     0.002 A 
HETATM    3  C3  UNL     1      24.888  -0.615  53.392  1.00  0.00     0.146 A 
HETATM    4  N1  UNL     1      23.564  -0.550  53.592  1.00  0.00    -0.075 NA
HETATM    5  C4  UNL     1      22.849   0.579  53.421  1.00  0.00     0.724 A 
HETATM    6  N2  UNL     1      23.436   1.721  53.033  1.00  0.00    -0.045 NA
HETATM    7  C5  UNL     1      24.767   1.787  52.798  1.00  0.00     0.150 A 
HETATM    8  N3  UNL     1      25.500   2.898  52.391  1.00  0.00    -0.370 N 
HETATM    9  C6  UNL     1      24.950   3.896  51.476  1.00  0.00     0.149 C 
HETATM   10  C7  UNL     1      24.568   3.072  50.307  1.00  0.00     0.007 C 
HETATM   11  C8  UNL     1      24.911   3.647  49.163  1.00  0.00    -0.004 C 
HETATM   12  C9  UNL     1      24.801   4.963  49.286  1.00  0.00     0.018 C 
HETATM   13  C10 UNL     1      25.586   6.052  48.711  1.00  0.00     0.059 C 
HETATM   14  C11 UNL     1      25.869   6.942  49.900  1.00  0.00     0.026 C 
HETATM   15  C12 UNL     1      24.575   6.852  50.638  1.00  0.00     0.123 C 
HETATM   16  N4  UNL     1      23.834   5.696  50.043  1.00  0.00    -0.381 N 
HETATM   17  C13 UNL     1      22.375   5.666  50.315  1.00  0.00     0.149 C 
HETATM   18  C14 UNL     1      21.608   4.677  49.527  1.00  0.00     0.187 C 
HETATM   19  O1  UNL     1      20.287   4.807  49.850  1.00  0.00    -0.386 OA
HETATM   20  C15 UNL     1      19.881   4.600  51.124  1.00  0.00     0.194 C 
HETATM   21  C16 UNL     1      20.050   3.271  51.688  1.00  0.00    -0.003 C 
HETATM   22  C17 UNL     1      20.458   2.321  52.489  1.00  0.00    -0.004 C 
HETATM   23  C18 UNL     1      20.412   0.863  52.786  1.00  0.00     0.118 C 
HETATM   24  C19 UNL     1      20.531   0.026  51.531  1.00  0.00     0.037 C 
HETATM   25  N5  UNL     1      21.464   0.477  53.670  1.00  0.00    -0.215 N 
HETATM   26  H5  UNL     1      26.458   2.957  52.791  1.00  0.00     0.161 HD
HETATM   27  H27 UNL     1      21.246   0.073  54.606  1.00  0.00     0.178 HD
ENDROOT
TORSDOF 0
ENDMDL
MODEL 5
REMARK VINA RESULT:      -7.7      2.177      5.127
REMARK  0 active torsions:
REMARK  status: ('A' for Active; 'I' for Inactive)
ROOT
HETATM    1  C1  UNL     1      19.371   2.626  49.061  1.00  0.00     0.054 C 
HETATM    2  C2  UNL     1      19.832   1.614  50.075  1.00  0.00     0.002 A 
HETATM    3  C3  UNL     1      18.826   0.934  50.762  1.00  0.00     0.146 A 
HETATM    4  N1  UNL     1      19.281   0.044  51.653  1.00  0.00    -0.075 NA
HETATM    5  C4  UNL     1      20.592  -0.177  51.868  1.00  0.00     0.724 A 
HETATM    6  N2  UNL     1      21.531   0.496  51.186  1.00  0.00    -0.045 NA
HETATM    7  C5  UNL     1      21.200   1.423  50.257  1.00  0.00     0.150 A 
HETATM    8  N3  UNL     1      22.066   2.193  49.485  1.00  0.00    -0.370 N 
HETATM    9  C6  UNL     1      23.341   2.681  50.004  1.00  0.00     0.149 C 
HETATM   10  C7  UNL     1      22.922   3.430  51.211  1.00  0.00     0.007 C 
HETATM   11  C8  UNL     1      23.556   4.588  51.319  1.00  0.00    -0.004 C 
HETATM   12  C9  UNL     1      24.789   4.457  50.846  1.00  0.00     0.018 C 
HETATM   13  C10 UNL     1      25.648   5.395  50.128  1.00  0.00     0.059 C 
HETATM   14  C11 UNL     1      26.157   4.577  48.962  1.00  0.00     0.026 C 
HETATM   15  C12 UNL     1      26.359   3.250  49.613  1.00  0.00     0.123 C 
HETATM   16  N4  UNL     1      25.642   3.313  50.925  1.00  0.00    -0.381 N 
HETATM   17  C13 UNL     1      26.040   2.286  51.920  1.00  0.00     0.149 C 
HETATM   18  C14 UNL     1      25.523   2.501  53.289  1.00  0.00     0.187 C 
HETATM   19  O1  UNL     1      26.015   1.511  54.091  1.00  0.00    -0.386 OA
HETATM   20  C15 UNL     1      25.718   0.217  53.825  1.00  0.00     0.194 C 
HETATM   21  C16 UNL     1      24.326  -0.194  53.904  1.00  0.00    -0.003 C 
HETATM   22  C17 UNL     1      23.163  -0.664  53.535  1.00  0.00    -0.004 C 
HETATM   23  C18 UNL     1      21.772  -0.973  53.965  1.00  0.00     0.118 C 
HETATM   24  C19 UNL     1      21.192   0.121  54.835  1.00  0.00     0.037 C 
HETATM   25  N5  UNL     1      20.905  -1.146  52.845  1.00  0.00    -0.215 N 
HETATM   26  H5  UNL     1      21.732   2.383  48.518  1.00  0.00     0.161 HD
HETATM   27  H27 UNL     1      20.426  -2.059  52.682  1.00  0.00     0.178 HD
ENDROOT
TORSDOF 0
ENDMDL
MODEL 6
REMARK VINA RESULT:      -7.7      1.933      2.401
REMARK  0 active torsions:
REMARK  status: ('A' for Active; 'I' for Inactive)
ROOT
HETATM    1  C1  UNL     1      20.576   0.612  53.041  1.00  0.00     0.054 C 
HETATM    2  C2  UNL     1      22.041   0.606  52.699  1.00  0.00     0.002 A 
HETATM    3  C3  UNL     1      22.854  -0.195  53.501  1.00  0.00     0.146 A 
HETATM    4  N1  UNL     1      24.150  -0.169  53.161  1.00  0.00    -0.075 NA
HETATM    5  C4  UNL     1      24.626   0.563  52.135  1.00  0.00     0.724 A 
HETATM    6  N2  UNL     1      23.812   1.320  51.385  1.00  0.00    -0.045 NA
HETATM    7  C5  UNL     1      22.482   1.381  51.628  1.00  0.00     0.150 A 
HETATM    8  N3  UNL     1      21.529   2.124  50.935  1.00  0.00    -0.370 N 
HETATM    9  C6  UNL     1      21.828   3.442  50.381  1.00  0.00     0.149 C 
HETATM   10  C7  UNL     1      22.296   4.185  51.574  1.00  0.00     0.007 C 
HETATM   11  C8  UNL     1      21.787   5.407  51.626  1.00  0.00    -0.004 C 
HETATM   12  C9  UNL     1      21.650   5.876  50.392  1.00  0.00     0.018 C 
HETATM   13  C10 UNL     1      20.642   6.752  49.803  1.00  0.00     0.059 C 
HETATM   14  C11 UNL     1      20.259   6.033  48.528  1.00  0.00     0.026 C 
HETATM   15  C12 UNL     1      21.585   5.509  48.089  1.00  0.00     0.123 C 
HETATM   16  N4  UNL     1      22.499   5.643  49.266  1.00  0.00    -0.381 N 
HETATM   17  C13 UNL     1      23.951   5.582  48.957  1.00  0.00     0.149 C 
HETATM   18  C14 UNL     1      24.848   5.964  50.069  1.00  0.00     0.187 C 
HETATM   19  O1  UNL     1      26.135   5.908  49.617  1.00  0.00    -0.386 OA
HETATM   20  C15 UNL     1      26.642   4.735  49.172  1.00  0.00     0.194 C 
HETATM   21  C16 UNL     1      26.761   3.639  50.120  1.00  0.00    -0.003 C 
HETATM   22  C17 UNL     1      26.587   2.461  50.661  1.00  0.00    -0.004 C 
HETATM   23  C18 UNL     1      26.926   1.577  51.809  1.00  0.00     0.118 C 
HETATM   24  C19 UNL     1      26.900   2.323  53.125  1.00  0.00     0.037 C 
HETATM   25  N5  UNL     1      26.017   0.481  51.911  1.00  0.00    -0.215 N 
HETATM   26  H5  UNL     1      20.601   1.663  50.845  1.00  0.00     0.161 HD
HETATM   27  H27 UNL     1      26.359  -0.500  51.818  1.00  0.00     0.178 HD
ENDROOT
TORSDOF 0
ENDMDL
MODEL 7
REMARK VINA RESULT:      -7.7      8.567     12.119
REMARK  0 active torsions:
REMARK  status: ('A' for Active; 'I' for Inactive)
ROOT
HETATM    1  C1  UNL     1      27.920   4.977  48.520  1.00  0.00     0.054 C 
HETATM    2  C2  UNL     1      28.191   6.446  48.345  1.00  0.00     0.002 A 
HETATM    3  C3  UNL     1      27.088   7.240  48.031  1.00  0.00     0.146 A 
HETATM    4  N1  UNL     1      27.376   8.540  47.884  1.00  0.00    -0.075 NA
HETATM    5  C4  UNL     1      28.619   9.038  48.027  1.00  0.00     0.724 A 
HETATM    6  N2  UNL     1      29.655   8.243  48.331  1.00  0.00    -0.045 NA
HETATM    7  C5  UNL     1      29.496   6.910  48.504  1.00  0.00     0.150 A 
HETATM    8  N3  UNL     1      30.479   5.975  48.816  1.00  0.00    -0.370 N 
HETATM    9  C6  UNL     1      31.842   6.083  48.303  1.00  0.00     0.149 C 
HETATM   10  C7  UNL     1      31.623   6.135  46.839  1.00  0.00     0.007 C 
HETATM   11  C8  UNL     1      32.486   5.373  46.183  1.00  0.00    -0.004 C 
HETATM   12  C9  UNL     1      33.650   5.384  46.820  1.00  0.00     0.018 C 
HETATM   13  C10 UNL     1      34.662   4.345  46.990  1.00  0.00     0.059 C 
HETATM   14  C11 UNL     1      34.957   4.386  48.472  1.00  0.00     0.026 C 
HETATM   15  C12 UNL     1      34.899   5.854  48.733  1.00  0.00     0.123 C 
HETATM   16  N4  UNL     1      34.250   6.467  47.532  1.00  0.00    -0.381 N 
HETATM   17  C13 UNL     1      34.457   7.929  47.372  1.00  0.00     0.149 C 
HETATM   18  C14 UNL     1      34.036   8.485  46.068  1.00  0.00     0.187 C 
HETATM   19  O1  UNL     1      34.337   9.817  46.055  1.00  0.00    -0.386 OA
HETATM   20  C15 UNL     1      33.771  10.644  46.965  1.00  0.00     0.194 C 
HETATM   21  C16 UNL     1      32.327  10.809  46.933  1.00  0.00    -0.003 C 
HETATM   22  C17 UNL     1      31.081  10.791  47.331  1.00  0.00    -0.004 C 
HETATM   23  C18 UNL     1      29.670  11.081  46.958  1.00  0.00     0.118 C 
HETATM   24  C19 UNL     1      29.355  10.636  45.546  1.00  0.00     0.037 C 
HETATM   25  N5  UNL     1      28.753  10.430  47.836  1.00  0.00    -0.215 N 
HETATM   26  H5  UNL     1      30.163   5.205  49.440  1.00  0.00     0.161 HD
HETATM   27  H27 UNL     1      28.092  10.987  48.419  1.00  0.00     0.178 HD
ENDROOT
TORSDOF 0
ENDMDL
MODEL 8
REMARK VINA RESULT:      -7.5      2.325      7.017
REMARK  0 active torsions:
REMARK  status: ('A' for Active; 'I' for Inactive)
ROOT
HETATM    1  C1  UNL     1      24.359   5.554  48.664  1.00  0.00     0.054 C 
HETATM    2  C2  UNL     1      23.079   4.774  48.789  1.00  0.00     0.002 A 
HETATM    3  C3  UNL     1      21.933   5.391  48.286  1.00  0.00     0.146 A 
HETATM    4  N1  UNL     1      20.818   4.661  48.418  1.00  0.00    -0.075 NA
HETATM    5  C4  UNL     1      20.803   3.439  48.985  1.00  0.00     0.724 A 
HETATM    6  N2  UNL     1      21.926   2.877  49.456  1.00  0.00    -0.045 NA
HETATM    7  C5  UNL     1      23.118   3.513  49.383  1.00  0.00     0.150 A 
HETATM    8  N3  UNL     1      24.352   3.051  49.832  1.00  0.00    -0.370 N 
HETATM    9  C6  UNL     1      24.482   2.237  51.038  1.00  0.00     0.149 C 
HETATM   10  C7  UNL     1      23.846   3.095  52.065  1.00  0.00     0.007 C 
HETATM   11  C8  UNL     1      24.543   3.118  53.191  1.00  0.00    -0.004 C 
HETATM   12  C9  UNL     1      25.112   1.933  53.377  1.00  0.00     0.018 C 
HETATM   13  C10 UNL     1      26.395   1.565  53.968  1.00  0.00     0.059 C 
HETATM   14  C11 UNL     1      26.979   0.600  52.961  1.00  0.00     0.026 C 
HETATM   15  C12 UNL     1      25.757  -0.148  52.544  1.00  0.00     0.123 C 
HETATM   16  N4  UNL     1      24.590   0.647  53.038  1.00  0.00    -0.381 N 
HETATM   17  C13 UNL     1      23.302  -0.090  53.114  1.00  0.00     0.149 C 
HETATM   18  C14 UNL     1      22.217   0.612  53.833  1.00  0.00     0.187 C 
HETATM   19  O1  UNL     1      21.126  -0.209  53.862  1.00  0.00    -0.386 OA
HETATM   20  C15 UNL     1      20.551  -0.607  52.703  1.00  0.00     0.194 C 
HETATM   21  C16 UNL     1      19.960   0.410  51.849  1.00  0.00    -0.003 C 
HETATM   22  C17 UNL     1      19.744   1.152  50.793  1.00  0.00    -0.004 C 
HETATM   23  C18 UNL     1      18.929   2.256  50.215  1.00  0.00     0.118 C 
HETATM   24  C19 UNL     1      18.723   3.383  51.203  1.00  0.00     0.037 C 
HETATM   25  N5  UNL     1      19.544   2.803  49.050  1.00  0.00    -0.215 N 
HETATM   26  H5  UNL     1      25.161   3.329  49.240  1.00  0.00     0.161 HD
HETATM   27  H27 UNL     1      19.062   2.758  48.127  1.00  0.00     0.178 HD
ENDROOT
TORSDOF 0
ENDMDL
MODEL 9
REMARK VINA RESULT:      -7.3      1.704      2.249
REMARK  0 active torsions:
REMARK  status: ('A' for Active; 'I' for Inactive)
ROOT
HETATM    1  C1  UNL     1      19.632  -1.022  53.746  1.00  0.00     0.054 C 
HETATM    2  C2  UNL     1      21.025  -0.570  53.403  1.00  0.00     0.002 A 
HETATM    3  C3  UNL     1      22.020  -0.899  54.323  1.00  0.00     0.146 A 
HETATM    4  N1  UNL     1      23.244  -0.476  53.977  1.00  0.00    -0.075 NA
HETATM    5  C4  UNL     1      23.492   0.205  52.842  1.00  0.00     0.724 A 
HETATM    6  N2  UNL     1      22.508   0.502  51.980  1.00  0.00    -0.045 NA
HETATM    7  C5  UNL     1      21.228   0.132  52.216  1.00  0.00     0.150 A 
HETATM    8  N3  UNL     1      20.116   0.376  51.414  1.00  0.00    -0.370 N 
HETATM    9  C6  UNL     1      19.970   1.610  50.647  1.00  0.00     0.149 C 
HETATM   10  C7  UNL     1      20.088   2.648  51.697  1.00  0.00     0.007 C 
HETATM   11  C8  UNL     1      19.186   3.607  51.548  1.00  0.00    -0.004 C 
HETATM   12  C9  UNL     1      18.963   3.798  50.254  1.00  0.00     0.018 C 
HETATM   13  C10 UNL     1      17.747   4.162  49.531  1.00  0.00     0.059 C 
HETATM   14  C11 UNL     1      17.705   3.164  48.396  1.00  0.00     0.026 C 
HETATM   15  C12 UNL     1      19.153   3.074  48.044  1.00  0.00     0.123 C 
HETATM   16  N4  UNL     1      19.899   3.702  49.178  1.00  0.00    -0.381 N 
HETATM   17  C13 UNL     1      21.297   4.105  48.877  1.00  0.00     0.149 C 
HETATM   18  C14 UNL     1      21.945   4.946  49.906  1.00  0.00     0.187 C 
HETATM   19  O1  UNL     1      23.195   5.273  49.462  1.00  0.00    -0.386 OA
HETATM   20  C15 UNL     1      24.100   4.297  49.217  1.00  0.00     0.194 C 
HETATM   21  C16 UNL     1      24.538   3.475  50.333  1.00  0.00    -0.003 C 
HETATM   22  C17 UNL     1      24.753   2.412  51.063  1.00  0.00    -0.004 C 
HETATM   23  C18 UNL     1      25.314   1.894  52.341  1.00  0.00     0.118 C 
HETATM   24  C19 UNL     1      24.961   2.782  53.515  1.00  0.00     0.037 C 
HETATM   25  N5  UNL     1      24.835   0.581  52.628  1.00  0.00    -0.215 N 
HETATM   26  H5  UNL     1      19.411  -0.389  51.406  1.00  0.00     0.161 HD
HETATM   27  H27 UNL     1      25.499  -0.220  52.698  1.00  0.00     0.178 HD
ENDROOT
TORSDOF 0
ENDMDL
