MODEL 1
REMARK VINA RESULT:      -8.7      0.000      0.000
REMARK  6 active torsions:
REMARK  status: ('A' for Active; 'I' for Inactive)
REMARK    1  A    between atoms: O1_2  and  C2_3 
REMARK    2  A    between atoms: C6_7  and  C7_8 
REMARK    3  A    between atoms: C7_8  and  C9_12 
REMARK    4  A    between atoms: N1_9  and  C8_10 
REMARK    5  A    between atoms: C16_21  and  O2_22 
REMARK    6  A    between atoms: O2_22  and  C17_23 
ROOT
HETATM    1  C2  UNL     1      21.509  -0.183  52.935  1.00  0.00     0.102 A 
HETATM    2  C3  UNL     1      21.346  -0.979  54.080  1.00  0.00     0.040 A 
HETATM    3  C4  UNL     1      22.455  -1.241  54.890  1.00  0.00     0.004 A 
HETATM    4  C5  UNL     1      23.588  -0.682  54.456  1.00  0.00     0.017 A 
HETATM    5  C6  UNL     1      23.879   0.095  53.381  1.00  0.00     0.030 A 
HETATM    6  C16 UNL     1      22.760   0.360  52.577  1.00  0.00     0.115 A 
ENDROOT
BRANCH   5   7
HETATM    7  C7  UNL     1      25.080   0.803  53.251  1.00  0.00     0.082 C 
HETATM    8  N1  UNL     1      25.029   2.012  53.220  1.00  0.00    -0.241 NA
BRANCH   8   9
HETATM    9  C8  UNL     1      24.162   3.050  53.269  1.00  0.00     0.224 C 
HETATM   10  N2  UNL     1      24.209   4.181  52.599  1.00  0.00    -0.293 NA
HETATM   11  H8  UNL     1      24.974   4.388  51.925  1.00  0.00     0.187 HD
ENDBRANCH   8   9
BRANCH   7  12
HETATM   12  C9  UNL     1      26.488   0.511  53.263  1.00  0.00     0.001 A 
HETATM   13  C10 UNL     1      27.502   1.263  53.797  1.00  0.00     0.041 A 
HETATM   14  C11 UNL     1      28.837   1.103  54.025  1.00  0.00     0.073 A 
HETATM   15 CL1  UNL     1      29.904   2.271  54.748  1.00  0.00    -0.081 Cl
HETATM   16  C12 UNL     1      29.274  -0.125  53.609  1.00  0.00     0.138 A 
HETATM   17  F1  UNL     1      30.571  -0.476  53.753  1.00  0.00    -0.204 F 
HETATM   18  C13 UNL     1      28.400  -1.001  53.051  1.00  0.00     0.051 A 
HETATM   19  C14 UNL     1      27.039  -0.719  52.870  1.00  0.00    -0.046 A 
HETATM   20  C15 UNL     1      26.258  -1.802  52.257  1.00  0.00     0.049 C 
ENDBRANCH   7  12
ENDBRANCH   5   7
BRANCH   6  21
HETATM   21  O2  UNL     1      22.450   1.008  51.531  1.00  0.00    -0.340 OA
BRANCH  21  22
HETATM   22  C17 UNL     1      22.137   1.684  50.450  1.00  0.00     0.159 C 
HETATM   23  C18 UNL     1      21.579   0.919  49.234  1.00  0.00     0.064 C 
HETATM   24  C19 UNL     1      21.543   2.111  48.269  1.00  0.00     0.274 C 
HETATM   25  N3  UNL     1      22.826   2.704  48.430  1.00  0.00     0.086 N 
HETATM   26  C20 UNL     1      22.816   4.149  48.321  1.00  0.00     0.310 C 
HETATM   27  C21 UNL     1      23.350   2.310  49.712  1.00  0.00     0.304 C 
ENDBRANCH  21  22
ENDBRANCH   6  21
BRANCH   1  28
HETATM   28  O1  UNL     1      20.278  -0.094  52.334  1.00  0.00    -0.353 OA
HETATM   29  C1  UNL     1      19.040  -0.419  52.845  1.00  0.00     0.210 C 
ENDBRANCH   1  28
TORSDOF 6
ENDMDL
MODEL 2
REMARK VINA RESULT:      -8.6      2.649      4.626
REMARK  6 active torsions:
REMARK  status: ('A' for Active; 'I' for Inactive)
REMARK    1  A    between atoms: O1_2  and  C2_3 
REMARK    2  A    between atoms: C6_7  and  C7_8 
REMARK    3  A    between atoms: C7_8  and  C9_12 
REMARK    4  A    between atoms: N1_9  and  C8_10 
REMARK    5  A    between atoms: C16_21  and  O2_22 
REMARK    6  A    between atoms: O2_22  and  C17_23 
ROOT
HETATM    1  C2  UNL     1      22.647   3.274  48.311  1.00  0.00     0.102 A 
HETATM    2  C3  UNL     1      21.665   2.290  48.112  1.00  0.00     0.040 A 
HETATM    3  C4  UNL     1      21.486   1.301  49.084  1.00  0.00     0.004 A 
HETATM    4  C5  UNL     1      22.311   1.412  50.130  1.00  0.00     0.017 A 
HETATM    5  C6  UNL     1      23.290   2.299  50.440  1.00  0.00     0.030 A 
HETATM    6  C16 UNL     1      23.459   3.293  49.463  1.00  0.00     0.115 A 
ENDROOT
BRANCH   5   7
HETATM    7  C7  UNL     1      23.859   2.398  51.716  1.00  0.00     0.082 C 
HETATM    8  N1  UNL     1      23.371   3.182  52.498  1.00  0.00    -0.241 NA
BRANCH   8   9
HETATM    9  C8  UNL     1      22.382   4.098  52.622  1.00  0.00     0.224 C 
HETATM   10  N2  UNL     1      22.465   5.405  52.505  1.00  0.00    -0.293 NA
HETATM   11  H8  UNL     1      23.365   5.881  52.290  1.00  0.00     0.187 HD
ENDBRANCH   8   9
BRANCH   7  12
HETATM   12  C9  UNL     1      24.856   1.705  52.487  1.00  0.00     0.001 A 
HETATM   13  C10 UNL     1      26.136   2.108  52.767  1.00  0.00     0.041 A 
HETATM   14  C11 UNL     1      27.155   1.676  53.564  1.00  0.00     0.073 A 
HETATM   15 CL1  UNL     1      28.721   2.418  53.724  1.00  0.00    -0.081 Cl
HETATM   16  C12 UNL     1      26.808   0.549  54.256  1.00  0.00     0.138 A 
HETATM   17  F1  UNL     1      27.686  -0.033  55.105  1.00  0.00    -0.204 F 
HETATM   18  C13 UNL     1      25.573   0.008  54.096  1.00  0.00     0.051 A 
HETATM   19  C14 UNL     1      24.603   0.549  53.242  1.00  0.00    -0.046 A 
HETATM   20  C15 UNL     1      23.326  -0.176  53.216  1.00  0.00     0.049 C 
ENDBRANCH   7  12
ENDBRANCH   5   7
BRANCH   6  21
HETATM   21  O2  UNL     1      24.158   4.330  49.247  1.00  0.00    -0.340 OA
BRANCH  21  22
HETATM   22  C17 UNL     1      24.887   5.400  49.030  1.00  0.00     0.159 C 
HETATM   23  C18 UNL     1      26.412   5.238  48.876  1.00  0.00     0.064 C 
HETATM   24  C19 UNL     1      26.748   6.733  48.805  1.00  0.00     0.274 C 
HETATM   25  N3  UNL     1      26.021   7.286  49.896  1.00  0.00     0.086 N 
HETATM   26  C20 UNL     1      25.502   8.614  49.634  1.00  0.00     0.310 C 
HETATM   27  C21 UNL     1      24.944   6.390  50.223  1.00  0.00     0.304 C 
ENDBRANCH  21  22
ENDBRANCH   6  21
BRANCH   1  28
HETATM   28  O1  UNL     1      22.608   4.102  47.217  1.00  0.00    -0.353 OA
HETATM   29  C1  UNL     1      21.905   3.949  46.041  1.00  0.00     0.210 C 
ENDBRANCH   1  28
TORSDOF 6
ENDMDL
MODEL 3
REMARK VINA RESULT:      -8.5      3.055      5.955
REMARK  6 active torsions:
REMARK  status: ('A' for Active; 'I' for Inactive)
REMARK    1  A    between atoms: O1_2  and  C2_3 
REMARK    2  A    between atoms: C6_7  and  C7_8 
REMARK    3  A    between atoms: C7_8  and  C9_12 
REMARK    4  A    between atoms: N1_9  and  C8_10 
REMARK    5  A    between atoms: C16_21  and  O2_22 
REMARK    6  A    between atoms: O2_22  and  C17_23 
ROOT
HETATM    1  C2  UNL     1      22.929   0.047  53.442  1.00  0.00     0.102 A 
HETATM    2  C3  UNL     1      21.537  -0.026  53.608  1.00  0.00     0.040 A 
HETATM    3  C4  UNL     1      20.717   0.831  52.868  1.00  0.00     0.004 A 
HETATM    4  C5  UNL     1      21.386   1.658  52.059  1.00  0.00     0.017 A 
HETATM    5  C6  UNL     1      22.710   1.831  51.809  1.00  0.00     0.030 A 
HETATM    6  C16 UNL     1      23.526   0.961  52.550  1.00  0.00     0.115 A 
ENDROOT
BRANCH   5   7
HETATM    7  C7  UNL     1      23.194   2.569  50.723  1.00  0.00     0.082 C 
HETATM    8  N1  UNL     1      22.787   2.293  49.617  1.00  0.00    -0.241 NA
BRANCH   8   9
HETATM    9  C8  UNL     1      21.954   1.452  48.961  1.00  0.00     0.224 C 
HETATM   10  N2  UNL     1      20.762   1.708  48.467  1.00  0.00    -0.293 NA
HETATM   11  H8  UNL     1      20.328   2.651  48.544  1.00  0.00     0.187 HD
ENDBRANCH   8   9
BRANCH   7  12
HETATM   12  C9  UNL     1      24.008   3.737  50.516  1.00  0.00     0.001 A 
HETATM   13  C10 UNL     1      25.221   3.819  49.882  1.00  0.00     0.041 A 
HETATM   14  C11 UNL     1      26.057   4.817  49.476  1.00  0.00     0.073 A 
HETATM   15 CL1  UNL     1      27.582   4.613  48.662  1.00  0.00    -0.081 Cl
HETATM   16  C12 UNL     1      25.557   6.051  49.787  1.00  0.00     0.138 A 
HETATM   17  F1  UNL     1      26.241   7.171  49.463  1.00  0.00    -0.204 F 
HETATM   18  C13 UNL     1      24.362   6.156  50.423  1.00  0.00     0.051 A 
HETATM   19  C14 UNL     1      23.587   5.048  50.790  1.00  0.00    -0.046 A 
HETATM   20  C15 UNL     1      22.321   5.372  51.461  1.00  0.00     0.049 C 
ENDBRANCH   7  12
ENDBRANCH   5   7
BRANCH   6  21
HETATM   21  O2  UNL     1      24.753   0.672  52.695  1.00  0.00    -0.340 OA
BRANCH  21  22
HETATM   22  C17 UNL     1      26.024   0.382  52.842  1.00  0.00     0.159 C 
HETATM   23  C18 UNL     1      26.476  -1.081  52.665  1.00  0.00     0.064 C 
HETATM   24  C19 UNL     1      27.937  -0.874  53.080  1.00  0.00     0.274 C 
HETATM   25  N3  UNL     1      27.835  -0.117  54.281  1.00  0.00     0.086 N 
HETATM   26  C20 UNL     1      28.900   0.851  54.450  1.00  0.00     0.310 C 
HETATM   27  C21 UNL     1      26.557   0.547  54.289  1.00  0.00     0.304 C 
ENDBRANCH  21  22
ENDBRANCH   6  21
BRANCH   1  28
HETATM   28  O1  UNL     1      23.480  -0.890  54.280  1.00  0.00    -0.353 OA
HETATM   29  C1  UNL     1      22.955  -1.436  55.432  1.00  0.00     0.210 C 
ENDBRANCH   1  28
TORSDOF 6
ENDMDL
MODEL 4
REMARK VINA RESULT:      -8.1      3.442      6.280
REMARK  6 active torsions:
REMARK  status: ('A' for Active; 'I' for Inactive)
REMARK    1  A    between atoms: O1_2  and  C2_3 
REMARK    2  A    between atoms: C6_7  and  C7_8 
REMARK    3  A    between atoms: C7_8  and  C9_12 
REMARK    4  A    between atoms: N1_9  and  C8_10 
REMARK    5  A    between atoms: C16_21  and  O2_22 
REMARK    6  A    between atoms: O2_22  and  C17_23 
ROOT
HETATM    1  C2  UNL     1      22.629  -0.122  53.762  1.00  0.00     0.102 A 
HETATM    2  C3  UNL     1      21.270  -0.317  54.055  1.00  0.00     0.040 A 
HETATM    3  C4  UNL     1      20.331   0.597  53.567  1.00  0.00     0.004 A 
HETATM    4  C5  UNL     1      20.863   1.594  52.854  1.00  0.00     0.017 A 
HETATM    5  C6  UNL     1      22.139   1.896  52.504  1.00  0.00     0.030 A 
HETATM    6  C16 UNL     1      23.076   0.970  52.990  1.00  0.00     0.115 A 
ENDROOT
BRANCH   5   7
HETATM    7  C7  UNL     1      22.461   2.841  51.522  1.00  0.00     0.082 C 
HETATM    8  N1  UNL     1      23.195   3.754  51.827  1.00  0.00    -0.241 NA
BRANCH   8   9
HETATM    9  C8  UNL     1      23.897   4.263  52.865  1.00  0.00     0.224 C 
HETATM   10  N2  UNL     1      23.766   5.440  53.437  1.00  0.00    -0.293 NA
HETATM   11  H8  UNL     1      23.057   6.130  53.115  1.00  0.00     0.187 HD
ENDBRANCH   8   9
BRANCH   7  12
HETATM   12  C9  UNL     1      22.264   3.006  50.107  1.00  0.00     0.001 A 
HETATM   13  C10 UNL     1      22.533   4.110  49.340  1.00  0.00     0.041 A 
HETATM   14  C11 UNL     1      22.546   4.410  48.010  1.00  0.00     0.073 A 
HETATM   15 CL1  UNL     1      22.947   5.950  47.306  1.00  0.00    -0.081 Cl
HETATM   16  C12 UNL     1      22.194   3.330  47.248  1.00  0.00     0.138 A 
HETATM   17  F1  UNL     1      22.150   3.426  45.900  1.00  0.00    -0.204 F 
HETATM   18  C13 UNL     1      21.889   2.149  47.846  1.00  0.00     0.051 A 
HETATM   19  C14 UNL     1      21.915   1.963  49.234  1.00  0.00    -0.046 A 
HETATM   20  C15 UNL     1      21.563   0.610  49.685  1.00  0.00     0.049 C 
ENDBRANCH   7  12
ENDBRANCH   5   7
BRANCH   6  21
HETATM   21  O2  UNL     1      24.324   0.744  52.953  1.00  0.00    -0.340 OA
BRANCH  21  22
HETATM   22  C17 UNL     1      25.614   0.509  52.925  1.00  0.00     0.159 C 
HETATM   23  C18 UNL     1      26.098  -0.937  52.696  1.00  0.00     0.064 C 
HETATM   24  C19 UNL     1      27.593  -0.665  52.905  1.00  0.00     0.274 C 
HETATM   25  N3  UNL     1      27.624   0.101  54.104  1.00  0.00     0.086 N 
HETATM   26  C20 UNL     1      28.661   1.113  54.120  1.00  0.00     0.310 C 
HETATM   27  C21 UNL     1      26.334   0.712  54.285  1.00  0.00     0.304 C 
ENDBRANCH  21  22
ENDBRANCH   6  21
BRANCH   1  28
HETATM   28  O1  UNL     1      23.317  -1.149  54.358  1.00  0.00    -0.353 OA
HETATM   29  C1  UNL     1      23.427  -1.453  55.699  1.00  0.00     0.210 C 
ENDBRANCH   1  28
TORSDOF 6
ENDMDL
MODEL 5
REMARK VINA RESULT:      -8.0      9.125     10.973
REMARK  6 active torsions:
REMARK  status: ('A' for Active; 'I' for Inactive)
REMARK    1  A    between atoms: O1_2  and  C2_3 
REMARK    2  A    between atoms: C6_7  and  C7_8 
REMARK    3  A    between atoms: C7_8  and  C9_12 
REMARK    4  A    between atoms: N1_9  and  C8_10 
REMARK    5  A    between atoms: C16_21  and  O2_22 
REMARK    6  A    between atoms: O2_22  and  C17_23 
ROOT
HETATM    1  C2  UNL     1      27.704   7.395  48.409  1.00  0.00     0.102 A 
HETATM    2  C3  UNL     1      27.064   6.176  48.685  1.00  0.00     0.040 A 
HETATM    3  C4  UNL     1      27.781   4.984  48.546  1.00  0.00     0.004 A 
HETATM    4  C5  UNL     1      29.044   5.154  48.144  1.00  0.00     0.017 A 
HETATM    5  C6  UNL     1      29.775   6.258  47.845  1.00  0.00     0.030 A 
HETATM    6  C16 UNL     1      29.051   7.452  47.994  1.00  0.00     0.115 A 
ENDROOT
BRANCH   5   7
HETATM    7  C7  UNL     1      31.167   6.240  47.701  1.00  0.00     0.082 C 
HETATM    8  N1  UNL     1      31.845   6.322  48.701  1.00  0.00    -0.241 NA
BRANCH   8   9
HETATM    9  C8  UNL     1      31.761   6.438  50.046  1.00  0.00     0.224 C 
HETATM   10  N2  UNL     1      31.598   5.483  50.936  1.00  0.00    -0.293 NA
HETATM   11  H8  UNL     1      31.514   4.483  50.659  1.00  0.00     0.187 HD
ENDBRANCH   8   9
BRANCH   7  12
HETATM   12  C9  UNL     1      32.120   6.013  46.648  1.00  0.00     0.001 A 
HETATM   13  C10 UNL     1      33.075   5.033  46.570  1.00  0.00     0.041 A 
HETATM   14  C11 UNL     1      33.951   4.580  45.629  1.00  0.00     0.073 A 
HETATM   15 CL1  UNL     1      35.079   3.268  45.820  1.00  0.00    -0.081 Cl
HETATM   16  C12 UNL     1      33.853   5.293  44.466  1.00  0.00     0.138 A 
HETATM   17  F1  UNL     1      34.640   4.993  43.408  1.00  0.00    -0.204 F 
HETATM   18  C13 UNL     1      32.956   6.308  44.368  1.00  0.00     0.051 A 
HETATM   19  C14 UNL     1      32.100   6.681  45.413  1.00  0.00    -0.046 A 
HETATM   20  C15 UNL     1      31.197   7.797  45.106  1.00  0.00     0.049 C 
ENDBRANCH   7  12
ENDBRANCH   5   7
BRANCH   6  21
HETATM   21  O2  UNL     1      29.217   8.705  47.890  1.00  0.00    -0.340 OA
BRANCH  21  22
HETATM   22  C17 UNL     1      29.399  10.001  47.782  1.00  0.00     0.159 C 
HETATM   23  C18 UNL     1      30.820  10.529  47.506  1.00  0.00     0.064 C 
HETATM   24  C19 UNL     1      30.488  12.021  47.628  1.00  0.00     0.274 C 
HETATM   25  N3  UNL     1      29.734  12.093  48.833  1.00  0.00     0.086 N 
HETATM   26  C20 UNL     1      28.679  13.086  48.799  1.00  0.00     0.310 C 
HETATM   27  C21 UNL     1      29.179  10.792  49.098  1.00  0.00     0.304 C 
ENDBRANCH  21  22
ENDBRANCH   6  21
BRANCH   1  28
HETATM   28  O1  UNL     1      26.780   8.387  48.621  1.00  0.00    -0.353 OA
HETATM   29  C1  UNL     1      26.148   8.745  49.793  1.00  0.00     0.210 C 
ENDBRANCH   1  28
TORSDOF 6
ENDMDL
MODEL 6
REMARK VINA RESULT:      -7.9      4.018      7.076
REMARK  6 active torsions:
REMARK  status: ('A' for Active; 'I' for Inactive)
REMARK    1  A    between atoms: O1_2  and  C2_3 
REMARK    2  A    between atoms: C6_7  and  C7_8 
REMARK    3  A    between atoms: C7_8  and  C9_12 
REMARK    4  A    between atoms: N1_9  and  C8_10 
REMARK    5  A    between atoms: C16_21  and  O2_22 
REMARK    6  A    between atoms: O2_22  and  C17_23 
ROOT
HETATM    1  C2  UNL     1      25.312   1.273  51.936  1.00  0.00     0.102 A 
HETATM    2  C3  UNL     1      26.630   1.739  51.797  1.00  0.00     0.040 A 
HETATM    3  C4  UNL     1      26.881   2.829  50.959  1.00  0.00     0.004 A 
HETATM    4  C5  UNL     1      25.790   3.317  50.360  1.00  0.00     0.017 A 
HETATM    5  C6  UNL     1      24.480   2.964  50.404  1.00  0.00     0.030 A 
HETATM    6  C16 UNL     1      24.234   1.874  51.254  1.00  0.00     0.115 A 
ENDROOT
BRANCH   5   7
HETATM    7  C7  UNL     1      23.451   3.774  49.909  1.00  0.00     0.082 C 
HETATM    8  N1  UNL     1      22.927   4.559  50.666  1.00  0.00    -0.241 NA
BRANCH   8   9
HETATM    9  C8  UNL     1      22.959   4.998  51.946  1.00  0.00     0.224 C 
HETATM   10  N2  UNL     1      23.866   5.756  52.524  1.00  0.00    -0.293 NA
HETATM   11  H8  UNL     1      24.697   6.108  52.006  1.00  0.00     0.187 HD
ENDBRANCH   8   9
BRANCH   7  12
HETATM   12  C9  UNL     1      22.858   4.068  48.632  1.00  0.00     0.001 A 
HETATM   13  C10 UNL     1      22.915   5.241  47.924  1.00  0.00     0.041 A 
HETATM   14  C11 UNL     1      22.549   5.663  46.681  1.00  0.00     0.073 A 
HETATM   15 CL1  UNL     1      22.759   7.266  46.035  1.00  0.00    -0.081 Cl
HETATM   16  C12 UNL     1      21.973   4.656  45.957  1.00  0.00     0.138 A 
HETATM   17  F1  UNL     1      21.544   4.876  44.694  1.00  0.00    -0.204 F 
HETATM   18  C13 UNL     1      21.832   3.422  46.507  1.00  0.00     0.051 A 
HETATM   19  C14 UNL     1      22.253   3.107  47.806  1.00  0.00    -0.046 A 
HETATM   20  C15 UNL     1      22.021   1.715  48.212  1.00  0.00     0.049 C 
ENDBRANCH   7  12
ENDBRANCH   5   7
BRANCH   6  21
HETATM   21  O2  UNL     1      23.263   1.177  51.679  1.00  0.00    -0.340 OA
BRANCH  21  22
HETATM   22  C17 UNL     1      22.252   0.461  52.113  1.00  0.00     0.159 C 
HETATM   23  C18 UNL     1      20.825   1.017  51.946  1.00  0.00     0.064 C 
HETATM   24  C19 UNL     1      20.103  -0.090  52.723  1.00  0.00     0.274 C 
HETATM   25  N3  UNL     1      20.873  -0.212  53.914  1.00  0.00     0.086 N 
HETATM   26  C20 UNL     1      20.962  -1.570  54.412  1.00  0.00     0.310 C 
HETATM   27  C21 UNL     1      22.191   0.307  53.656  1.00  0.00     0.304 C 
ENDBRANCH  21  22
ENDBRANCH   6  21
BRANCH   1  28
HETATM   28  O1  UNL     1      25.355   0.209  52.801  1.00  0.00    -0.353 OA
HETATM   29  C1  UNL     1      26.241  -0.847  52.831  1.00  0.00     0.210 C 
ENDBRANCH   1  28
TORSDOF 6
ENDMDL
MODEL 7
REMARK VINA RESULT:      -7.8      2.974      4.323
REMARK  6 active torsions:
REMARK  status: ('A' for Active; 'I' for Inactive)
REMARK    1  A    between atoms: O1_2  and  C2_3 
REMARK    2  A    between atoms: C6_7  and  C7_8 
REMARK    3  A    between atoms: C7_8  and  C9_12 
REMARK    4  A    between atoms: N1_9  and  C8_10 
REMARK    5  A    between atoms: C16_21  and  O2_22 
REMARK    6  A    between atoms: O2_22  and  C17_23 
ROOT
HETATM    1  C2  UNL     1      21.252   0.343  51.707  1.00  0.00     0.102 A 
HETATM    2  C3  UNL     1      21.108  -0.288  52.953  1.00  0.00     0.040 A 
HETATM    3  C4  UNL     1      22.177  -0.266  53.854  1.00  0.00     0.004 A 
HETATM    4  C5  UNL     1      23.257   0.376  53.400  1.00  0.00     0.017 A 
HETATM    5  C6  UNL     1      23.524   1.018  52.233  1.00  0.00     0.030 A 
HETATM    6  C16 UNL     1      22.444   0.999  51.337  1.00  0.00     0.115 A 
ENDROOT
BRANCH   5   7
HETATM    7  C7  UNL     1      24.628   1.861  52.058  1.00  0.00     0.082 C 
HETATM    8  N1  UNL     1      25.715   1.458  52.406  1.00  0.00    -0.241 NA
BRANCH   8   9
HETATM    9  C8  UNL     1      26.336   0.391  52.959  1.00  0.00     0.224 C 
HETATM   10  N2  UNL     1      27.404  -0.244  52.527  1.00  0.00    -0.293 NA
HETATM   11  H8  UNL     1      27.898   0.044  51.657  1.00  0.00     0.187 HD
ENDBRANCH   8   9
BRANCH   7  12
HETATM   12  C9  UNL     1      24.906   3.122  51.425  1.00  0.00     0.001 A 
HETATM   13  C10 UNL     1      25.892   3.412  50.517  1.00  0.00     0.041 A 
HETATM   14  C11 UNL     1      26.226   4.471  49.726  1.00  0.00     0.073 A 
HETATM   15 CL1  UNL     1      27.577   4.552  48.633  1.00  0.00    -0.081 Cl
HETATM   16  C12 UNL     1      25.352   5.511  49.884  1.00  0.00     0.138 A 
HETATM   17  F1  UNL     1      25.513   6.655  49.180  1.00  0.00    -0.204 F 
HETATM   18  C13 UNL     1      24.313   5.398  50.750  1.00  0.00     0.051 A 
HETATM   19  C14 UNL     1      24.071   4.248  51.513  1.00  0.00    -0.046 A 
HETATM   20  C15 UNL     1      22.890   4.318  52.383  1.00  0.00     0.049 C 
ENDBRANCH   7  12
ENDBRANCH   5   7
BRANCH   6  21
HETATM   21  O2  UNL     1      22.132   1.434  50.187  1.00  0.00    -0.340 OA
BRANCH  21  22
HETATM   22  C17 UNL     1      21.810   1.892  49.000  1.00  0.00     0.159 C 
HETATM   23  C18 UNL     1      22.846   2.726  48.221  1.00  0.00     0.064 C 
HETATM   24  C19 UNL     1      21.934   3.106  47.050  1.00  0.00     0.274 C 
HETATM   25  N3  UNL     1      20.742   3.549  47.691  1.00  0.00     0.086 N 
HETATM   26  C20 UNL     1      19.534   3.215  46.964  1.00  0.00     0.310 C 
HETATM   27  C21 UNL     1      20.699   2.976  49.011  1.00  0.00     0.304 C 
ENDBRANCH  21  22
ENDBRANCH   6  21
BRANCH   1  28
HETATM   28  O1  UNL     1      20.069   0.168  51.033  1.00  0.00    -0.353 OA
HETATM   29  C1  UNL     1      18.780   0.377  51.478  1.00  0.00     0.210 C 
ENDBRANCH   1  28
TORSDOF 6
ENDMDL
MODEL 8
REMARK VINA RESULT:      -7.6      6.978     10.048
REMARK  6 active torsions:
REMARK  status: ('A' for Active; 'I' for Inactive)
REMARK    1  A    between atoms: O1_2  and  C2_3 
REMARK    2  A    between atoms: C6_7  and  C7_8 
REMARK    3  A    between atoms: C7_8  and  C9_12 
REMARK    4  A    between atoms: N1_9  and  C8_10 
REMARK    5  A    between atoms: C16_21  and  O2_22 
REMARK    6  A    between atoms: O2_22  and  C17_23 
ROOT
HETATM    1  C2  UNL     1      28.071   8.340  45.941  1.00  0.00     0.102 A 
HETATM    2  C3  UNL     1      27.006   8.899  45.215  1.00  0.00     0.040 A 
HETATM    3  C4  UNL     1      25.706   8.776  45.712  1.00  0.00     0.004 A 
HETATM    4  C5  UNL     1      25.626   8.109  46.867  1.00  0.00     0.017 A 
HETATM    5  C6  UNL     1      26.561   7.525  47.660  1.00  0.00     0.030 A 
HETATM    6  C16 UNL     1      27.866   7.659  47.158  1.00  0.00     0.115 A 
ENDROOT
BRANCH   5   7
HETATM    7  C7  UNL     1      26.302   7.107  48.971  1.00  0.00     0.082 C 
HETATM    8  N1  UNL     1      26.500   7.893  49.870  1.00  0.00    -0.241 NA
BRANCH   8   9
HETATM    9  C8  UNL     1      26.923   9.154  50.118  1.00  0.00     0.224 C 
HETATM   10  N2  UNL     1      27.717   9.572  51.080  1.00  0.00    -0.293 NA
HETATM   11  H8  UNL     1      28.116   8.918  51.784  1.00  0.00     0.187 HD
ENDBRANCH   8   9
BRANCH   7  12
HETATM   12  C9  UNL     1      25.706   5.971  49.621  1.00  0.00     0.001 A 
HETATM   13  C10 UNL     1      24.520   5.918  50.307  1.00  0.00     0.041 A 
HETATM   14  C11 UNL     1      23.741   4.944  50.858  1.00  0.00     0.073 A 
HETATM   15 CL1  UNL     1      22.232   5.182  51.692  1.00  0.00    -0.081 Cl
HETATM   16  C12 UNL     1      24.290   3.703  50.684  1.00  0.00     0.138 A 
HETATM   17  F1  UNL     1      23.663   2.603  51.159  1.00  0.00    -0.204 F 
HETATM   18  C13 UNL     1      25.470   3.570  50.026  1.00  0.00     0.051 A 
HETATM   19  C14 UNL     1      26.181   4.656  49.498  1.00  0.00    -0.046 A 
HETATM   20  C15 UNL     1      27.432   4.304  48.813  1.00  0.00     0.049 C 
ENDBRANCH   7  12
ENDBRANCH   5   7
BRANCH   6  21
HETATM   21  O2  UNL     1      29.059   7.358  47.469  1.00  0.00    -0.340 OA
BRANCH  21  22
HETATM   22  C17 UNL     1      30.291   7.039  47.786  1.00  0.00     0.159 C 
HETATM   23  C18 UNL     1      30.527   5.863  48.753  1.00  0.00     0.064 C 
HETATM   24  C19 UNL     1      32.046   6.032  48.881  1.00  0.00     0.274 C 
HETATM   25  N3  UNL     1      32.203   7.425  49.125  1.00  0.00     0.086 N 
HETATM   26  C20 UNL     1      33.394   7.989  48.523  1.00  0.00     0.310 C 
HETATM   27  C21 UNL     1      31.033   8.105  48.635  1.00  0.00     0.304 C 
ENDBRANCH  21  22
ENDBRANCH   6  21
BRANCH   1  28
HETATM   28  O1  UNL     1      29.217   8.602  45.233  1.00  0.00    -0.353 OA
HETATM   29  C1  UNL     1      29.723   9.818  44.824  1.00  0.00     0.210 C 
ENDBRANCH   1  28
TORSDOF 6
ENDMDL
MODEL 9
REMARK VINA RESULT:      -7.6      4.020      7.247
REMARK  6 active torsions:
REMARK  status: ('A' for Active; 'I' for Inactive)
REMARK    1  A    between atoms: O1_2  and  C2_3 
REMARK    2  A    between atoms: C6_7  and  C7_8 
REMARK    3  A    between atoms: C7_8  and  C9_12 
REMARK    4  A    between atoms: N1_9  and  C8_10 
REMARK    5  A    between atoms: C16_21  and  O2_22 
REMARK    6  A    between atoms: O2_22  and  C17_23 
ROOT
HETATM    1  C2  UNL     1      25.541   3.739  49.627  1.00  0.00     0.102 A 
HETATM    2  C3  UNL     1      24.917   4.644  48.752  1.00  0.00     0.040 A 
HETATM    3  C4  UNL     1      23.543   4.870  48.874  1.00  0.00     0.004 A 
HETATM    4  C5  UNL     1      22.961   4.163  49.847  1.00  0.00     0.017 A 
HETATM    5  C6  UNL     1      23.439   3.267  50.748  1.00  0.00     0.030 A 
HETATM    6  C16 UNL     1      24.821   3.051  50.625  1.00  0.00     0.115 A 
ENDROOT
BRANCH   5   7
HETATM    7  C7  UNL     1      22.711   2.838  51.863  1.00  0.00     0.082 C 
HETATM    8  N1  UNL     1      22.927   3.374  52.927  1.00  0.00    -0.241 NA
BRANCH   8   9
HETATM    9  C8  UNL     1      23.685   4.331  53.510  1.00  0.00     0.224 C 
HETATM   10  N2  UNL     1      23.822   5.590  53.154  1.00  0.00    -0.293 NA
HETATM   11  H8  UNL     1      23.321   5.985  52.333  1.00  0.00     0.187 HD
ENDBRANCH   8   9
BRANCH   7  12
HETATM   12  C9  UNL     1      21.602   1.962  52.130  1.00  0.00     0.001 A 
HETATM   13  C10 UNL     1      20.279   2.159  51.830  1.00  0.00     0.041 A 
HETATM   14  C11 UNL     1      19.135   1.418  51.873  1.00  0.00     0.073 A 
HETATM   15 CL1  UNL     1      17.546   1.952  51.408  1.00  0.00    -0.081 Cl
HETATM   16  C12 UNL     1      19.372   0.155  52.343  1.00  0.00     0.138 A 
HETATM   17  F1  UNL     1      18.360  -0.735  52.457  1.00  0.00    -0.204 F 
HETATM   18  C13 UNL     1      20.631  -0.213  52.693  1.00  0.00     0.051 A 
HETATM   19  C14 UNL     1      21.735   0.645  52.600  1.00  0.00    -0.046 A 
HETATM   20  C15 UNL     1      23.014   0.057  53.018  1.00  0.00     0.049 C 
ENDBRANCH   7  12
ENDBRANCH   5   7
BRANCH   6  21
HETATM   21  O2  UNL     1      25.751   2.388  51.177  1.00  0.00    -0.340 OA
BRANCH  21  22
HETATM   22  C17 UNL     1      26.719   1.704  51.741  1.00  0.00     0.159 C 
HETATM   23  C18 UNL     1      26.530   0.189  51.953  1.00  0.00     0.064 C 
HETATM   24  C19 UNL     1      27.823  -0.048  52.743  1.00  0.00     0.274 C 
HETATM   25  N3  UNL     1      27.810   0.991  53.716  1.00  0.00     0.086 N 
HETATM   26  C20 UNL     1      29.127   1.508  54.030  1.00  0.00     0.310 C 
HETATM   27  C21 UNL     1      26.965   2.051  53.233  1.00  0.00     0.304 C 
ENDBRANCH  21  22
ENDBRANCH   6  21
BRANCH   1  28
HETATM   28  O1  UNL     1      26.870   3.708  49.286  1.00  0.00    -0.353 OA
HETATM   29  C1  UNL     1      27.648   4.710  48.744  1.00  0.00     0.210 C 
ENDBRANCH   1  28
TORSDOF 6
ENDMDL
