MODEL 1
REMARK VINA RESULT:      -6.7      0.000      0.000
REMARK  8 active torsions:
REMARK  status: ('A' for Active; 'I' for Inactive)
REMARK    1  A    between atoms: C1_2  and  C2_3 
REMARK    2  A    between atoms: C2_3  and  N1_4 
REMARK    3  A    between atoms: C10_14  and  N3_15 
REMARK    4  A    between atoms: N3_15  and  C11_16 
REMARK    5  A    between atoms: C11_16  and  C12_17 
REMARK    6  A    between atoms: C11_16  and  C13_19 
REMARK    7  A    between atoms: C12_17  and  O2_18 
REMARK    8  A    between atoms: C13_19  and  C14_20 
ROOT
HETATM    1  N1  UNL     1      27.870   0.364  52.871  1.00  0.00     0.099 N 
HETATM    2  C3  UNL     1      27.764   1.779  53.042  1.00  0.00     0.277 C 
HETATM    3  C4  UNL     1      26.896   2.300  51.889  1.00  0.00     0.068 C 
HETATM    4  C5  UNL     1      25.499   1.936  52.328  1.00  0.00    -0.029 C 
HETATM    5  C6  UNL     1      25.441   0.649  52.656  1.00  0.00     0.017 C 
HETATM    6  C7  UNL     1      26.620  -0.251  52.580  1.00  0.00     0.319 C 
HETATM    7  S1  UNL     1      24.003  -0.279  53.241  1.00  0.00    -0.086 SA
HETATM    8  C8  UNL     1      22.566   0.780  53.324  1.00  0.00     0.160 C 
HETATM    9  N2  UNL     1      22.370   1.834  52.658  1.00  0.00    -0.292 NA
HETATM   10  C9  UNL     1      23.215   2.460  51.679  1.00  0.00     0.189 C 
HETATM   11  C10 UNL     1      24.464   3.011  52.325  1.00  0.00     0.270 C 
ENDROOT
BRANCH  11  12
HETATM   12  N3  UNL     1      24.973   4.129  51.596  1.00  0.00     0.100 N 
HETATM   13  H14 UNL     1      25.823   3.828  51.046  1.00  0.00     0.317 HD
BRANCH  12  14
HETATM   14  C11 UNL     1      24.081   4.739  50.667  1.00  0.00     0.245 C 
BRANCH  14  15
HETATM   15  C12 UNL     1      23.828   6.209  51.029  1.00  0.00     0.199 C 
BRANCH  15  16
HETATM   16  O2  UNL     1      24.402   6.445  52.277  1.00  0.00    -0.399 OA
HETATM   17  H18 UNL     1      25.277   6.911  52.097  1.00  0.00     0.209 HD
ENDBRANCH  15  16
ENDBRANCH  14  15
BRANCH  14  18
HETATM   18  C13 UNL     1      24.746   4.742  49.299  1.00  0.00     0.053 C 
BRANCH  18  19
HETATM   19  C14 UNL     1      26.031   5.512  49.261  1.00  0.00     0.117 C 
HETATM   20 CL1  UNL     1      27.417   4.497  48.818  1.00  0.00    -0.130 Cl
ENDBRANCH  18  19
ENDBRANCH  14  18
ENDBRANCH  12  14
ENDBRANCH  11  12
BRANCH   1  21
HETATM   21  C2  UNL     1      28.568  -0.291  53.956  1.00  0.00     0.341 C 
BRANCH  21  22
HETATM   22  C1  UNL     1      29.184  -1.517  53.401  1.00  0.00     0.261 C 
HETATM   23  O1  UNL     1      29.049  -2.726  53.394  1.00  0.00    -0.305 OA
ENDBRANCH  21  22
ENDBRANCH   1  21
TORSDOF 8
ENDMDL
MODEL 2
REMARK VINA RESULT:      -6.3      1.536      1.605
REMARK  8 active torsions:
REMARK  status: ('A' for Active; 'I' for Inactive)
REMARK    1  A    between atoms: C1_2  and  C2_3 
REMARK    2  A    between atoms: C2_3  and  N1_4 
REMARK    3  A    between atoms: C10_14  and  N3_15 
REMARK    4  A    between atoms: N3_15  and  C11_16 
REMARK    5  A    between atoms: C11_16  and  C12_17 
REMARK    6  A    between atoms: C11_16  and  C13_19 
REMARK    7  A    between atoms: C12_17  and  O2_18 
REMARK    8  A    between atoms: C13_19  and  C14_20 
ROOT
HETATM    1  N1  UNL     1      27.563   0.517  53.149  1.00  0.00     0.099 N 
HETATM    2  C3  UNL     1      27.326   1.876  52.776  1.00  0.00     0.277 C 
HETATM    3  C4  UNL     1      26.539   1.843  51.459  1.00  0.00     0.068 C 
HETATM    4  C5  UNL     1      25.139   1.508  51.912  1.00  0.00    -0.029 C 
HETATM    5  C6  UNL     1      25.153   0.429  52.688  1.00  0.00     0.017 C 
HETATM    6  C7  UNL     1      26.404  -0.299  53.027  1.00  0.00     0.319 C 
HETATM    7  S1  UNL     1      23.744  -0.380  53.483  1.00  0.00    -0.086 SA
HETATM    8  C8  UNL     1      22.224   0.466  53.075  1.00  0.00     0.160 C 
HETATM    9  N2  UNL     1      22.012   1.178  52.055  1.00  0.00    -0.292 NA
HETATM   10  C9  UNL     1      22.897   1.499  50.970  1.00  0.00     0.189 C 
HETATM   11  C10 UNL     1      24.025   2.384  51.445  1.00  0.00     0.270 C 
ENDROOT
BRANCH  11  12
HETATM   12  N3  UNL     1      24.512   3.212  50.388  1.00  0.00     0.100 N 
HETATM   13  H14 UNL     1      24.214   2.803  49.460  1.00  0.00     0.317 HD
BRANCH  12  14
HETATM   14  C11 UNL     1      24.077   4.569  50.394  1.00  0.00     0.245 C 
BRANCH  14  15
HETATM   15  C12 UNL     1      23.614   4.993  51.795  1.00  0.00     0.199 C 
BRANCH  15  16
HETATM   16  O2  UNL     1      24.248   6.194  52.107  1.00  0.00    -0.399 OA
HETATM   17  H18 UNL     1      25.230   5.978  52.188  1.00  0.00     0.209 HD
ENDBRANCH  15  16
ENDBRANCH  14  15
BRANCH  14  18
HETATM   18  C13 UNL     1      25.265   5.453  50.048  1.00  0.00     0.053 C 
BRANCH  18  19
HETATM   19  C14 UNL     1      26.328   4.746  49.263  1.00  0.00     0.117 C 
HETATM   20 CL1  UNL     1      27.407   5.871  48.416  1.00  0.00    -0.130 Cl
ENDBRANCH  18  19
ENDBRANCH  14  18
ENDBRANCH  12  14
ENDBRANCH  11  12
BRANCH   1  21
HETATM   21  C2  UNL     1      28.200   0.383  54.441  1.00  0.00     0.341 C 
BRANCH  21  22
HETATM   22  C1  UNL     1      29.321   1.349  54.477  1.00  0.00     0.261 C 
HETATM   23  O1  UNL     1      29.701   2.338  55.075  1.00  0.00    -0.305 OA
ENDBRANCH  21  22
ENDBRANCH   1  21
TORSDOF 8
ENDMDL
MODEL 3
REMARK VINA RESULT:      -6.3      3.061      6.142
REMARK  8 active torsions:
REMARK  status: ('A' for Active; 'I' for Inactive)
REMARK    1  A    between atoms: C1_2  and  C2_3 
REMARK    2  A    between atoms: C2_3  and  N1_4 
REMARK    3  A    between atoms: C10_14  and  N3_15 
REMARK    4  A    between atoms: N3_15  and  C11_16 
REMARK    5  A    between atoms: C11_16  and  C12_17 
REMARK    6  A    between atoms: C11_16  and  C13_19 
REMARK    7  A    between atoms: C12_17  and  O2_18 
REMARK    8  A    between atoms: C13_19  and  C14_20 
ROOT
HETATM    1  N1  UNL     1      21.413   0.374  52.307  1.00  0.00     0.099 N 
HETATM    2  C3  UNL     1      22.227   0.828  53.391  1.00  0.00     0.277 C 
HETATM    3  C4  UNL     1      23.683   0.548  52.998  1.00  0.00     0.068 C 
HETATM    4  C5  UNL     1      23.991   1.663  52.029  1.00  0.00    -0.029 C 
HETATM    5  C6  UNL     1      23.061   1.718  51.081  1.00  0.00     0.017 C 
HETATM    6  C7  UNL     1      21.905   0.787  51.037  1.00  0.00     0.319 C 
HETATM    7  S1  UNL     1      22.968   2.870  49.689  1.00  0.00    -0.086 SA
HETATM    8  C8  UNL     1      24.360   3.990  49.709  1.00  0.00     0.160 C 
HETATM    9  N2  UNL     1      25.484   3.782  50.242  1.00  0.00    -0.292 NA
HETATM   10  C9  UNL     1      25.950   2.627  50.958  1.00  0.00     0.189 C 
HETATM   11  C10 UNL     1      25.217   2.479  52.270  1.00  0.00     0.270 C 
ENDROOT
BRANCH  11  12
HETATM   12  N3  UNL     1      26.024   1.809  53.240  1.00  0.00     0.100 N 
HETATM   13  H14 UNL     1      25.568   0.892  53.499  1.00  0.00     0.317 HD
BRANCH  12  14
HETATM   14  C11 UNL     1      27.361   1.505  52.852  1.00  0.00     0.245 C 
BRANCH  14  15
HETATM   15  C12 UNL     1      28.374   2.267  53.720  1.00  0.00     0.199 C 
BRANCH  15  16
HETATM   16  O2  UNL     1      29.076   3.139  52.889  1.00  0.00    -0.399 OA
HETATM   17  H18 UNL     1      29.945   3.332  53.361  1.00  0.00     0.209 HD
ENDBRANCH  15  16
ENDBRANCH  14  15
BRANCH  14  18
HETATM   18  C13 UNL     1      27.607   0.026  53.104  1.00  0.00     0.053 C 
BRANCH  18  19
HETATM   19  C14 UNL     1      28.534  -0.239  54.250  1.00  0.00     0.117 C 
HETATM   20 CL1  UNL     1      30.042  -1.021  53.737  1.00  0.00    -0.130 Cl
ENDBRANCH  18  19
ENDBRANCH  14  18
ENDBRANCH  12  14
ENDBRANCH  11  12
BRANCH   1  21
HETATM   21  C2  UNL     1      20.009   0.679  52.482  1.00  0.00     0.341 C 
BRANCH  21  22
HETATM   22  C1  UNL     1      19.814   2.086  52.066  1.00  0.00     0.261 C 
HETATM   23  O1  UNL     1      19.502   3.173  52.516  1.00  0.00    -0.305 OA
ENDBRANCH  21  22
ENDBRANCH   1  21
TORSDOF 8
ENDMDL
MODEL 4
REMARK VINA RESULT:      -6.1      3.113      4.732
REMARK  8 active torsions:
REMARK  status: ('A' for Active; 'I' for Inactive)
REMARK    1  A    between atoms: C1_2  and  C2_3 
REMARK    2  A    between atoms: C2_3  and  N1_4 
REMARK    3  A    between atoms: C10_14  and  N3_15 
REMARK    4  A    between atoms: N3_15  and  C11_16 
REMARK    5  A    between atoms: C11_16  and  C12_17 
REMARK    6  A    between atoms: C11_16  and  C13_19 
REMARK    7  A    between atoms: C12_17  and  O2_18 
REMARK    8  A    between atoms: C13_19  and  C14_20 
ROOT
HETATM    1  N1  UNL     1      27.827   0.123  53.851  1.00  0.00     0.099 N 
HETATM    2  C3  UNL     1      26.662  -0.702  53.783  1.00  0.00     0.277 C 
HETATM    3  C4  UNL     1      25.477   0.169  54.219  1.00  0.00     0.068 C 
HETATM    4  C5  UNL     1      25.206   1.007  52.993  1.00  0.00    -0.029 C 
HETATM    5  C6  UNL     1      26.326   1.592  52.580  1.00  0.00     0.017 C 
HETATM    6  C7  UNL     1      27.629   1.406  53.270  1.00  0.00     0.319 C 
HETATM    7  S1  UNL     1      26.539   2.694  51.162  1.00  0.00    -0.086 SA
HETATM    8  C8  UNL     1      24.981   2.948  50.326  1.00  0.00     0.160 C 
HETATM    9  N2  UNL     1      23.830   2.836  50.832  1.00  0.00    -0.292 NA
HETATM   10  C9  UNL     1      23.458   2.486  52.175  1.00  0.00     0.189 C 
HETATM   11  C10 UNL     1      23.810   1.047  52.470  1.00  0.00     0.270 C 
ENDROOT
BRANCH  11  12
HETATM   12  N3  UNL     1      22.938   0.494  53.457  1.00  0.00     0.100 N 
HETATM   13  H14 UNL     1      22.426   1.278  53.947  1.00  0.00     0.317 HD
BRANCH  12  14
HETATM   14  C11 UNL     1      21.944  -0.413  52.989  1.00  0.00     0.245 C 
BRANCH  14  15
HETATM   15  C12 UNL     1      21.833  -1.635  53.912  1.00  0.00     0.199 C 
BRANCH  15  16
HETATM   16  O2  UNL     1      21.064  -1.266  55.015  1.00  0.00    -0.399 OA
HETATM   17  H18 UNL     1      20.164  -1.701  54.883  1.00  0.00     0.209 HD
ENDBRANCH  15  16
ENDBRANCH  14  15
BRANCH  14  18
HETATM   18  C13 UNL     1      20.595   0.288  53.041  1.00  0.00     0.053 C 
BRANCH  18  19
HETATM   19  C14 UNL     1      19.887   0.322  51.721  1.00  0.00     0.117 C 
HETATM   20 CL1  UNL     1      21.006   0.484  50.355  1.00  0.00    -0.130 Cl
ENDBRANCH  18  19
ENDBRANCH  14  18
ENDBRANCH  12  14
ENDBRANCH  11  12
BRANCH   1  21
HETATM   21  C2  UNL     1      29.019  -0.531  53.355  1.00  0.00     0.341 C 
BRANCH  21  22
HETATM   22  C1  UNL     1      28.685  -1.961  53.167  1.00  0.00     0.261 C 
HETATM   23  O1  UNL     1      29.015  -3.069  53.546  1.00  0.00    -0.305 OA
ENDBRANCH  21  22
ENDBRANCH   1  21
TORSDOF 8
ENDMDL
MODEL 5
REMARK VINA RESULT:      -5.9      3.420      4.854
REMARK  8 active torsions:
REMARK  status: ('A' for Active; 'I' for Inactive)
REMARK    1  A    between atoms: C1_2  and  C2_3 
REMARK    2  A    between atoms: C2_3  and  N1_4 
REMARK    3  A    between atoms: C10_14  and  N3_15 
REMARK    4  A    between atoms: N3_15  and  C11_16 
REMARK    5  A    between atoms: C11_16  and  C12_17 
REMARK    6  A    between atoms: C11_16  and  C13_19 
REMARK    7  A    between atoms: C12_17  and  O2_18 
REMARK    8  A    between atoms: C13_19  and  C14_20 
ROOT
HETATM    1  N1  UNL     1      27.323  -0.020  53.615  1.00  0.00     0.099 N 
HETATM    2  C3  UNL     1      26.182  -0.811  53.276  1.00  0.00     0.277 C 
HETATM    3  C4  UNL     1      24.944   0.036  53.598  1.00  0.00     0.068 C 
HETATM    4  C5  UNL     1      24.881   0.996  52.435  1.00  0.00    -0.029 C 
HETATM    5  C6  UNL     1      26.056   1.596  52.270  1.00  0.00     0.017 C 
HETATM    6  C7  UNL     1      27.227   1.318  53.141  1.00  0.00     0.319 C 
HETATM    7  S1  UNL     1      26.503   2.828  51.023  1.00  0.00    -0.086 SA
HETATM    8  C8  UNL     1      25.103   3.194  49.975  1.00  0.00     0.160 C 
HETATM    9  N2  UNL     1      23.885   3.056  50.273  1.00  0.00    -0.292 NA
HETATM   10  C9  UNL     1      23.297   2.583  51.495  1.00  0.00     0.189 C 
HETATM   11  C10 UNL     1      23.590   1.116  51.697  1.00  0.00     0.270 C 
ENDROOT
BRANCH  11  12
HETATM   12  N3  UNL     1      22.566   0.486  52.469  1.00  0.00     0.100 N 
HETATM   13  H14 UNL     1      22.837   0.508  53.491  1.00  0.00     0.317 HD
BRANCH  12  14
HETATM   14  C11 UNL     1      21.263   1.056  52.380  1.00  0.00     0.245 C 
BRANCH  14  15
HETATM   15  C12 UNL     1      20.450   0.401  51.254  1.00  0.00     0.199 C 
BRANCH  15  16
HETATM   16  O2  UNL     1      19.267  -0.083  51.810  1.00  0.00    -0.399 OA
HETATM   17  H18 UNL     1      19.284   0.189  52.780  1.00  0.00     0.209 HD
ENDBRANCH  15  16
ENDBRANCH  14  15
BRANCH  14  18
HETATM   18  C13 UNL     1      20.522   0.758  53.674  1.00  0.00     0.053 C 
BRANCH  18  19
HETATM   19  C14 UNL     1      21.317  -0.063  54.643  1.00  0.00     0.117 C 
HETATM   20 CL1  UNL     1      21.021  -1.803  54.459  1.00  0.00    -0.130 Cl
ENDBRANCH  18  19
ENDBRANCH  14  18
ENDBRANCH  12  14
ENDBRANCH  11  12
BRANCH   1  21
HETATM   21  C2  UNL     1      28.577  -0.646  53.256  1.00  0.00     0.341 C 
BRANCH  21  22
HETATM   22  C1  UNL     1      28.318  -2.097  53.122  1.00  0.00     0.261 C 
HETATM   23  O1  UNL     1      28.746  -3.175  53.491  1.00  0.00    -0.305 OA
ENDBRANCH  21  22
ENDBRANCH   1  21
TORSDOF 8
ENDMDL
MODEL 6
REMARK VINA RESULT:      -5.8      3.069      6.613
REMARK  8 active torsions:
REMARK  status: ('A' for Active; 'I' for Inactive)
REMARK    1  A    between atoms: C1_2  and  C2_3 
REMARK    2  A    between atoms: C2_3  and  N1_4 
REMARK    3  A    between atoms: C10_14  and  N3_15 
REMARK    4  A    between atoms: N3_15  and  C11_16 
REMARK    5  A    between atoms: C11_16  and  C12_17 
REMARK    6  A    between atoms: C11_16  and  C13_19 
REMARK    7  A    between atoms: C12_17  and  O2_18 
REMARK    8  A    between atoms: C13_19  and  C14_20 
ROOT
HETATM    1  N1  UNL     1      24.257   3.491  50.871  1.00  0.00     0.099 N 
HETATM    2  C3  UNL     1      23.215   2.862  51.620  1.00  0.00     0.277 C 
HETATM    3  C4  UNL     1      23.409   1.348  51.464  1.00  0.00     0.068 C 
HETATM    4  C5  UNL     1      24.547   1.055  52.411  1.00  0.00    -0.029 C 
HETATM    5  C6  UNL     1      25.569   1.871  52.167  1.00  0.00     0.017 C 
HETATM    6  C7  UNL     1      25.532   2.904  51.101  1.00  0.00     0.319 C 
HETATM    7  S1  UNL     1      27.164   1.929  53.019  1.00  0.00    -0.086 SA
HETATM    8  C8  UNL     1      27.238   0.681  54.295  1.00  0.00     0.160 C 
HETATM    9  N2  UNL     1      26.574  -0.391  54.337  1.00  0.00    -0.292 NA
HETATM   10  C9  UNL     1      25.604  -0.896  53.406  1.00  0.00     0.189 C 
HETATM   11  C10 UNL     1      24.362  -0.038  53.409  1.00  0.00     0.270 C 
ENDROOT
BRANCH  11  12
HETATM   12  N3  UNL     1      23.208  -0.796  53.042  1.00  0.00     0.100 N 
HETATM   13  H14 UNL     1      23.514  -1.740  52.678  1.00  0.00     0.317 HD
BRANCH  12  14
HETATM   14  C11 UNL     1      22.259  -1.046  54.076  1.00  0.00     0.245 C 
BRANCH  14  15
HETATM   15  C12 UNL     1      22.902  -0.901  55.462  1.00  0.00     0.199 C 
BRANCH  15  16
HETATM   16  O2  UNL     1      23.094  -2.181  55.979  1.00  0.00    -0.399 OA
HETATM   17  H18 UNL     1      24.050  -2.424  55.771  1.00  0.00     0.209 HD
ENDBRANCH  15  16
ENDBRANCH  14  15
BRANCH  14  18
HETATM   18  C13 UNL     1      21.173   0.016  53.993  1.00  0.00     0.053 C 
BRANCH  18  19
HETATM   19  C14 UNL     1      19.949  -0.438  53.258  1.00  0.00     0.117 C 
HETATM   20 CL1  UNL     1      19.818   0.288  51.645  1.00  0.00    -0.130 Cl
ENDBRANCH  18  19
ENDBRANCH  14  18
ENDBRANCH  12  14
ENDBRANCH  11  12
BRANCH   1  21
HETATM   21  C2  UNL     1      24.275   4.930  51.017  1.00  0.00     0.341 C 
BRANCH  21  22
HETATM   22  C1  UNL     1      22.935   5.337  51.496  1.00  0.00     0.261 C 
HETATM   23  O1  UNL     1      22.125   6.239  51.393  1.00  0.00    -0.305 OA
ENDBRANCH  21  22
ENDBRANCH   1  21
TORSDOF 8
ENDMDL
MODEL 7
REMARK VINA RESULT:      -5.8      2.871      3.357
REMARK  8 active torsions:
REMARK  status: ('A' for Active; 'I' for Inactive)
REMARK    1  A    between atoms: C1_2  and  C2_3 
REMARK    2  A    between atoms: C2_3  and  N1_4 
REMARK    3  A    between atoms: C10_14  and  N3_15 
REMARK    4  A    between atoms: N3_15  and  C11_16 
REMARK    5  A    between atoms: C11_16  and  C12_17 
REMARK    6  A    between atoms: C11_16  and  C13_19 
REMARK    7  A    between atoms: C12_17  and  O2_18 
REMARK    8  A    between atoms: C13_19  and  C14_20 
ROOT
HETATM    1  N1  UNL     1      26.573   0.344  53.461  1.00  0.00     0.099 N 
HETATM    2  C3  UNL     1      26.097   1.682  53.300  1.00  0.00     0.277 C 
HETATM    3  C4  UNL     1      25.004   1.637  52.225  1.00  0.00     0.068 C 
HETATM    4  C5  UNL     1      23.816   1.086  52.975  1.00  0.00    -0.029 C 
HETATM    5  C6  UNL     1      24.152  -0.033  53.609  1.00  0.00     0.017 C 
HETATM    6  C7  UNL     1      25.520  -0.609  53.549  1.00  0.00     0.319 C 
HETATM    7  S1  UNL     1      23.096  -1.077  54.643  1.00  0.00    -0.086 SA
HETATM    8  C8  UNL     1      21.438  -0.415  54.715  1.00  0.00     0.160 C 
HETATM    9  N2  UNL     1      20.890   0.332  53.858  1.00  0.00    -0.292 NA
HETATM   10  C9  UNL     1      21.421   0.844  52.626  1.00  0.00     0.189 C 
HETATM   11  C10 UNL     1      22.529   1.836  52.892  1.00  0.00     0.270 C 
ENDROOT
BRANCH  11  12
HETATM   12  N3  UNL     1      22.629   2.794  51.837  1.00  0.00     0.100 N 
HETATM   13  H14 UNL     1      22.022   2.486  51.029  1.00  0.00     0.317 HD
BRANCH  12  14
HETATM   14  C11 UNL     1      22.241   4.128  52.154  1.00  0.00     0.245 C 
BRANCH  14  15
HETATM   15  C12 UNL     1      23.431   5.091  52.036  1.00  0.00     0.199 C 
BRANCH  15  16
HETATM   16  O2  UNL     1      23.920   5.323  53.320  1.00  0.00    -0.399 OA
HETATM   17  H18 UNL     1      23.289   5.985  53.743  1.00  0.00     0.209 HD
ENDBRANCH  15  16
ENDBRANCH  14  15
BRANCH  14  18
HETATM   18  C13 UNL     1      21.216   4.584  51.126  1.00  0.00     0.053 C 
BRANCH  18  19
HETATM   19  C14 UNL     1      19.838   4.055  51.381  1.00  0.00     0.117 C 
HETATM   20 CL1  UNL     1      18.654   4.648  50.201  1.00  0.00    -0.130 Cl
ENDBRANCH  18  19
ENDBRANCH  14  18
ENDBRANCH  12  14
ENDBRANCH  11  12
BRANCH   1  21
HETATM   21  C2  UNL     1      27.534   0.206  54.534  1.00  0.00     0.341 C 
BRANCH  21  22
HETATM   22  C1  UNL     1      28.624   1.173  54.269  1.00  0.00     0.261 C 
HETATM   23  O1  UNL     1      29.317   1.998  54.835  1.00  0.00    -0.305 OA
ENDBRANCH  21  22
ENDBRANCH   1  21
TORSDOF 8
ENDMDL
MODEL 8
REMARK VINA RESULT:      -5.8      3.720      5.778
REMARK  8 active torsions:
REMARK  status: ('A' for Active; 'I' for Inactive)
REMARK    1  A    between atoms: C1_2  and  C2_3 
REMARK    2  A    between atoms: C2_3  and  N1_4 
REMARK    3  A    between atoms: C10_14  and  N3_15 
REMARK    4  A    between atoms: N3_15  and  C11_16 
REMARK    5  A    between atoms: C11_16  and  C12_17 
REMARK    6  A    between atoms: C11_16  and  C13_19 
REMARK    7  A    between atoms: C12_17  and  O2_18 
REMARK    8  A    between atoms: C13_19  and  C14_20 
ROOT
HETATM    1  N1  UNL     1      25.449   3.658  49.786  1.00  0.00     0.099 N 
HETATM    2  C3  UNL     1      24.178   3.716  50.437  1.00  0.00     0.277 C 
HETATM    3  C4  UNL     1      23.691   2.269  50.588  1.00  0.00     0.068 C 
HETATM    4  C5  UNL     1      24.498   1.763  51.759  1.00  0.00    -0.029 C 
HETATM    5  C6  UNL     1      25.791   1.998  51.562  1.00  0.00     0.017 C 
HETATM    6  C7  UNL     1      26.307   2.668  50.341  1.00  0.00     0.319 C 
HETATM    7  S1  UNL     1      27.169   1.587  52.660  1.00  0.00    -0.086 SA
HETATM    8  C8  UNL     1      26.574   0.762  54.129  1.00  0.00     0.160 C 
HETATM    9  N2  UNL     1      25.502   0.107  54.240  1.00  0.00    -0.292 NA
HETATM   10  C9  UNL     1      24.490  -0.154  53.255  1.00  0.00     0.189 C 
HETATM   11  C10 UNL     1      23.763   1.117  52.885  1.00  0.00     0.270 C 
ENDROOT
BRANCH  11  12
HETATM   12  N3  UNL     1      22.428   0.843  52.458  1.00  0.00     0.100 N 
HETATM   13  H14 UNL     1      22.237  -0.192  52.555  1.00  0.00     0.317 HD
BRANCH  12  14
HETATM   14  C11 UNL     1      21.387   1.517  53.160  1.00  0.00     0.245 C 
BRANCH  14  15
HETATM   15  C12 UNL     1      20.218   1.854  52.222  1.00  0.00     0.199 C 
BRANCH  15  16
HETATM   16  O2  UNL     1      19.756   3.126  52.559  1.00  0.00    -0.399 OA
HETATM   17  H18 UNL     1      18.754   3.092  52.459  1.00  0.00     0.209 HD
ENDBRANCH  15  16
ENDBRANCH  14  15
BRANCH  14  18
HETATM   18  C13 UNL     1      20.832   0.572  54.214  1.00  0.00     0.053 C 
BRANCH  18  19
HETATM   19  C14 UNL     1      20.622  -0.825  53.714  1.00  0.00     0.117 C 
HETATM   20 CL1  UNL     1      21.683  -1.999  54.515  1.00  0.00    -0.130 Cl
ENDBRANCH  18  19
ENDBRANCH  14  18
ENDBRANCH  12  14
ENDBRANCH  11  12
BRANCH   1  21
HETATM   21  C2  UNL     1      26.093   4.950  49.678  1.00  0.00     0.341 C 
BRANCH  21  22
HETATM   22  C1  UNL     1      27.240   4.788  48.756  1.00  0.00     0.261 C 
HETATM   23  O1  UNL     1      28.443   4.963  48.701  1.00  0.00    -0.305 OA
ENDBRANCH  21  22
ENDBRANCH   1  21
TORSDOF 8
ENDMDL
MODEL 9
REMARK VINA RESULT:      -5.6      2.631      2.963
REMARK  8 active torsions:
REMARK  status: ('A' for Active; 'I' for Inactive)
REMARK    1  A    between atoms: C1_2  and  C2_3 
REMARK    2  A    between atoms: C2_3  and  N1_4 
REMARK    3  A    between atoms: C10_14  and  N3_15 
REMARK    4  A    between atoms: N3_15  and  C11_16 
REMARK    5  A    between atoms: C11_16  and  C12_17 
REMARK    6  A    between atoms: C11_16  and  C13_19 
REMARK    7  A    between atoms: C12_17  and  O2_18 
REMARK    8  A    between atoms: C13_19  and  C14_20 
ROOT
HETATM    1  N1  UNL     1      26.521   0.209  53.552  1.00  0.00     0.099 N 
HETATM    2  C3  UNL     1      26.062   1.540  53.307  1.00  0.00     0.277 C 
HETATM    3  C4  UNL     1      24.991   1.445  52.212  1.00  0.00     0.068 C 
HETATM    4  C5  UNL     1      23.782   0.947  52.966  1.00  0.00    -0.029 C 
HETATM    5  C6  UNL     1      24.093  -0.138  53.669  1.00  0.00     0.017 C 
HETATM    6  C7  UNL     1      25.457  -0.728  53.671  1.00  0.00     0.319 C 
HETATM    7  S1  UNL     1      23.006  -1.113  54.736  1.00  0.00    -0.086 SA
HETATM    8  C8  UNL     1      21.354  -0.433  54.735  1.00  0.00     0.160 C 
HETATM    9  N2  UNL     1      20.831   0.270  53.827  1.00  0.00    -0.292 NA
HETATM   10  C9  UNL     1      21.393   0.707  52.580  1.00  0.00     0.189 C 
HETATM   11  C10 UNL     1      22.505   1.702  52.814  1.00  0.00     0.270 C 
ENDROOT
BRANCH  11  12
HETATM   12  N3  UNL     1      22.636   2.599  51.710  1.00  0.00     0.100 N 
HETATM   13  H14 UNL     1      23.618   2.534  51.323  1.00  0.00     0.317 HD
BRANCH  12  14
HETATM   14  C11 UNL     1      21.751   2.389  50.613  1.00  0.00     0.245 C 
BRANCH  14  15
HETATM   15  C12 UNL     1      20.892   3.635  50.352  1.00  0.00     0.199 C 
BRANCH  15  16
HETATM   16  O2  UNL     1      19.558   3.232  50.314  1.00  0.00    -0.399 OA
HETATM   17  H18 UNL     1      19.013   4.055  50.519  1.00  0.00     0.209 HD
ENDBRANCH  15  16
ENDBRANCH  14  15
BRANCH  14  18
HETATM   18  C13 UNL     1      22.586   2.173  49.361  1.00  0.00     0.053 C 
BRANCH  18  19
HETATM   19  C14 UNL     1      23.201   3.431  48.828  1.00  0.00     0.117 C 
HETATM   20 CL1  UNL     1      24.902   3.606  49.298  1.00  0.00    -0.130 Cl
ENDBRANCH  18  19
ENDBRANCH  14  18
ENDBRANCH  12  14
ENDBRANCH  11  12
BRANCH   1  21
HETATM   21  C2  UNL     1      27.458   0.123  54.651  1.00  0.00     0.341 C 
BRANCH  21  22
HETATM   22  C1  UNL     1      28.598   1.007  54.322  1.00  0.00     0.261 C 
HETATM   23  O1  UNL     1      29.295   1.877  54.811  1.00  0.00    -0.305 OA
ENDBRANCH  21  22
ENDBRANCH   1  21
TORSDOF 8
ENDMDL
