MODEL 1
REMARK VINA RESULT:      -8.9      0.000      0.000
REMARK  0 active torsions:
REMARK  status: ('A' for Active; 'I' for Inactive)
ROOT
HETATM    1  O1  UNL     1      18.132   0.023  52.268  1.00  0.00    -0.292 OA
HETATM    2  C1  UNL     1      19.368   0.218  52.420  1.00  0.00     0.159 C 
HETATM    3  C2  UNL     1      19.994  -0.749  53.447  1.00  0.00     0.084 C 
HETATM    4  C3  UNL     1      21.421  -0.476  53.499  1.00  0.00     0.008 C 
HETATM    5  C4  UNL     1      22.309  -1.268  54.487  1.00  0.00     0.000 C 
HETATM    6  C5  UNL     1      23.661  -0.573  54.181  1.00  0.00     0.002 C 
HETATM    7  C6  UNL     1      24.822  -1.009  54.932  1.00  0.00     0.030 C 
HETATM    8  C7  UNL     1      26.005  -0.129  54.520  1.00  0.00     0.269 C 
HETATM    9  N1  UNL     1      26.306  -0.275  53.115  1.00  0.00     0.083 N 
HETATM   10  C8  UNL     1      27.429   0.568  52.740  1.00  0.00     0.273 C 
HETATM   11  C9  UNL     1      27.104   2.037  52.730  1.00  0.00     0.056 C 
HETATM   12  C10 UNL     1      26.138   2.380  51.615  1.00  0.00    -0.029 C 
HETATM   13  C11 UNL     1      26.369   3.270  50.628  1.00  0.00    -0.028 C 
HETATM   14  C12 UNL     1      25.541   3.742  49.437  1.00  0.00     0.053 C 
HETATM   15  C13 UNL     1      24.231   2.928  49.479  1.00  0.00     0.179 C 
HETATM   16  O2  UNL     1      23.581   3.175  50.694  1.00  0.00    -0.351 OA
HETATM   17  C14 UNL     1      22.467   2.547  51.149  1.00  0.00     0.068 A 
HETATM   18  C15 UNL     1      21.746   3.038  52.206  1.00  0.00     0.037 A 
HETATM   19  C16 UNL     1      20.656   2.288  52.585  1.00  0.00     0.018 A 
HETATM   20  C17 UNL     1      20.401   1.138  51.874  1.00  0.00     0.010 A 
HETATM   21  C18 UNL     1      21.091   0.620  50.807  1.00  0.00     0.018 A 
HETATM   22  C19 UNL     1      22.172   1.394  50.459  1.00  0.00     0.037 A 
HETATM   23  H13 UNL     1      25.538   0.001  52.490  1.00  0.00     0.315 HD
ENDROOT
TORSDOF 0
ENDMDL
MODEL 2
REMARK VINA RESULT:      -8.4      1.735      4.989
REMARK  0 active torsions:
REMARK  status: ('A' for Active; 'I' for Inactive)
ROOT
HETATM    1  O1  UNL     1      20.668   4.707  47.885  1.00  0.00    -0.292 OA
HETATM    2  C1  UNL     1      21.396   4.023  48.654  1.00  0.00     0.159 C 
HETATM    3  C2  UNL     1      22.885   4.417  48.558  1.00  0.00     0.084 C 
HETATM    4  C3  UNL     1      23.619   3.612  49.521  1.00  0.00     0.008 C 
HETATM    5  C4  UNL     1      25.156   3.756  49.617  1.00  0.00     0.000 C 
HETATM    6  C5  UNL     1      25.415   2.683  50.706  1.00  0.00     0.002 C 
HETATM    7  C6  UNL     1      26.790   2.457  51.108  1.00  0.00     0.030 C 
HETATM    8  C7  UNL     1      26.801   1.308  52.119  1.00  0.00     0.269 C 
HETATM    9  N1  UNL     1      26.042   1.641  53.302  1.00  0.00     0.083 N 
HETATM   10  C8  UNL     1      26.061   0.539  54.250  1.00  0.00     0.273 C 
HETATM   11  C9  UNL     1      25.248  -0.649  53.810  1.00  0.00     0.056 C 
HETATM   12  C10 UNL     1      23.767  -0.333  53.808  1.00  0.00    -0.029 C 
HETATM   13  C11 UNL     1      22.826  -0.995  54.512  1.00  0.00    -0.028 C 
HETATM   14  C12 UNL     1      21.315  -0.831  54.642  1.00  0.00     0.053 C 
HETATM   15  C13 UNL     1      20.943   0.392  53.777  1.00  0.00     0.179 C 
HETATM   16  O2  UNL     1      21.327   0.147  52.454  1.00  0.00    -0.351 OA
HETATM   17  C14 UNL     1      21.279   1.035  51.428  1.00  0.00     0.068 A 
HETATM   18  C15 UNL     1      21.408   0.634  50.124  1.00  0.00     0.037 A 
HETATM   19  C16 UNL     1      21.371   1.638  49.184  1.00  0.00     0.018 A 
HETATM   20  C17 UNL     1      21.210   2.926  49.641  1.00  0.00     0.010 A 
HETATM   21  C18 UNL     1      21.068   3.366  50.933  1.00  0.00     0.018 A 
HETATM   22  C19 UNL     1      21.111   2.336  51.842  1.00  0.00     0.037 A 
HETATM   23  H13 UNL     1      25.047   1.831  53.124  1.00  0.00     0.315 HD
ENDROOT
TORSDOF 0
ENDMDL
MODEL 3
REMARK VINA RESULT:      -8.3      1.739      2.778
REMARK  0 active torsions:
REMARK  status: ('A' for Active; 'I' for Inactive)
ROOT
HETATM    1  O1  UNL     1      19.880  -1.402  53.825  1.00  0.00    -0.292 OA
HETATM    2  C1  UNL     1      20.760  -0.635  53.350  1.00  0.00     0.159 C 
HETATM    3  C2  UNL     1      22.180  -0.999  53.834  1.00  0.00     0.084 C 
HETATM    4  C3  UNL     1      23.114  -0.094  53.184  1.00  0.00     0.008 C 
HETATM    5  C4  UNL     1      24.621  -0.191  53.516  1.00  0.00     0.000 C 
HETATM    6  C5  UNL     1      25.122   0.980  52.632  1.00  0.00     0.002 C 
HETATM    7  C6  UNL     1      26.543   1.274  52.655  1.00  0.00     0.030 C 
HETATM    8  C7  UNL     1      26.780   2.508  51.780  1.00  0.00     0.269 C 
HETATM    9  N1  UNL     1      26.401   2.263  50.409  1.00  0.00     0.083 N 
HETATM   10  C8  UNL     1      26.630   3.444  49.594  1.00  0.00     0.273 C 
HETATM   11  C9  UNL     1      25.670   4.568  49.876  1.00  0.00     0.056 C 
HETATM   12  C10 UNL     1      24.265   4.217  49.435  1.00  0.00    -0.029 C 
HETATM   13  C11 UNL     1      23.527   4.915  48.547  1.00  0.00    -0.028 C 
HETATM   14  C12 UNL     1      22.123   4.725  47.981  1.00  0.00     0.053 C 
HETATM   15  C13 UNL     1      21.584   3.422  48.607  1.00  0.00     0.179 C 
HETATM   16  O2  UNL     1      21.570   3.559  50.000  1.00  0.00    -0.351 OA
HETATM   17  C14 UNL     1      21.279   2.583  50.898  1.00  0.00     0.068 A 
HETATM   18  C15 UNL     1      21.018   2.870  52.212  1.00  0.00     0.037 A 
HETATM   19  C16 UNL     1      20.769   1.786  53.022  1.00  0.00     0.018 A 
HETATM   20  C17 UNL     1      20.805   0.540  52.440  1.00  0.00     0.010 A 
HETATM   21  C18 UNL     1      21.052   0.213  51.130  1.00  0.00     0.018 A 
HETATM   22  C19 UNL     1      21.298   1.320  50.354  1.00  0.00     0.037 A 
HETATM   23  H13 UNL     1      25.406   2.033  50.283  1.00  0.00     0.315 HD
ENDROOT
TORSDOF 0
ENDMDL
MODEL 4
REMARK VINA RESULT:      -8.2      2.751      5.265
REMARK  0 active torsions:
REMARK  status: ('A' for Active; 'I' for Inactive)
ROOT
HETATM    1  O1  UNL     1      26.834  -0.473  55.333  1.00  0.00    -0.292 OA
HETATM    2  C1  UNL     1      26.060  -0.058  54.430  1.00  0.00     0.159 C 
HETATM    3  C2  UNL     1      24.669  -0.723  54.498  1.00  0.00     0.084 C 
HETATM    4  C3  UNL     1      23.844  -0.132  53.456  1.00  0.00     0.008 C 
HETATM    5  C4  UNL     1      22.399  -0.641  53.251  1.00  0.00     0.000 C 
HETATM    6  C5  UNL     1      22.017   0.247  52.039  1.00  0.00     0.002 C 
HETATM    7  C6  UNL     1      20.690   0.078  51.478  1.00  0.00     0.030 C 
HETATM    8  C7  UNL     1      20.578   0.990  50.254  1.00  0.00     0.269 C 
HETATM    9  N1  UNL     1      20.732   2.379  50.617  1.00  0.00     0.083 N 
HETATM   10  C8  UNL     1      20.625   3.231  49.444  1.00  0.00     0.273 C 
HETATM   11  C9  UNL     1      21.805   3.128  48.515  1.00  0.00     0.056 C 
HETATM   12  C10 UNL     1      23.055   3.707  49.143  1.00  0.00    -0.029 C 
HETATM   13  C11 UNL     1      23.792   4.714  48.632  1.00  0.00    -0.028 C 
HETATM   14  C12 UNL     1      25.055   5.426  49.106  1.00  0.00     0.053 C 
HETATM   15  C13 UNL     1      25.417   4.790  50.465  1.00  0.00     0.179 C 
HETATM   16  O2  UNL     1      25.630   3.419  50.283  1.00  0.00    -0.351 OA
HETATM   17  C14 UNL     1      25.844   2.504  51.263  1.00  0.00     0.068 A 
HETATM   18  C15 UNL     1      26.316   1.248  50.983  1.00  0.00     0.037 A 
HETATM   19  C16 UNL     1      26.459   0.409  52.065  1.00  0.00     0.018 A 
HETATM   20  C17 UNL     1      26.120   0.909  53.302  1.00  0.00     0.010 A 
HETATM   21  C18 UNL     1      25.656   2.159  53.623  1.00  0.00     0.018 A 
HETATM   22  C19 UNL     1      25.525   2.967  52.518  1.00  0.00     0.037 A 
HETATM   23  H13 UNL     1      21.643   2.606  51.036  1.00  0.00     0.315 HD
ENDROOT
TORSDOF 0
ENDMDL
MODEL 5
REMARK VINA RESULT:      -8.0      1.640      5.545
REMARK  0 active torsions:
REMARK  status: ('A' for Active; 'I' for Inactive)
ROOT
HETATM    1  O1  UNL     1      24.980   6.167  48.308  1.00  0.00    -0.292 OA
HETATM    2  C1  UNL     1      24.764   5.129  48.989  1.00  0.00     0.159 C 
HETATM    3  C2  UNL     1      26.057   4.550  49.602  1.00  0.00     0.084 C 
HETATM    4  C3  UNL     1      25.687   3.398  50.408  1.00  0.00     0.008 C 
HETATM    5  C4  UNL     1      26.793   2.578  51.113  1.00  0.00     0.000 C 
HETATM    6  C5  UNL     1      25.892   1.490  51.754  1.00  0.00     0.002 C 
HETATM    7  C6  UNL     1      26.546   0.452  52.527  1.00  0.00     0.030 C 
HETATM    8  C7  UNL     1      25.472  -0.541  52.982  1.00  0.00     0.269 C 
HETATM    9  N1  UNL     1      24.494   0.096  53.833  1.00  0.00     0.083 N 
HETATM   10  C8  UNL     1      23.482  -0.859  54.253  1.00  0.00     0.273 C 
HETATM   11  C9  UNL     1      22.552  -1.279  53.147  1.00  0.00     0.056 C 
HETATM   12  C10 UNL     1      21.663  -0.134  52.709  1.00  0.00    -0.029 C 
HETATM   13  C11 UNL     1      20.314  -0.142  52.723  1.00  0.00    -0.028 C 
HETATM   14  C12 UNL     1      19.262   0.890  52.333  1.00  0.00     0.053 C 
HETATM   15  C13 UNL     1      20.042   2.148  51.896  1.00  0.00     0.179 C 
HETATM   16  O2  UNL     1      20.870   1.818  50.818  1.00  0.00    -0.351 OA
HETATM   17  C14 UNL     1      21.797   2.626  50.242  1.00  0.00     0.068 A 
HETATM   18  C15 UNL     1      22.360   2.324  49.029  1.00  0.00     0.037 A 
HETATM   19  C16 UNL     1      23.307   3.212  48.574  1.00  0.00     0.018 A 
HETATM   20  C17 UNL     1      23.591   4.299  49.369  1.00  0.00     0.010 A 
HETATM   21  C18 UNL     1      23.043   4.640  50.580  1.00  0.00     0.018 A 
HETATM   22  C19 UNL     1      22.103   3.731  51.003  1.00  0.00     0.037 A 
HETATM   23  H13 UNL     1      23.976   0.860  53.379  1.00  0.00     0.315 HD
ENDROOT
TORSDOF 0
ENDMDL
MODEL 6
REMARK VINA RESULT:      -7.3      2.413      5.117
REMARK  0 active torsions:
REMARK  status: ('A' for Active; 'I' for Inactive)
ROOT
HETATM    1  O1  UNL     1      22.500   5.773  49.087  1.00  0.00    -0.292 OA
HETATM    2  C1  UNL     1      22.398   4.812  49.895  1.00  0.00     0.159 C 
HETATM    3  C2  UNL     1      20.969   4.232  49.941  1.00  0.00     0.084 C 
HETATM    4  C3  UNL     1      20.979   3.100  50.854  1.00  0.00     0.008 C 
HETATM    5  C4  UNL     1      19.662   2.342  51.140  1.00  0.00     0.000 C 
HETATM    6  C5  UNL     1      20.210   1.319  52.169  1.00  0.00     0.002 C 
HETATM    7  C6  UNL     1      19.267   0.379  52.744  1.00  0.00     0.030 C 
HETATM    8  C7  UNL     1      20.015  -0.462  53.781  1.00  0.00     0.269 C 
HETATM    9  N1  UNL     1      21.082  -1.221  53.172  1.00  0.00     0.083 N 
HETATM   10  C8  UNL     1      21.783  -2.012  54.170  1.00  0.00     0.273 C 
HETATM   11  C9  UNL     1      22.625  -1.189  55.109  1.00  0.00     0.056 C 
HETATM   12  C10 UNL     1      23.805  -0.569  54.392  1.00  0.00    -0.029 C 
HETATM   13  C11 UNL     1      25.101  -0.755  54.715  1.00  0.00    -0.028 C 
HETATM   14  C12 UNL     1      26.408  -0.232  54.126  1.00  0.00     0.053 C 
HETATM   15  C13 UNL     1      26.011   0.628  52.908  1.00  0.00     0.179 C 
HETATM   16  O2  UNL     1      25.181   1.669  53.338  1.00  0.00    -0.351 OA
HETATM   17  C14 UNL     1      24.532   2.557  52.542  1.00  0.00     0.068 A 
HETATM   18  C15 UNL     1      23.972   3.701  53.048  1.00  0.00     0.037 A 
HETATM   19  C16 UNL     1      23.316   4.498  52.138  1.00  0.00     0.018 A 
HETATM   20  C17 UNL     1      23.290   4.074  50.828  1.00  0.00     0.010 A 
HETATM   21  C18 UNL     1      23.845   2.944  50.283  1.00  0.00     0.018 A 
HETATM   22  C19 UNL     1      24.489   2.173  51.221  1.00  0.00     0.037 A 
HETATM   23  H13 UNL     1      21.805  -0.644  52.723  1.00  0.00     0.315 HD
ENDROOT
TORSDOF 0
ENDMDL
MODEL 7
REMARK VINA RESULT:      -7.2      1.727      2.581
REMARK  0 active torsions:
REMARK  status: ('A' for Active; 'I' for Inactive)
ROOT
HETATM    1  O1  UNL     1      18.082   3.825  49.829  1.00  0.00    -0.292 OA
HETATM    2  C1  UNL     1      19.083   3.318  50.402  1.00  0.00     0.159 C 
HETATM    3  C2  UNL     1      18.708   2.095  51.265  1.00  0.00     0.084 C 
HETATM    4  C3  UNL     1      19.936   1.558  51.829  1.00  0.00     0.008 C 
HETATM    5  C4  UNL     1      19.866   0.345  52.785  1.00  0.00     0.000 C 
HETATM    6  C5  UNL     1      21.377   0.230  53.115  1.00  0.00     0.002 C 
HETATM    7  C6  UNL     1      21.782  -0.813  54.038  1.00  0.00     0.030 C 
HETATM    8  C7  UNL     1      23.289  -0.674  54.270  1.00  0.00     0.269 C 
HETATM    9  N1  UNL     1      24.029  -0.857  53.043  1.00  0.00     0.083 N 
HETATM   10  C8  UNL     1      25.456  -0.721  53.280  1.00  0.00     0.273 C 
HETATM   11  C9  UNL     1      25.887   0.692  53.573  1.00  0.00     0.056 C 
HETATM   12  C10 UNL     1      25.740   1.577  52.354  1.00  0.00    -0.029 C 
HETATM   13  C11 UNL     1      26.736   2.274  51.769  1.00  0.00    -0.028 C 
HETATM   14  C12 UNL     1      26.789   3.200  50.559  1.00  0.00     0.053 C 
HETATM   15  C13 UNL     1      25.363   3.212  49.969  1.00  0.00     0.179 C 
HETATM   16  O2  UNL     1      24.473   3.679  50.943  1.00  0.00    -0.351 OA
HETATM   17  C14 UNL     1      23.119   3.714  50.840  1.00  0.00     0.068 A 
HETATM   18  C15 UNL     1      22.350   4.436  51.715  1.00  0.00     0.037 A 
HETATM   19  C16 UNL     1      20.991   4.360  51.518  1.00  0.00     0.018 A 
HETATM   20  C17 UNL     1      20.545   3.579  50.476  1.00  0.00     0.010 A 
HETATM   21  C18 UNL     1      21.281   2.852  49.575  1.00  0.00     0.018 A 
HETATM   22  C19 UNL     1      22.632   2.950  49.805  1.00  0.00     0.037 A 
HETATM   23  H13 UNL     1      23.807  -0.169  52.312  1.00  0.00     0.315 HD
ENDROOT
TORSDOF 0
ENDMDL
MODEL 8
REMARK VINA RESULT:      -6.9      2.499      5.007
REMARK  0 active torsions:
REMARK  status: ('A' for Active; 'I' for Inactive)
ROOT
HETATM    1  O1  UNL     1      21.495   6.931  48.415  1.00  0.00    -0.292 OA
HETATM    2  C1  UNL     1      21.643   5.929  49.166  1.00  0.00     0.159 C 
HETATM    3  C2  UNL     1      20.311   5.202  49.445  1.00  0.00     0.084 C 
HETATM    4  C3  UNL     1      20.605   4.039  50.266  1.00  0.00     0.008 C 
HETATM    5  C4  UNL     1      19.445   3.136  50.747  1.00  0.00     0.000 C 
HETATM    6  C5  UNL     1      20.275   2.131  51.587  1.00  0.00     0.002 C 
HETATM    7  C6  UNL     1      19.554   1.074  52.269  1.00  0.00     0.030 C 
HETATM    8  C7  UNL     1      20.566   0.271  53.091  1.00  0.00     0.269 C 
HETATM    9  N1  UNL     1      21.561  -0.346  52.245  1.00  0.00     0.083 N 
HETATM   10  C8  UNL     1      22.513  -1.102  53.041  1.00  0.00     0.273 C 
HETATM   11  C9  UNL     1      23.440  -0.238  53.854  1.00  0.00     0.056 C 
HETATM   12  C10 UNL     1      24.395   0.533  52.968  1.00  0.00    -0.029 C 
HETATM   13  C11 UNL     1      25.741   0.469  53.029  1.00  0.00    -0.028 C 
HETATM   14  C12 UNL     1      26.853   1.151  52.239  1.00  0.00     0.053 C 
HETATM   15  C13 UNL     1      26.149   2.018  51.174  1.00  0.00     0.179 C 
HETATM   16  O2  UNL     1      25.324   2.947  51.817  1.00  0.00    -0.351 OA
HETATM   17  C14 UNL     1      24.452   3.796  51.215  1.00  0.00     0.068 A 
HETATM   18  C15 UNL     1      23.895   4.852  51.889  1.00  0.00     0.037 A 
HETATM   19  C16 UNL     1      23.004   5.616  51.171  1.00  0.00     0.018 A 
HETATM   20  C17 UNL     1      22.764   5.248  49.866  1.00  0.00     0.010 A 
HETATM   21  C18 UNL     1      23.306   4.208  49.155  1.00  0.00     0.018 A 
HETATM   22  C19 UNL     1      24.190   3.468  49.905  1.00  0.00     0.037 A 
HETATM   23  H13 UNL     1      22.126   0.322  51.706  1.00  0.00     0.315 HD
ENDROOT
TORSDOF 0
ENDMDL
MODEL 9
REMARK VINA RESULT:      -6.7     11.226     13.925
REMARK  0 active torsions:
REMARK  status: ('A' for Active; 'I' for Inactive)
ROOT
HETATM    1  O1  UNL     1      30.906  11.852  48.989  1.00  0.00    -0.292 OA
HETATM    2  C1  UNL     1      31.296  10.968  48.179  1.00  0.00     0.159 C 
HETATM    3  C2  UNL     1      32.097  11.563  47.002  1.00  0.00     0.084 C 
HETATM    4  C3  UNL     1      32.544  10.460  46.167  1.00  0.00     0.008 C 
HETATM    5  C4  UNL     1      33.337  10.758  44.874  1.00  0.00     0.000 C 
HETATM    6  C5  UNL     1      33.503   9.301  44.371  1.00  0.00     0.002 C 
HETATM    7  C6  UNL     1      34.204   9.103  43.116  1.00  0.00     0.030 C 
HETATM    8  C7  UNL     1      34.167   7.607  42.789  1.00  0.00     0.269 C 
HETATM    9  N1  UNL     1      34.843   6.831  43.802  1.00  0.00     0.083 N 
HETATM   10  C8  UNL     1      34.797   5.415  43.477  1.00  0.00     0.273 C 
HETATM   11  C9  UNL     1      33.429   4.805  43.628  1.00  0.00     0.056 C 
HETATM   12  C10 UNL     1      33.006   4.753  45.081  1.00  0.00    -0.029 C 
HETATM   13  C11 UNL     1      32.671   3.635  45.757  1.00  0.00    -0.028 C 
HETATM   14  C12 UNL     1      32.230   3.380  47.195  1.00  0.00     0.053 C 
HETATM   15  C13 UNL     1      32.259   4.753  47.899  1.00  0.00     0.179 C 
HETATM   16  O2  UNL     1      31.387   5.623  47.234  1.00  0.00    -0.351 OA
HETATM   17  C14 UNL     1      31.236   6.949  47.482  1.00  0.00     0.068 A 
HETATM   18  C15 UNL     1      30.175   7.658  46.982  1.00  0.00     0.037 A 
HETATM   19  C16 UNL     1      30.158   9.001  47.283  1.00  0.00     0.018 A 
HETATM   20  C17 UNL     1      31.194   9.491  48.045  1.00  0.00     0.010 A 
HETATM   21  C18 UNL     1      32.265   8.815  48.571  1.00  0.00     0.018 A 
HETATM   22  C19 UNL     1      32.248   7.479  48.249  1.00  0.00     0.037 A 
HETATM   23  H13 UNL     1      34.428   6.909  44.739  1.00  0.00     0.315 HD
ENDROOT
TORSDOF 0
ENDMDL
