MODEL 1
REMARK VINA RESULT:      -8.0      0.000      0.000
REMARK  0 active torsions:
REMARK  status: ('A' for Active; 'I' for Inactive)
ROOT
HETATM    1  C1  UNL     1      22.675   2.007  47.454  1.00  0.00     0.018 C 
HETATM    2  C2  UNL     1      22.549   2.702  48.431  1.00  0.00    -0.070 C 
HETATM    3  C3  UNL     1      22.376   3.527  49.583  1.00  0.00     0.059 C 
HETATM    4  C4  UNL     1      21.449   4.422  49.685  1.00  0.00     0.029 C 
HETATM    5  C5  UNL     1      21.323   5.205  50.865  1.00  0.00     0.020 C 
HETATM    6  C6  UNL     1      22.024   5.179  51.965  1.00  0.00     0.105 C 
HETATM    7  N1  UNL     1      23.067   4.297  52.142  1.00  0.00    -0.299 N 
HETATM    8  C7  UNL     1      23.789   4.006  53.304  1.00  0.00     0.220 C 
HETATM    9  N2  UNL     1      24.547   2.948  53.487  1.00  0.00    -0.244 NA
HETATM   10  C8  UNL     1      24.370   1.772  52.703  1.00  0.00     0.080 C 
HETATM   11  C9  UNL     1      23.391   1.762  51.750  1.00  0.00     0.135 C 
HETATM   12  O1  UNL     1      22.621   0.617  51.951  1.00  0.00    -0.340 OA
HETATM   13  C10 UNL     1      21.966   0.302  53.145  1.00  0.00     0.203 C 
HETATM   14  C11 UNL     1      22.579  -0.886  53.931  1.00  0.00     0.201 C 
HETATM   15  O2  UNL     1      23.832  -0.689  54.295  1.00  0.00    -0.361 OA
HETATM   16  C12 UNL     1      25.054  -0.568  54.661  1.00  0.00     0.138 C 
HETATM   17  C13 UNL     1      25.778   0.273  53.839  1.00  0.00    -0.050 C 
HETATM   18  C14 UNL     1      27.135   0.893  53.609  1.00  0.00     0.062 C 
HETATM   19  C15 UNL     1      27.449   1.100  52.117  1.00  0.00     0.172 C 
HETATM   20  O3  UNL     1      26.652   1.957  51.538  1.00  0.00    -0.390 OA
HETATM   21  C16 UNL     1      26.369   2.490  50.404  1.00  0.00     0.178 C 
HETATM   22  C17 UNL     1      25.230   3.498  50.386  1.00  0.00     0.113 C 
HETATM   23  S1  UNL     1      23.692   3.241  50.817  1.00  0.00    -0.078 SA
HETATM   24  C18 UNL     1      24.954   0.473  52.611  1.00  0.00     0.099 C 
ENDROOT
TORSDOF 0
ENDMDL
MODEL 2
REMARK VINA RESULT:      -7.5      1.097      1.181
REMARK  0 active torsions:
REMARK  status: ('A' for Active; 'I' for Inactive)
ROOT
HETATM    1  C1  UNL     1      22.299   3.011  46.718  1.00  0.00     0.018 C 
HETATM    2  C2  UNL     1      22.165   3.668  47.718  1.00  0.00    -0.070 C 
HETATM    3  C3  UNL     1      21.981   4.451  48.897  1.00  0.00     0.059 C 
HETATM    4  C4  UNL     1      21.086   5.378  49.005  1.00  0.00     0.029 C 
HETATM    5  C5  UNL     1      20.948   6.116  50.213  1.00  0.00     0.020 C 
HETATM    6  C6  UNL     1      21.607   6.016  51.335  1.00  0.00     0.105 C 
HETATM    7  N1  UNL     1      22.609   5.088  51.509  1.00  0.00    -0.299 N 
HETATM    8  C7  UNL     1      23.277   4.721  52.682  1.00  0.00     0.220 C 
HETATM    9  N2  UNL     1      23.987   3.627  52.846  1.00  0.00    -0.244 NA
HETATM   10  C8  UNL     1      23.794   2.492  52.007  1.00  0.00     0.080 C 
HETATM   11  C9  UNL     1      22.850   2.560  51.021  1.00  0.00     0.135 C 
HETATM   12  O1  UNL     1      22.030   1.439  51.146  1.00  0.00    -0.340 OA
HETATM   13  C10 UNL     1      21.322   1.101  52.303  1.00  0.00     0.203 C 
HETATM   14  C11 UNL     1      21.861  -0.142  53.058  1.00  0.00     0.201 C 
HETATM   15  O2  UNL     1      23.106  -0.010  53.473  1.00  0.00    -0.361 OA
HETATM   16  C12 UNL     1      24.318   0.049  53.885  1.00  0.00     0.138 C 
HETATM   17  C13 UNL     1      25.102   0.893  53.126  1.00  0.00    -0.050 C 
HETATM   18  C14 UNL     1      26.489   1.468  52.969  1.00  0.00     0.062 C 
HETATM   19  C15 UNL     1      26.864   1.724  51.498  1.00  0.00     0.172 C 
HETATM   20  O3  UNL     1      26.122   2.635  50.930  1.00  0.00    -0.390 OA
HETATM   21  C16 UNL     1      25.900   3.224  49.810  1.00  0.00     0.178 C 
HETATM   22  C17 UNL     1      24.802   4.277  49.796  1.00  0.00     0.113 C 
HETATM   23  S1  UNL     1      23.240   4.063  50.162  1.00  0.00    -0.078 SA
HETATM   24  C18 UNL     1      24.331   1.176  51.880  1.00  0.00     0.099 C 
ENDROOT
TORSDOF 0
ENDMDL
MODEL 3
REMARK VINA RESULT:      -7.2      2.144      4.474
REMARK  0 active torsions:
REMARK  status: ('A' for Active; 'I' for Inactive)
ROOT
HETATM    1  C1  UNL     1      21.545   7.345  50.816  1.00  0.00     0.018 C 
HETATM    2  C2  UNL     1      21.623   6.452  50.011  1.00  0.00    -0.070 C 
HETATM    3  C3  UNL     1      21.730   5.409  49.043  1.00  0.00     0.059 C 
HETATM    4  C4  UNL     1      21.927   5.623  47.783  1.00  0.00     0.029 C 
HETATM    5  C5  UNL     1      22.034   4.537  46.871  1.00  0.00     0.020 C 
HETATM    6  C6  UNL     1      21.977   3.252  47.089  1.00  0.00     0.105 C 
HETATM    7  N1  UNL     1      21.799   2.736  48.353  1.00  0.00    -0.299 N 
HETATM    8  C7  UNL     1      21.902   1.411  48.788  1.00  0.00     0.220 C 
HETATM    9  N2  UNL     1      22.032   1.025  50.037  1.00  0.00    -0.244 NA
HETATM   10  C8  UNL     1      22.523   1.916  51.035  1.00  0.00     0.080 C 
HETATM   11  C9  UNL     1      22.859   3.189  50.668  1.00  0.00     0.135 C 
HETATM   12  O1  UNL     1      24.147   3.436  51.141  1.00  0.00    -0.340 OA
HETATM   13  C10 UNL     1      25.268   2.662  50.831  1.00  0.00     0.203 C 
HETATM   14  C11 UNL     1      25.814   1.804  52.002  1.00  0.00     0.201 C 
HETATM   15  O2  UNL     1      24.942   0.932  52.470  1.00  0.00    -0.361 OA
HETATM   16  C12 UNL     1      24.136   0.077  52.982  1.00  0.00     0.138 C 
HETATM   17  C13 UNL     1      22.812   0.438  52.838  1.00  0.00    -0.050 C 
HETATM   18  C14 UNL     1      21.389   0.019  53.121  1.00  0.00     0.062 C 
HETATM   19  C15 UNL     1      20.458   1.215  53.384  1.00  0.00     0.172 C 
HETATM   20  O3  UNL     1      20.314   1.993  52.345  1.00  0.00    -0.390 OA
HETATM   21  C16 UNL     1      19.768   3.087  51.951  1.00  0.00     0.178 C 
HETATM   22  C17 UNL     1      20.006   3.488  50.503  1.00  0.00     0.113 C 
HETATM   23  S1  UNL     1      21.431   3.768  49.789  1.00  0.00    -0.078 SA
HETATM   24  C18 UNL     1      22.808   1.874  52.433  1.00  0.00     0.099 C 
ENDROOT
TORSDOF 0
ENDMDL
MODEL 4
REMARK VINA RESULT:      -7.2      8.951     10.721
REMARK  0 active torsions:
REMARK  status: ('A' for Active; 'I' for Inactive)
ROOT
HETATM    1  C1  UNL     1      31.520   9.028  43.698  1.00  0.00     0.018 C 
HETATM    2  C2  UNL     1      30.975   8.616  44.691  1.00  0.00    -0.070 C 
HETATM    3  C3  UNL     1      30.309   8.122  45.853  1.00  0.00     0.059 C 
HETATM    4  C4  UNL     1      29.024   8.123  45.991  1.00  0.00     0.029 C 
HETATM    5  C5  UNL     1      28.422   7.606  47.172  1.00  0.00     0.020 C 
HETATM    6  C6  UNL     1      28.972   7.076  48.229  1.00  0.00     0.105 C 
HETATM    7  N1  UNL     1      30.336   6.926  48.341  1.00  0.00    -0.299 N 
HETATM    8  C7  UNL     1      31.071   6.221  49.299  1.00  0.00     0.220 C 
HETATM    9  N2  UNL     1      32.327   5.853  49.180  1.00  0.00    -0.244 NA
HETATM   10  C8  UNL     1      32.944   5.743  47.900  1.00  0.00     0.080 C 
HETATM   11  C9  UNL     1      32.200   6.027  46.789  1.00  0.00     0.135 C 
HETATM   12  O1  UNL     1      32.331   4.953  45.910  1.00  0.00    -0.340 OA
HETATM   13  C10 UNL     1      32.018   3.628  46.225  1.00  0.00     0.203 C 
HETATM   14  C11 UNL     1      33.241   2.685  46.369  1.00  0.00     0.201 C 
HETATM   15  O2  UNL     1      34.080   3.050  47.318  1.00  0.00    -0.361 OA
HETATM   16  C12 UNL     1      34.945   3.361  48.213  1.00  0.00     0.138 C 
HETATM   17  C13 UNL     1      34.975   4.715  48.479  1.00  0.00    -0.050 C 
HETATM   18  C14 UNL     1      35.631   5.785  49.319  1.00  0.00     0.062 C 
HETATM   19  C15 UNL     1      35.751   7.130  48.581  1.00  0.00     0.172 C 
HETATM   20  O3  UNL     1      34.596   7.668  48.301  1.00  0.00    -0.390 OA
HETATM   21  C16 UNL     1      34.046   8.665  47.706  1.00  0.00     0.178 C 
HETATM   22  C17 UNL     1      32.527   8.724  47.728  1.00  0.00     0.113 C 
HETATM   23  S1  UNL     1      31.499   7.618  47.144  1.00  0.00    -0.078 SA
HETATM   24  C18 UNL     1      34.220   5.379  47.377  1.00  0.00     0.099 C 
ENDROOT
TORSDOF 0
ENDMDL
MODEL 5
REMARK VINA RESULT:      -7.1      3.233      6.093
REMARK  0 active torsions:
REMARK  status: ('A' for Active; 'I' for Inactive)
ROOT
HETATM    1  C1  UNL     1      25.196   2.447  53.708  1.00  0.00     0.018 C 
HETATM    2  C2  UNL     1      24.498   2.271  52.743  1.00  0.00    -0.070 C 
HETATM    3  C3  UNL     1      23.652   2.051  51.614  1.00  0.00     0.059 C 
HETATM    4  C4  UNL     1      22.767   1.110  51.559  1.00  0.00     0.029 C 
HETATM    5  C5  UNL     1      21.949   0.951  50.407  1.00  0.00     0.020 C 
HETATM    6  C6  UNL     1      21.914   1.644  49.302  1.00  0.00     0.105 C 
HETATM    7  N1  UNL     1      22.739   2.727  49.098  1.00  0.00    -0.299 N 
HETATM    8  C7  UNL     1      22.706   3.681  48.075  1.00  0.00     0.220 C 
HETATM    9  N2  UNL     1      23.304   4.851  48.102  1.00  0.00    -0.244 NA
HETATM   10  C8  UNL     1      23.679   5.457  49.336  1.00  0.00     0.080 C 
HETATM   11  C9  UNL     1      23.404   4.796  50.500  1.00  0.00     0.135 C 
HETATM   12  O1  UNL     1      22.735   5.686  51.340  1.00  0.00    -0.340 OA
HETATM   13  C10 UNL     1      21.549   6.348  51.011  1.00  0.00     0.203 C 
HETATM   14  C11 UNL     1      21.700   7.871  50.762  1.00  0.00     0.201 C 
HETATM   15  O2  UNL     1      22.517   8.167  49.770  1.00  0.00    -0.361 OA
HETATM   16  C12 UNL     1      23.314   8.520  48.830  1.00  0.00     0.138 C 
HETATM   17  C13 UNL     1      24.312   7.596  48.598  1.00  0.00    -0.050 C 
HETATM   18  C14 UNL     1      25.519   7.281  47.747  1.00  0.00     0.062 C 
HETATM   19  C15 UNL     1      26.597   6.494  48.512  1.00  0.00     0.172 C 
HETATM   20  O3  UNL     1      26.203   5.306  48.881  1.00  0.00    -0.390 OA
HETATM   21  C16 UNL     1      26.565   4.263  49.537  1.00  0.00     0.178 C 
HETATM   22  C17 UNL     1      25.564   3.121  49.615  1.00  0.00     0.113 C 
HETATM   23  S1  UNL     1      24.070   3.174  50.235  1.00  0.00    -0.078 SA
HETATM   24  C18 UNL     1      24.304   6.666  49.766  1.00  0.00     0.099 C 
ENDROOT
TORSDOF 0
ENDMDL
MODEL 6
REMARK VINA RESULT:      -7.0      2.444      4.788
REMARK  0 active torsions:
REMARK  status: ('A' for Active; 'I' for Inactive)
ROOT
HETATM    1  C1  UNL     1      27.274   4.357  48.958  1.00  0.00     0.018 C 
HETATM    2  C2  UNL     1      26.372   4.998  49.435  1.00  0.00    -0.070 C 
HETATM    3  C3  UNL     1      25.309   5.776  49.985  1.00  0.00     0.059 C 
HETATM    4  C4  UNL     1      25.295   7.069  49.979  1.00  0.00     0.029 C 
HETATM    5  C5  UNL     1      24.200   7.785  50.535  1.00  0.00     0.020 C 
HETATM    6  C6  UNL     1      23.105   7.342  51.089  1.00  0.00     0.105 C 
HETATM    7  N1  UNL     1      22.844   5.995  51.207  1.00  0.00    -0.299 N 
HETATM    8  C7  UNL     1      21.660   5.356  51.592  1.00  0.00     0.220 C 
HETATM    9  N2  UNL     1      21.374   4.090  51.386  1.00  0.00    -0.244 NA
HETATM   10  C8  UNL     1      22.034   3.343  50.369  1.00  0.00     0.080 C 
HETATM   11  C9  UNL     1      22.978   3.970  49.605  1.00  0.00     0.135 C 
HETATM   12  O1  UNL     1      22.660   3.735  48.268  1.00  0.00    -0.340 OA
HETATM   13  C10 UNL     1      21.438   4.064  47.674  1.00  0.00     0.203 C 
HETATM   14  C11 UNL     1      20.538   2.852  47.319  1.00  0.00     0.201 C 
HETATM   15  O2  UNL     1      20.200   2.121  48.363  1.00  0.00    -0.361 OA
HETATM   16  C12 UNL     1      19.852   1.358  49.333  1.00  0.00     0.138 C 
HETATM   17  C13 UNL     1      20.757   1.371  50.375  1.00  0.00    -0.050 C 
HETATM   18  C14 UNL     1      21.053   0.819  51.749  1.00  0.00     0.062 C 
HETATM   19  C15 UNL     1      22.560   0.638  52.005  1.00  0.00     0.172 C 
HETATM   20  O3  UNL     1      23.220   1.764  52.012  1.00  0.00    -0.390 OA
HETATM   21  C16 UNL     1      24.401   2.259  52.107  1.00  0.00     0.178 C 
HETATM   22  C17 UNL     1      24.517   3.774  52.024  1.00  0.00     0.113 C 
HETATM   23  S1  UNL     1      24.057   4.722  50.796  1.00  0.00    -0.078 SA
HETATM   24  C18 UNL     1      21.996   2.015  49.849  1.00  0.00     0.099 C 
ENDROOT
TORSDOF 0
ENDMDL
MODEL 7
REMARK VINA RESULT:      -6.7      7.260      9.099
REMARK  0 active torsions:
REMARK  status: ('A' for Active; 'I' for Inactive)
ROOT
HETATM    1  C1  UNL     1      26.007   8.538  43.777  1.00  0.00     0.018 C 
HETATM    2  C2  UNL     1      25.694   8.427  44.935  1.00  0.00    -0.070 C 
HETATM    3  C3  UNL     1      25.310   8.276  46.301  1.00  0.00     0.059 C 
HETATM    4  C4  UNL     1      24.207   7.713  46.673  1.00  0.00     0.029 C 
HETATM    5  C5  UNL     1      23.887   7.584  48.052  1.00  0.00     0.020 C 
HETATM    6  C6  UNL     1      24.564   7.950  49.106  1.00  0.00     0.105 C 
HETATM    7  N1  UNL     1      25.796   8.557  49.004  1.00  0.00    -0.299 N 
HETATM    8  C7  UNL     1      26.727   8.837  50.010  1.00  0.00     0.220 C 
HETATM    9  N2  UNL     1      27.995   9.124  49.818  1.00  0.00    -0.244 NA
HETATM   10  C8  UNL     1      28.660   8.749  48.614  1.00  0.00     0.080 C 
HETATM   11  C9  UNL     1      27.950   8.082  47.655  1.00  0.00     0.135 C 
HETATM   12  O1  UNL     1      28.678   6.944  47.310  1.00  0.00    -0.340 OA
HETATM   13  C10 UNL     1      29.082   5.957  48.213  1.00  0.00     0.203 C 
HETATM   14  C11 UNL     1      30.604   5.923  48.505  1.00  0.00     0.201 C 
HETATM   15  O2  UNL     1      31.068   7.043  49.026  1.00  0.00    -0.361 OA
HETATM   16  C12 UNL     1      31.583   8.109  49.517  1.00  0.00     0.138 C 
HETATM   17  C13 UNL     1      30.887   9.249  49.170  1.00  0.00    -0.050 C 
HETATM   18  C14 UNL     1      30.833  10.749  49.330  1.00  0.00     0.062 C 
HETATM   19  C15 UNL     1      30.283  11.461  48.081  1.00  0.00     0.172 C 
HETATM   20  O3  UNL     1      29.037  11.166  47.828  1.00  0.00    -0.390 OA
HETATM   21  C16 UNL     1      28.088  11.359  46.984  1.00  0.00     0.178 C 
HETATM   22  C17 UNL     1      26.763  10.671  47.273  1.00  0.00     0.113 C 
HETATM   23  S1  UNL     1      26.502   9.082  47.426  1.00  0.00    -0.078 SA
HETATM   24  C18 UNL     1      29.970   8.860  48.059  1.00  0.00     0.099 C 
ENDROOT
TORSDOF 0
ENDMDL
MODEL 8
REMARK VINA RESULT:      -6.6      9.580     11.615
REMARK  0 active torsions:
REMARK  status: ('A' for Active; 'I' for Inactive)
ROOT
HETATM    1  C1  UNL     1      32.763  11.394  46.106  1.00  0.00     0.018 C 
HETATM    2  C2  UNL     1      31.948  10.526  46.293  1.00  0.00    -0.070 C 
HETATM    3  C3  UNL     1      30.969   9.508  46.496  1.00  0.00     0.059 C 
HETATM    4  C4  UNL     1      29.708   9.674  46.262  1.00  0.00     0.029 C 
HETATM    5  C5  UNL     1      28.784   8.615  46.477  1.00  0.00     0.020 C 
HETATM    6  C6  UNL     1      28.991   7.396  46.892  1.00  0.00     0.105 C 
HETATM    7  N1  UNL     1      30.252   6.935  47.195  1.00  0.00    -0.299 N 
HETATM    8  C7  UNL     1      30.673   5.628  47.466  1.00  0.00     0.220 C 
HETATM    9  N2  UNL     1      31.917   5.205  47.437  1.00  0.00    -0.244 NA
HETATM   10  C8  UNL     1      32.916   5.907  46.702  1.00  0.00     0.080 C 
HETATM   11  C9  UNL     1      32.555   7.038  46.023  1.00  0.00     0.135 C 
HETATM   12  O1  UNL     1      33.012   6.904  44.713  1.00  0.00    -0.340 OA
HETATM   13  C10 UNL     1      32.678   5.849  43.860  1.00  0.00     0.203 C 
HETATM   14  C11 UNL     1      33.833   4.856  43.566  1.00  0.00     0.201 C 
HETATM   15  O2  UNL     1      34.305   4.260  44.644  1.00  0.00    -0.361 OA
HETATM   16  C12 UNL     1      34.821   3.662  45.653  1.00  0.00     0.138 C 
HETATM   17  C13 UNL     1      34.700   4.384  46.823  1.00  0.00    -0.050 C 
HETATM   18  C14 UNL     1      35.000   4.381  48.303  1.00  0.00     0.062 C 
HETATM   19  C15 UNL     1      35.288   5.788  48.854  1.00  0.00     0.172 C 
HETATM   20  O3  UNL     1      34.259   6.589  48.783  1.00  0.00    -0.390 OA
HETATM   21  C16 UNL     1      33.883   7.798  49.002  1.00  0.00     0.178 C 
HETATM   22  C17 UNL     1      32.436   8.134  48.677  1.00  0.00     0.113 C 
HETATM   23  S1  UNL     1      31.704   8.010  47.239  1.00  0.00    -0.078 SA
HETATM   24  C18 UNL     1      34.308   5.768  46.425  1.00  0.00     0.099 C 
ENDROOT
TORSDOF 0
ENDMDL
MODEL 9
REMARK VINA RESULT:      -6.4      8.533     10.274
REMARK  0 active torsions:
REMARK  status: ('A' for Active; 'I' for Inactive)
ROOT
HETATM    1  C1  UNL     1      29.641  11.503  43.504  1.00  0.00     0.018 C 
HETATM    2  C2  UNL     1      29.740  11.648  44.696  1.00  0.00    -0.070 C 
HETATM    3  C3  UNL     1      29.841  11.840  46.107  1.00  0.00     0.059 C 
HETATM    4  C4  UNL     1      29.653  12.980  46.686  1.00  0.00     0.029 C 
HETATM    5  C5  UNL     1      29.759  13.102  48.099  1.00  0.00     0.020 C 
HETATM    6  C6  UNL     1      30.023  12.196  49.000  1.00  0.00     0.105 C 
HETATM    7  N1  UNL     1      30.243  10.879  48.663  1.00  0.00    -0.299 N 
HETATM    8  C7  UNL     1      30.349   9.761  49.497  1.00  0.00     0.220 C 
HETATM    9  N2  UNL     1      30.245   8.508  49.113  1.00  0.00    -0.244 NA
HETATM   10  C8  UNL     1      29.579   8.164  47.901  1.00  0.00     0.080 C 
HETATM   11  C9  UNL     1      29.046   9.167  47.139  1.00  0.00     0.135 C 
HETATM   12  O1  UNL     1      27.721   8.830  46.869  1.00  0.00    -0.340 OA
HETATM   13  C10 UNL     1      26.755   8.566  47.845  1.00  0.00     0.203 C 
HETATM   14  C11 UNL     1      26.323   7.080  47.950  1.00  0.00     0.201 C 
HETATM   15  O2  UNL     1      27.312   6.261  48.248  1.00  0.00    -0.361 OA
HETATM   16  C12 UNL     1      28.233   5.411  48.517  1.00  0.00     0.138 C 
HETATM   17  C13 UNL     1      29.482   5.825  48.103  1.00  0.00    -0.050 C 
HETATM   18  C14 UNL     1      30.945   5.454  48.056  1.00  0.00     0.062 C 
HETATM   19  C15 UNL     1      31.654   5.985  46.798  1.00  0.00     0.172 C 
HETATM   20  O3  UNL     1      31.699   7.288  46.744  1.00  0.00    -0.390 OA
HETATM   21  C16 UNL     1      32.067   8.272  46.004  1.00  0.00     0.178 C 
HETATM   22  C17 UNL     1      31.814   9.670  46.548  1.00  0.00     0.113 C 
HETATM   23  S1  UNL     1      30.386  10.315  46.953  1.00  0.00    -0.078 SA
HETATM   24  C18 UNL     1      29.259   6.976  47.179  1.00  0.00     0.099 C 
ENDROOT
TORSDOF 0
ENDMDL
