MODEL 1
REMARK VINA RESULT:      -9.6      0.000      0.000
REMARK  2 active torsions:
REMARK  status: ('A' for Active; 'I' for Inactive)
REMARK    1  A    between atoms: O1_2  and  C2_3 
REMARK    2  A    between atoms: C8_9  and  C9_10 
ROOT
HETATM    1  C2  UNL     1      23.272   0.225  52.987  1.00  0.00     0.069 A 
HETATM    2  C3  UNL     1      24.591   0.617  53.092  1.00  0.00     0.037 A 
HETATM    3  C4  UNL     1      25.098   1.542  52.200  1.00  0.00     0.015 A 
HETATM    4  C5  UNL     1      24.361   2.115  51.189  1.00  0.00    -0.025 A 
HETATM    5  C6  UNL     1      23.049   1.732  51.076  1.00  0.00    -0.015 A 
HETATM    6  C7  UNL     1      22.552   0.809  51.969  1.00  0.00     0.049 A 
HETATM    7  C8  UNL     1      22.015   2.177  50.110  1.00  0.00    -0.021 C 
HETATM    8  C10 UNL     1      21.641   3.398  49.772  1.00  0.00     0.005 C 
HETATM    9  C11 UNL     1      20.919   4.505  49.106  1.00  0.00     0.169 C 
HETATM   10  N1  UNL     1      20.280   5.407  50.003  1.00  0.00    -0.315 N 
HETATM   11  N2  UNL     1      19.874   6.594  49.442  1.00  0.00    -0.209 N 
HETATM   12  C12 UNL     1      20.628   7.755  49.974  1.00  0.00     0.229 C 
HETATM   13  C13 UNL     1      21.190   8.369  48.704  1.00  0.00     0.066 C 
HETATM   14  N3  UNL     1      20.185   8.929  48.060  1.00  0.00    -0.244 NA
HETATM   15  C14 UNL     1      18.957   8.148  47.943  1.00  0.00     0.256 C 
HETATM   16  N4  UNL     1      18.899   6.947  48.472  1.00  0.00    -0.150 NA
HETATM   17  C15 UNL     1      22.634   8.141  48.552  1.00  0.00     0.195 C 
HETATM   18  C16 UNL     1      23.350   8.862  47.483  1.00  0.00     0.207 C 
HETATM   19  O2  UNL     1      24.758   8.635  47.630  1.00  0.00    -0.371 OA
HETATM   20  C17 UNL     1      24.855   7.449  48.250  1.00  0.00     0.242 C 
HETATM   21  C18 UNL     1      26.208   6.776  48.260  1.00  0.00     0.254 C 
HETATM   22  O3  UNL     1      27.418   6.775  47.985  1.00  0.00    -0.270 OA
HETATM   23  N5  UNL     1      26.150   5.509  48.870  1.00  0.00    -0.310 N 
HETATM   24  C19 UNL     1      26.784   4.315  49.281  1.00  0.00     0.122 C 
HETATM   25  N6  UNL     1      27.930   4.613  48.815  1.00  0.00    -0.284 NA
HETATM   26  C20 UNL     1      26.409   3.112  50.011  1.00  0.00     0.051 C 
HETATM   27  C21 UNL     1      25.179   3.047  50.449  1.00  0.00     0.016 C 
HETATM   28  C22 UNL     1      24.464   7.604  49.676  1.00  0.00     0.156 C 
HETATM   29  C23 UNL     1      25.502   8.506  50.326  1.00  0.00     0.042 C 
HETATM   30  O4  UNL     1      23.241   8.329  49.818  1.00  0.00    -0.370 OA
HETATM   31  H12 UNL     1      19.597   4.972  50.631  1.00  0.00     0.182 HD
HETATM   32  H20 UNL     1      25.220   5.197  49.214  1.00  0.00     0.170 HD
HETATM   33  H21 UNL     1      28.756   4.010  48.883  1.00  0.00     0.188 HD
ENDROOT
BRANCH   1  34
HETATM   34  O1  UNL     1      22.719  -0.701  53.861  1.00  0.00    -0.356 OA
HETATM   35  C1  UNL     1      21.548  -0.471  54.594  1.00  0.00     0.210 C 
ENDBRANCH   1  34
BRANCH   7  36
HETATM   36  C9  UNL     1      21.296   1.060  49.397  1.00  0.00     0.261 C 
HETATM   37  F1  UNL     1      21.906   0.807  48.177  1.00  0.00    -0.251 F 
ENDBRANCH   7  36
TORSDOF 2
ENDMDL
MODEL 2
REMARK VINA RESULT:      -9.1      1.069      1.168
REMARK  2 active torsions:
REMARK  status: ('A' for Active; 'I' for Inactive)
REMARK    1  A    between atoms: O1_2  and  C2_3 
REMARK    2  A    between atoms: C8_9  and  C9_10 
ROOT
HETATM    1  C2  UNL     1      23.146   0.834  52.145  1.00  0.00     0.069 A 
HETATM    2  C3  UNL     1      24.463   1.157  52.401  1.00  0.00     0.037 A 
HETATM    3  C4  UNL     1      25.110   2.069  51.589  1.00  0.00     0.015 A 
HETATM    4  C5  UNL     1      24.517   2.693  50.515  1.00  0.00    -0.025 A 
HETATM    5  C6  UNL     1      23.207   2.379  50.253  1.00  0.00    -0.015 A 
HETATM    6  C7  UNL     1      22.571   1.470  51.067  1.00  0.00     0.049 A 
HETATM    7  C8  UNL     1      22.309   2.891  49.189  1.00  0.00    -0.021 C 
HETATM    8  C10 UNL     1      22.034   4.135  48.838  1.00  0.00     0.005 C 
HETATM    9  C11 UNL     1      21.444   5.287  48.120  1.00  0.00     0.169 C 
HETATM   10  N1  UNL     1      20.756   6.206  48.962  1.00  0.00    -0.315 N 
HETATM   11  N2  UNL     1      20.472   7.421  48.384  1.00  0.00    -0.209 N 
HETATM   12  C12 UNL     1      21.220   8.533  49.018  1.00  0.00     0.229 C 
HETATM   13  C13 UNL     1      21.946   9.137  47.830  1.00  0.00     0.066 C 
HETATM   14  N3  UNL     1      21.046   9.757  47.092  1.00  0.00    -0.244 NA
HETATM   15  C14 UNL     1      19.802   9.042  46.827  1.00  0.00     0.256 C 
HETATM   16  N4  UNL     1      19.627   7.837  47.321  1.00  0.00    -0.150 NA
HETATM   17  C15 UNL     1      23.385   8.839  47.831  1.00  0.00     0.195 C 
HETATM   18  C16 UNL     1      24.249   9.539  46.861  1.00  0.00     0.207 C 
HETATM   19  O2  UNL     1      25.619   9.238  47.156  1.00  0.00    -0.371 OA
HETATM   20  C17 UNL     1      25.589   8.040  47.758  1.00  0.00     0.242 C 
HETATM   21  C18 UNL     1      26.899   7.298  47.901  1.00  0.00     0.254 C 
HETATM   22  O3  UNL     1      28.130   7.240  47.758  1.00  0.00    -0.270 OA
HETATM   23  N5  UNL     1      26.713   6.026  48.474  1.00  0.00    -0.310 N 
HETATM   24  C19 UNL     1      27.238   4.796  48.928  1.00  0.00     0.122 C 
HETATM   25  N6  UNL     1      28.442   5.042  48.595  1.00  0.00    -0.284 NA
HETATM   26  C20 UNL     1      26.727   3.603  49.587  1.00  0.00     0.051 C 
HETATM   27  C21 UNL     1      25.455   3.593  49.888  1.00  0.00     0.016 C 
HETATM   28  C22 UNL     1      25.053   8.192  49.136  1.00  0.00     0.156 C 
HETATM   29  C23 UNL     1      26.057   9.031  49.913  1.00  0.00     0.042 C 
HETATM   30  O4  UNL     1      23.859   8.976  49.159  1.00  0.00    -0.370 OA
HETATM   31  H12 UNL     1      19.988   5.797  49.503  1.00  0.00     0.182 HD
HETATM   32  H20 UNL     1      25.736   5.757  48.709  1.00  0.00     0.170 HD
HETATM   33  H21 UNL     1      29.225   4.397  48.740  1.00  0.00     0.188 HD
ENDROOT
BRANCH   1  34
HETATM   34  O1  UNL     1      22.456  -0.076  52.935  1.00  0.00    -0.356 OA
HETATM   35  C1  UNL     1      23.043  -0.782  53.993  1.00  0.00     0.210 C 
ENDBRANCH   1  34
BRANCH   7  36
HETATM   36  C9  UNL     1      21.619   1.823  48.380  1.00  0.00     0.261 C 
HETATM   37  F1  UNL     1      22.513   1.253  47.486  1.00  0.00    -0.251 F 
ENDBRANCH   7  36
TORSDOF 2
ENDMDL
MODEL 3
REMARK VINA RESULT:      -8.9      3.224      8.096
REMARK  2 active torsions:
REMARK  status: ('A' for Active; 'I' for Inactive)
REMARK    1  A    between atoms: O1_2  and  C2_3 
REMARK    2  A    between atoms: C8_9  and  C9_10 
ROOT
HETATM    1  C2  UNL     1      26.331   9.209  49.017  1.00  0.00     0.069 A 
HETATM    2  C3  UNL     1      25.071   9.476  48.519  1.00  0.00     0.037 A 
HETATM    3  C4  UNL     1      24.220   8.427  48.225  1.00  0.00     0.015 A 
HETATM    4  C5  UNL     1      24.549   7.102  48.399  1.00  0.00    -0.025 A 
HETATM    5  C6  UNL     1      25.798   6.827  48.895  1.00  0.00    -0.015 A 
HETATM    6  C7  UNL     1      26.640   7.877  49.184  1.00  0.00     0.049 A 
HETATM    7  C8  UNL     1      26.426   5.517  49.199  1.00  0.00    -0.021 C 
HETATM    8  C10 UNL     1      25.968   4.505  49.913  1.00  0.00     0.005 C 
HETATM    9  C11 UNL     1      25.893   3.185  50.579  1.00  0.00     0.169 C 
HETATM   10  N1  UNL     1      25.666   3.253  51.982  1.00  0.00    -0.315 N 
HETATM   11  N2  UNL     1      25.286   2.069  52.568  1.00  0.00    -0.209 N 
HETATM   12  C12 UNL     1      23.897   2.116  53.082  1.00  0.00     0.229 C 
HETATM   13  C13 UNL     1      23.259   0.941  52.364  1.00  0.00     0.066 C 
HETATM   14  N3  UNL     1      23.745  -0.161  52.901  1.00  0.00    -0.244 NA
HETATM   15  C14 UNL     1      25.188  -0.209  53.120  1.00  0.00     0.256 C 
HETATM   16  N4  UNL     1      25.930   0.822  52.783  1.00  0.00    -0.150 NA
HETATM   17  C15 UNL     1      22.341   1.358  51.294  1.00  0.00     0.195 C 
HETATM   18  C16 UNL     1      21.489   0.334  50.660  1.00  0.00     0.207 C 
HETATM   19  O2  UNL     1      20.556   0.981  49.784  1.00  0.00    -0.371 OA
HETATM   20  C17 UNL     1      21.159   2.122  49.417  1.00  0.00     0.242 C 
HETATM   21  C18 UNL     1      20.574   2.874  48.243  1.00  0.00     0.254 C 
HETATM   22  O3  UNL     1      19.704   3.005  47.369  1.00  0.00    -0.270 OA
HETATM   23  N5  UNL     1      21.347   4.003  47.916  1.00  0.00    -0.310 N 
HETATM   24  C19 UNL     1      21.581   5.136  47.106  1.00  0.00     0.122 C 
HETATM   25  N6  UNL     1      20.593   4.942  46.327  1.00  0.00    -0.284 NA
HETATM   26  C20 UNL     1      22.534   6.236  47.071  1.00  0.00     0.051 C 
HETATM   27  C21 UNL     1      23.439   6.264  48.014  1.00  0.00     0.016 C 
HETATM   28  C22 UNL     1      21.151   3.074  50.558  1.00  0.00     0.156 C 
HETATM   29  C23 UNL     1      19.698   3.433  50.828  1.00  0.00     0.042 C 
HETATM   30  O4  UNL     1      21.584   2.456  51.772  1.00  0.00    -0.370 OA
HETATM   31  H12 UNL     1      26.370   3.784  52.503  1.00  0.00     0.182 HD
HETATM   32  H20 UNL     1      22.199   4.169  48.489  1.00  0.00     0.170 HD
HETATM   33  H21 UNL     1      20.351   5.550  45.539  1.00  0.00     0.188 HD
ENDROOT
BRANCH   1  34
HETATM   34  O1  UNL     1      27.219  10.230  49.326  1.00  0.00    -0.356 OA
HETATM   35  C1  UNL     1      28.584  10.187  49.018  1.00  0.00     0.210 C 
ENDBRANCH   1  34
BRANCH   7  36
HETATM   36  C9  UNL     1      27.787   5.313  48.582  1.00  0.00     0.261 C 
HETATM   37  F1  UNL     1      27.951   3.982  48.228  1.00  0.00    -0.251 F 
ENDBRANCH   7  36
TORSDOF 2
ENDMDL
MODEL 4
REMARK VINA RESULT:      -8.5      4.808      7.150
REMARK  2 active torsions:
REMARK  status: ('A' for Active; 'I' for Inactive)
REMARK    1  A    between atoms: O1_2  and  C2_3 
REMARK    2  A    between atoms: C8_9  and  C9_10 
ROOT
HETATM    1  C2  UNL     1      23.436   5.506  49.863  1.00  0.00     0.069 A 
HETATM    2  C3  UNL     1      24.486   4.698  50.252  1.00  0.00     0.037 A 
HETATM    3  C4  UNL     1      25.750   4.937  49.747  1.00  0.00     0.015 A 
HETATM    4  C5  UNL     1      26.043   5.949  48.862  1.00  0.00    -0.025 A 
HETATM    5  C6  UNL     1      25.006   6.758  48.470  1.00  0.00    -0.015 A 
HETATM    6  C7  UNL     1      23.750   6.513  48.977  1.00  0.00     0.049 A 
HETATM    7  C8  UNL     1      25.013   7.923  47.551  1.00  0.00    -0.021 C 
HETATM    8  C10 UNL     1      25.790   8.991  47.543  1.00  0.00     0.005 C 
HETATM    9  C11 UNL     1      26.376  10.290  47.145  1.00  0.00     0.169 C 
HETATM   10  N1  UNL     1      26.373  11.271  48.176  1.00  0.00    -0.315 N 
HETATM   11  N2  UNL     1      27.175  12.362  47.943  1.00  0.00    -0.209 N 
HETATM   12  C12 UNL     1      28.315  12.434  48.887  1.00  0.00     0.229 C 
HETATM   13  C13 UNL     1      29.502  12.471  47.942  1.00  0.00     0.066 C 
HETATM   14  N3  UNL     1      29.509  13.657  47.365  1.00  0.00    -0.244 NA
HETATM   15  C14 UNL     1      28.233  14.156  46.862  1.00  0.00     0.256 C 
HETATM   16  N4  UNL     1      27.150  13.424  47.000  1.00  0.00    -0.150 NA
HETATM   17  C15 UNL     1      30.252  11.207  47.920  1.00  0.00     0.195 C 
HETATM   18  C16 UNL     1      31.548  11.171  47.216  1.00  0.00     0.207 C 
HETATM   19  O2  UNL     1      32.183   9.912  47.473  1.00  0.00    -0.371 OA
HETATM   20  C17 UNL     1      31.177   9.061  47.722  1.00  0.00     0.242 C 
HETATM   21  C18 UNL     1      31.494   7.582  47.711  1.00  0.00     0.254 C 
HETATM   22  O3  UNL     1      32.309   6.652  47.609  1.00  0.00    -0.270 OA
HETATM   23  N5  UNL     1      30.338   6.804  47.906  1.00  0.00    -0.310 N 
HETATM   24  C19 UNL     1      29.715   5.542  48.026  1.00  0.00     0.122 C 
HETATM   25  N6  UNL     1      30.770   4.859  47.824  1.00  0.00    -0.284 NA
HETATM   26  C20 UNL     1      28.377   5.043  48.312  1.00  0.00     0.051 C 
HETATM   27  C21 UNL     1      27.451   5.936  48.545  1.00  0.00     0.016 C 
HETATM   28  C22 UNL     1      30.609   9.347  49.066  1.00  0.00     0.156 C 
HETATM   29  C23 UNL     1      31.694   9.028  50.084  1.00  0.00     0.042 C 
HETATM   30  O4  UNL     1      30.360  10.741  49.254  1.00  0.00    -0.370 OA
HETATM   31  H12 UNL     1      25.446  11.492  48.552  1.00  0.00     0.182 HD
HETATM   32  H20 UNL     1      29.441   7.318  48.017  1.00  0.00     0.170 HD
HETATM   33  H21 UNL     1      30.803   3.836  47.819  1.00  0.00     0.188 HD
ENDROOT
BRANCH   1  34
HETATM   34  O1  UNL     1      22.150   5.304  50.344  1.00  0.00    -0.356 OA
HETATM   35  C1  UNL     1      21.871   4.794  51.618  1.00  0.00     0.210 C 
ENDBRANCH   1  34
BRANCH   7  36
HETATM   36  C9  UNL     1      23.983   7.863  46.452  1.00  0.00     0.261 C 
HETATM   37  F1  UNL     1      24.607   7.691  45.226  1.00  0.00    -0.251 F 
ENDBRANCH   7  36
TORSDOF 2
ENDMDL
MODEL 5
REMARK VINA RESULT:      -8.3      2.958      6.674
REMARK  2 active torsions:
REMARK  status: ('A' for Active; 'I' for Inactive)
REMARK    1  A    between atoms: O1_2  and  C2_3 
REMARK    2  A    between atoms: C8_9  and  C9_10 
ROOT
HETATM    1  C2  UNL     1      28.963   6.810  47.596  1.00  0.00     0.069 A 
HETATM    2  C3  UNL     1      29.177   5.480  47.897  1.00  0.00     0.037 A 
HETATM    3  C4  UNL     1      28.208   4.774  48.582  1.00  0.00     0.015 A 
HETATM    4  C5  UNL     1      27.012   5.317  48.995  1.00  0.00    -0.025 A 
HETATM    5  C6  UNL     1      26.789   6.638  48.699  1.00  0.00    -0.015 A 
HETATM    6  C7  UNL     1      27.761   7.335  48.017  1.00  0.00     0.049 A 
HETATM    7  C8  UNL     1      25.608   7.485  48.996  1.00  0.00    -0.021 C 
HETATM    8  C10 UNL     1      24.327   7.263  48.765  1.00  0.00     0.005 C 
HETATM    9  C11 UNL     1      22.861   7.459  48.718  1.00  0.00     0.169 C 
HETATM   10  N1  UNL     1      22.303   7.370  47.411  1.00  0.00    -0.315 N 
HETATM   11  N2  UNL     1      20.935   7.238  47.371  1.00  0.00    -0.209 N 
HETATM   12  C12 UNL     1      20.513   5.917  46.845  1.00  0.00     0.229 C 
HETATM   13  C13 UNL     1      19.644   5.395  47.975  1.00  0.00     0.066 C 
HETATM   14  N3  UNL     1      18.527   6.097  47.968  1.00  0.00    -0.244 NA
HETATM   15  C14 UNL     1      18.656   7.545  47.832  1.00  0.00     0.256 C 
HETATM   16  N4  UNL     1      19.850   8.083  47.724  1.00  0.00    -0.150 NA
HETATM   17  C15 UNL     1      20.289   4.320  48.740  1.00  0.00     0.195 C 
HETATM   18  C16 UNL     1      19.481   3.574  49.723  1.00  0.00     0.207 C 
HETATM   19  O2  UNL     1      20.250   2.468  50.215  1.00  0.00    -0.371 OA
HETATM   20  C17 UNL     1      21.529   2.849  50.082  1.00  0.00     0.242 C 
HETATM   21  C18 UNL     1      22.578   2.038  50.810  1.00  0.00     0.254 C 
HETATM   22  O3  UNL     1      22.897   1.073  51.521  1.00  0.00    -0.270 OA
HETATM   23  N5  UNL     1      23.861   2.592  50.652  1.00  0.00    -0.310 N 
HETATM   24  C19 UNL     1      25.250   2.566  50.912  1.00  0.00     0.122 C 
HETATM   25  N6  UNL     1      25.217   1.544  51.670  1.00  0.00    -0.284 NA
HETATM   26  C20 UNL     1      26.419   3.332  50.506  1.00  0.00     0.051 C 
HETATM   27  C21 UNL     1      26.220   4.314  49.666  1.00  0.00     0.016 C 
HETATM   28  C22 UNL     1      21.909   2.813  48.646  1.00  0.00     0.156 C 
HETATM   29  C23 UNL     1      21.854   1.358  48.208  1.00  0.00     0.042 C 
HETATM   30  O4  UNL     1      20.937   3.457  47.821  1.00  0.00    -0.370 OA
HETATM   31  H12 UNL     1      22.691   8.035  46.735  1.00  0.00     0.182 HD
HETATM   32  H20 UNL     1      23.929   3.463  50.087  1.00  0.00     0.170 HD
HETATM   33  H21 UNL     1      26.040   1.133  52.120  1.00  0.00     0.188 HD
ENDROOT
BRANCH   1  34
HETATM   34  O1  UNL     1      29.909   7.559  46.910  1.00  0.00    -0.356 OA
HETATM   35  C1  UNL     1      31.006   8.173  47.527  1.00  0.00     0.210 C 
ENDBRANCH   1  34
BRANCH   7  36
HETATM   36  C9  UNL     1      25.926   8.791  49.680  1.00  0.00     0.261 C 
HETATM   37  F1  UNL     1      26.728   8.562  50.788  1.00  0.00    -0.251 F 
ENDBRANCH   7  36
TORSDOF 2
ENDMDL
MODEL 6
REMARK VINA RESULT:      -7.9      4.313      7.101
REMARK  2 active torsions:
REMARK  status: ('A' for Active; 'I' for Inactive)
REMARK    1  A    between atoms: O1_2  and  C2_3 
REMARK    2  A    between atoms: C8_9  and  C9_10 
ROOT
HETATM    1  C2  UNL     1      25.585   0.460  52.570  1.00  0.00     0.069 A 
HETATM    2  C3  UNL     1      24.874  -0.695  52.825  1.00  0.00     0.037 A 
HETATM    3  C4  UNL     1      23.498  -0.636  52.934  1.00  0.00     0.015 A 
HETATM    4  C5  UNL     1      22.768   0.523  52.801  1.00  0.00    -0.025 A 
HETATM    5  C6  UNL     1      23.466   1.677  52.547  1.00  0.00    -0.015 A 
HETATM    6  C7  UNL     1      24.837   1.609  52.441  1.00  0.00     0.049 A 
HETATM    7  C8  UNL     1      22.964   3.058  52.344  1.00  0.00    -0.021 C 
HETATM    8  C10 UNL     1      22.018   3.505  51.538  1.00  0.00     0.005 C 
HETATM    9  C11 UNL     1      21.093   4.431  50.846  1.00  0.00     0.169 C 
HETATM   10  N1  UNL     1      21.191   4.399  49.427  1.00  0.00    -0.315 N 
HETATM   11  N2  UNL     1      20.153   5.003  48.758  1.00  0.00    -0.209 N 
HETATM   12  C12 UNL     1      19.337   4.031  47.991  1.00  0.00     0.229 C 
HETATM   13  C13 UNL     1      17.949   4.275  48.555  1.00  0.00     0.066 C 
HETATM   14  N3  UNL     1      17.539   5.444  48.099  1.00  0.00    -0.244 NA
HETATM   15  C14 UNL     1      18.493   6.548  48.157  1.00  0.00     0.256 C 
HETATM   16  N4  UNL     1      19.695   6.342  48.647  1.00  0.00    -0.150 NA
HETATM   17  C15 UNL     1      17.495   3.193  49.438  1.00  0.00     0.195 C 
HETATM   18  C16 UNL     1      16.087   3.191  49.881  1.00  0.00     0.207 C 
HETATM   19  O2  UNL     1      15.819   1.966  50.575  1.00  0.00    -0.371 OA
HETATM   20  C17 UNL     1      17.005   1.581  51.070  1.00  0.00     0.242 C 
HETATM   21  C18 UNL     1      17.002   0.498  52.125  1.00  0.00     0.254 C 
HETATM   22  O3  UNL     1      16.397  -0.332  52.821  1.00  0.00    -0.270 OA
HETATM   23  N5  UNL     1      18.298   0.249  52.614  1.00  0.00    -0.310 N 
HETATM   24  C19 UNL     1      19.171  -0.454  53.473  1.00  0.00     0.122 C 
HETATM   25  N6  UNL     1      18.262  -1.136  54.047  1.00  0.00    -0.284 NA
HETATM   26  C20 UNL     1      20.606  -0.516  53.708  1.00  0.00     0.051 C 
HETATM   27  C21 UNL     1      21.361   0.240  52.954  1.00  0.00     0.016 C 
HETATM   28  C22 UNL     1      17.861   1.074  49.966  1.00  0.00     0.156 C 
HETATM   29  C23 UNL     1      17.197  -0.186  49.432  1.00  0.00     0.042 C 
HETATM   30  O4  UNL     1      17.866   1.961  48.846  1.00  0.00    -0.370 OA
HETATM   31  H12 UNL     1      22.123   4.614  49.058  1.00  0.00     0.182 HD
HETATM   32  H20 UNL     1      19.067   0.825  52.216  1.00  0.00     0.170 HD
HETATM   33  H21 UNL     1      18.436  -1.824  54.786  1.00  0.00     0.188 HD
ENDROOT
BRANCH   1  34
HETATM   34  O1  UNL     1      26.969   0.449  52.453  1.00  0.00    -0.356 OA
HETATM   35  C1  UNL     1      27.803  -0.371  53.223  1.00  0.00     0.210 C 
ENDBRANCH   1  34
BRANCH   7  36
HETATM   36  C9  UNL     1      23.630   4.103  53.203  1.00  0.00     0.261 C 
HETATM   37  F1  UNL     1      23.556   5.342  52.585  1.00  0.00    -0.251 F 
ENDBRANCH   7  36
TORSDOF 2
ENDMDL
MODEL 7
REMARK VINA RESULT:      -7.8      3.615      6.959
REMARK  2 active torsions:
REMARK  status: ('A' for Active; 'I' for Inactive)
REMARK    1  A    between atoms: O1_2  and  C2_3 
REMARK    2  A    between atoms: C8_9  and  C9_10 
ROOT
HETATM    1  C2  UNL     1      30.187   6.929  47.669  1.00  0.00     0.069 A 
HETATM    2  C3  UNL     1      29.994   5.572  47.832  1.00  0.00     0.037 A 
HETATM    3  C4  UNL     1      28.768   5.108  48.270  1.00  0.00     0.015 A 
HETATM    4  C5  UNL     1      27.699   5.924  48.561  1.00  0.00    -0.025 A 
HETATM    5  C6  UNL     1      27.881   7.275  48.401  1.00  0.00    -0.015 A 
HETATM    6  C7  UNL     1      29.106   7.729  47.965  1.00  0.00     0.049 A 
HETATM    7  C8  UNL     1      26.925   8.388  48.619  1.00  0.00    -0.021 C 
HETATM    8  C10 UNL     1      25.693   8.546  48.171  1.00  0.00     0.005 C 
HETATM    9  C11 UNL     1      24.360   9.141  47.927  1.00  0.00     0.169 C 
HETATM   10  N1  UNL     1      24.041   9.311  46.550  1.00  0.00    -0.315 N 
HETATM   11  N2  UNL     1      22.715   9.564  46.288  1.00  0.00    -0.209 N 
HETATM   12  C12 UNL     1      22.068   8.456  45.544  1.00  0.00     0.229 C 
HETATM   13  C13 UNL     1      20.906   8.106  46.456  1.00  0.00     0.066 C 
HETATM   14  N3  UNL     1      20.027   9.086  46.368  1.00  0.00    -0.244 NA
HETATM   15  C14 UNL     1      20.548  10.449  46.433  1.00  0.00     0.256 C 
HETATM   16  N4  UNL     1      21.839  10.644  46.574  1.00  0.00    -0.150 NA
HETATM   17  C15 UNL     1      21.105   6.838  47.171  1.00  0.00     0.195 C 
HETATM   18  C16 UNL     1      19.969   6.268  47.921  1.00  0.00     0.207 C 
HETATM   19  O2  UNL     1      20.326   4.958  48.382  1.00  0.00    -0.371 OA
HETATM   20  C17 UNL     1      21.663   4.982  48.493  1.00  0.00     0.242 C 
HETATM   21  C18 UNL     1      22.319   3.859  49.265  1.00  0.00     0.254 C 
HETATM   22  O3  UNL     1      22.246   2.791  49.891  1.00  0.00    -0.270 OA
HETATM   23  N5  UNL     1      23.709   4.050  49.372  1.00  0.00    -0.310 N 
HETATM   24  C19 UNL     1      24.974   3.623  49.834  1.00  0.00     0.122 C 
HETATM   25  N6  UNL     1      24.544   2.593  50.446  1.00  0.00    -0.284 NA
HETATM   26  C20 UNL     1      26.354   4.067  49.707  1.00  0.00     0.051 C 
HETATM   27  C21 UNL     1      26.569   5.129  48.975  1.00  0.00     0.016 C 
HETATM   28  C22 UNL     1      22.271   4.956  47.137  1.00  0.00     0.156 C 
HETATM   29  C23 UNL     1      21.922   3.611  46.519  1.00  0.00     0.042 C 
HETATM   30  O4  UNL     1      21.662   5.906  46.261  1.00  0.00    -0.370 OA
HETATM   31  H12 UNL     1      24.701   9.895  46.028  1.00  0.00     0.182 HD
HETATM   32  H20 UNL     1      24.099   4.910  48.936  1.00  0.00     0.170 HD
HETATM   33  H21 UNL     1      25.139   1.937  50.961  1.00  0.00     0.188 HD
ENDROOT
BRANCH   1  34
HETATM   34  O1  UNL     1      31.401   7.440  47.232  1.00  0.00    -0.356 OA
HETATM   35  C1  UNL     1      31.588   8.777  46.856  1.00  0.00     0.210 C 
ENDBRANCH   1  34
BRANCH   7  36
HETATM   36  C9  UNL     1      27.441   9.498  49.500  1.00  0.00     0.261 C 
HETATM   37  F1  UNL     1      27.275   9.160  50.834  1.00  0.00    -0.251 F 
ENDBRANCH   7  36
TORSDOF 2
ENDMDL
MODEL 8
REMARK VINA RESULT:      -7.8      8.230     11.934
REMARK  2 active torsions:
REMARK  status: ('A' for Active; 'I' for Inactive)
REMARK    1  A    between atoms: O1_2  and  C2_3 
REMARK    2  A    between atoms: C8_9  and  C9_10 
ROOT
HETATM    1  C2  UNL     1      34.266   5.268  40.978  1.00  0.00     0.069 A 
HETATM    2  C3  UNL     1      33.866   4.183  41.733  1.00  0.00     0.037 A 
HETATM    3  C4  UNL     1      33.523   4.366  43.058  1.00  0.00     0.015 A 
HETATM    4  C5  UNL     1      33.552   5.586  43.695  1.00  0.00    -0.025 A 
HETATM    5  C6  UNL     1      33.947   6.670  42.954  1.00  0.00    -0.015 A 
HETATM    6  C7  UNL     1      34.288   6.479  41.634  1.00  0.00     0.049 A 
HETATM    7  C8  UNL     1      34.064   8.094  43.353  1.00  0.00    -0.021 C 
HETATM    8  C10 UNL     1      33.189   8.880  43.954  1.00  0.00     0.005 C 
HETATM    9  C11 UNL     1      32.583  10.079  44.575  1.00  0.00     0.169 C 
HETATM   10  N1  UNL     1      31.353  10.483  43.982  1.00  0.00    -0.315 N 
HETATM   11  N2  UNL     1      30.621  11.384  44.718  1.00  0.00    -0.209 N 
HETATM   12  C12 UNL     1      29.347  10.806  45.209  1.00  0.00     0.229 C 
HETATM   13  C13 UNL     1      29.464  11.022  46.707  1.00  0.00     0.066 C 
HETATM   14  N3  UNL     1      29.318  12.314  46.930  1.00  0.00    -0.244 NA
HETATM   15  C14 UNL     1      30.057  13.224  46.059  1.00  0.00     0.256 C 
HETATM   16  N4  UNL     1      30.820  12.735  45.108  1.00  0.00    -0.150 NA
HETATM   17  C15 UNL     1      29.728   9.779  47.443  1.00  0.00     0.195 C 
HETATM   18  C16 UNL     1      29.649   9.804  48.916  1.00  0.00     0.207 C 
HETATM   19  O2  UNL     1      29.760   8.463  49.412  1.00  0.00    -0.371 OA
HETATM   20  C17 UNL     1      30.462   7.805  48.477  1.00  0.00     0.242 C 
HETATM   21  C18 UNL     1      31.028   6.453  48.851  1.00  0.00     0.254 C 
HETATM   22  O3  UNL     1      31.161   5.524  49.662  1.00  0.00    -0.270 OA
HETATM   23  N5  UNL     1      31.806   5.913  47.811  1.00  0.00    -0.310 N 
HETATM   24  C19 UNL     1      32.618   4.878  47.297  1.00  0.00     0.122 C 
HETATM   25  N6  UNL     1      32.593   4.162  48.350  1.00  0.00    -0.284 NA
HETATM   26  C20 UNL     1      33.283   4.577  46.037  1.00  0.00     0.051 C 
HETATM   27  C21 UNL     1      33.123   5.437  45.065  1.00  0.00     0.016 C 
HETATM   28  C22 UNL     1      29.604   7.573  47.286  1.00  0.00     0.156 C 
HETATM   29  C23 UNL     1      28.490   6.632  47.717  1.00  0.00     0.042 C 
HETATM   30  O4  UNL     1      28.916   8.760  46.885  1.00  0.00    -0.370 OA
HETATM   31  H12 UNL     1      31.411  10.692  42.980  1.00  0.00     0.182 HD
HETATM   32  H20 UNL     1      31.905   6.490  46.951  1.00  0.00     0.170 HD
HETATM   33  H21 UNL     1      33.071   3.262  48.447  1.00  0.00     0.188 HD
ENDROOT
BRANCH   1  34
HETATM   34  O1  UNL     1      34.620   5.131  39.643  1.00  0.00    -0.356 OA
HETATM   35  C1  UNL     1      34.698   3.896  38.986  1.00  0.00     0.210 C 
ENDBRANCH   1  34
BRANCH   7  36
HETATM   36  C9  UNL     1      35.394   8.730  43.034  1.00  0.00     0.261 C 
HETATM   37  F1  UNL     1      35.957   9.255  44.187  1.00  0.00    -0.251 F 
ENDBRANCH   7  36
TORSDOF 2
ENDMDL
MODEL 9
REMARK VINA RESULT:      -7.7      5.693      9.175
REMARK  2 active torsions:
REMARK  status: ('A' for Active; 'I' for Inactive)
REMARK    1  A    between atoms: O1_2  and  C2_3 
REMARK    2  A    between atoms: C8_9  and  C9_10 
ROOT
HETATM    1  C2  UNL     1      33.224   4.832  47.055  1.00  0.00     0.069 A 
HETATM    2  C3  UNL     1      32.157   3.960  46.975  1.00  0.00     0.037 A 
HETATM    3  C4  UNL     1      30.893   4.399  47.319  1.00  0.00     0.015 A 
HETATM    4  C5  UNL     1      30.616   5.678  47.745  1.00  0.00    -0.025 A 
HETATM    5  C6  UNL     1      31.670   6.553  47.827  1.00  0.00    -0.015 A 
HETATM    6  C7  UNL     1      32.927   6.106  47.484  1.00  0.00     0.049 A 
HETATM    7  C8  UNL     1      31.684   7.979  48.234  1.00  0.00    -0.021 C 
HETATM    8  C10 UNL     1      30.938   8.986  47.816  1.00  0.00     0.005 C 
HETATM    9  C11 UNL     1      30.385  10.352  47.677  1.00  0.00     0.169 C 
HETATM   10  N1  UNL     1      30.433  10.866  46.350  1.00  0.00    -0.315 N 
HETATM   11  N2  UNL     1      29.660  11.982  46.131  1.00  0.00    -0.209 N 
HETATM   12  C12 UNL     1      28.537  11.713  45.201  1.00  0.00     0.229 C 
HETATM   13  C13 UNL     1      27.337  12.132  46.031  1.00  0.00     0.066 C 
HETATM   14  N3  UNL     1      27.356  13.448  46.114  1.00  0.00    -0.244 NA
HETATM   15  C14 UNL     1      28.639  14.073  46.422  1.00  0.00     0.256 C 
HETATM   16  N4  UNL     1      29.701  13.321  46.600  1.00  0.00    -0.150 NA
HETATM   17  C15 UNL     1      26.550  10.988  46.512  1.00  0.00     0.195 C 
HETATM   18  C16 UNL     1      25.243  11.250  47.144  1.00  0.00     0.207 C 
HETATM   19  O2  UNL     1      24.575  10.001  47.368  1.00  0.00    -0.371 OA
HETATM   20  C17 UNL     1      25.559   9.098  47.486  1.00  0.00     0.242 C 
HETATM   21  C18 UNL     1      25.198   7.742  48.050  1.00  0.00     0.254 C 
HETATM   22  O3  UNL     1      24.355   6.939  48.477  1.00  0.00    -0.270 OA
HETATM   23  N5  UNL     1      26.334   6.924  48.195  1.00  0.00    -0.310 N 
HETATM   24  C19 UNL     1      26.922   5.698  48.579  1.00  0.00     0.122 C 
HETATM   25  N6  UNL     1      25.844   5.166  48.999  1.00  0.00    -0.284 NA
HETATM   26  C20 UNL     1      28.248   5.100  48.539  1.00  0.00     0.051 C 
HETATM   27  C21 UNL     1      29.204   5.816  48.007  1.00  0.00     0.016 C 
HETATM   28  C22 UNL     1      26.156   8.839  46.150  1.00  0.00     0.156 C 
HETATM   29  C23 UNL     1      25.079   8.181  45.302  1.00  0.00     0.042 C 
HETATM   30  O4  UNL     1      26.449  10.052  45.453  1.00  0.00    -0.370 OA
HETATM   31  H12 UNL     1      31.372  10.908  45.942  1.00  0.00     0.182 HD
HETATM   32  H20 UNL     1      27.248   7.338  47.920  1.00  0.00     0.170 HD
HETATM   33  H21 UNL     1      25.780   4.223  49.391  1.00  0.00     0.188 HD
ENDROOT
BRANCH   1  34
HETATM   34  O1  UNL     1      34.511   4.434  46.720  1.00  0.00    -0.356 OA
HETATM   35  C1  UNL     1      34.807   3.614  45.625  1.00  0.00     0.210 C 
ENDBRANCH   1  34
BRANCH   7  36
HETATM   36  C9  UNL     1      32.694   8.320  49.300  1.00  0.00     0.261 C 
HETATM   37  F1  UNL     1      32.045   8.687  50.469  1.00  0.00    -0.251 F 
ENDBRANCH   7  36
TORSDOF 2
ENDMDL
