MODEL 1
REMARK VINA RESULT:      -7.4      0.000      0.000
REMARK  2 active torsions:
REMARK  status: ('A' for Active; 'I' for Inactive)
REMARK    1  A    between atoms: C3_4  and  N1_8 
REMARK    2  A    between atoms: C4_5  and  C5_6 
ROOT
HETATM    1  N1  UNL     1      20.317   0.598  52.435  1.00  0.00    -0.366 N 
HETATM    2  C6  UNL     1      21.325   0.250  51.439  1.00  0.00     0.128 C 
HETATM    3  C7  UNL     1      22.401   1.298  51.288  1.00  0.00     0.054 C 
HETATM    4  C8  UNL     1      23.578   1.017  52.180  1.00  0.00    -0.070 C 
HETATM    5  C9  UNL     1      24.260   0.151  53.063  1.00  0.00    -0.034 C 
HETATM    6  C10 UNL     1      23.226  -0.857  53.013  1.00  0.00     0.125 C 
HETATM    7  N2  UNL     1      22.255  -1.177  53.681  1.00  0.00    -0.254 NA
HETATM    8  C11 UNL     1      21.589  -0.804  54.814  1.00  0.00     0.228 C 
HETATM    9  N3  UNL     1      20.828   0.215  54.845  1.00  0.00    -0.263 NA
HETATM   10  C12 UNL     1      20.616   1.039  53.741  1.00  0.00     0.274 C 
HETATM   11  C13 UNL     1      25.404   1.107  53.198  1.00  0.00     0.020 C 
HETATM   12  C14 UNL     1      26.465   0.832  52.132  1.00  0.00     0.015 C 
HETATM   13  C15 UNL     1      24.411   2.085  52.845  1.00  0.00     0.043 C 
ENDROOT
BRANCH   1  14
HETATM   14  C3  UNL     1      19.162   0.267  51.741  1.00  0.00     0.034 A 
HETATM   15  C2  UNL     1      17.967  -0.104  51.106  1.00  0.00     0.135 A 
HETATM   16  C1  UNL     1      17.828   0.448  49.861  1.00  0.00     0.224 A 
HETATM   17  F1  UNL     1      16.839  -0.456  50.514  1.00  0.00    -0.388 F 
HETATM   18  C4  UNL     1      18.305  -0.509  52.489  1.00  0.00     0.089 A 
BRANCH  18  19
HETATM   19  C5  UNL     1      17.145  -1.342  53.005  1.00  0.00     0.099 C 
HETATM   20 BR1  UNL     1      17.789  -3.001  53.722  1.00  0.00    -0.096 Br
ENDBRANCH  18  19
ENDBRANCH   1  14
TORSDOF 2
ENDMDL
MODEL 2
REMARK VINA RESULT:      -7.2      5.203      6.486
REMARK  2 active torsions:
REMARK  status: ('A' for Active; 'I' for Inactive)
REMARK    1  A    between atoms: C3_4  and  N1_8 
REMARK    2  A    between atoms: C4_5  and  C5_6 
ROOT
HETATM    1  N1  UNL     1      25.086   2.713  51.686  1.00  0.00    -0.366 N 
HETATM    2  C6  UNL     1      26.313   2.153  51.128  1.00  0.00     0.128 C 
HETATM    3  C7  UNL     1      27.519   2.357  52.015  1.00  0.00     0.054 C 
HETATM    4  C8  UNL     1      27.731   1.191  52.938  1.00  0.00    -0.070 C 
HETATM    5  C9  UNL     1      27.403  -0.124  53.339  1.00  0.00    -0.034 C 
HETATM    6  C10 UNL     1      26.364  -0.262  52.344  1.00  0.00     0.125 C 
HETATM    7  N2  UNL     1      25.152  -0.131  52.292  1.00  0.00    -0.254 NA
HETATM    8  C11 UNL     1      24.095   0.205  53.091  1.00  0.00     0.228 C 
HETATM    9  N3  UNL     1      23.854   1.411  53.418  1.00  0.00    -0.263 NA
HETATM   10  C12 UNL     1      24.642   2.483  53.006  1.00  0.00     0.274 C 
HETATM   11  C13 UNL     1      28.452  -0.115  54.406  1.00  0.00     0.020 C 
HETATM   12  C14 UNL     1      29.784  -0.629  53.858  1.00  0.00     0.015 C 
HETATM   13  C15 UNL     1      28.266   1.310  54.344  1.00  0.00     0.043 C 
ENDROOT
BRANCH   1  14
HETATM   14  C3  UNL     1      24.573   3.346  50.564  1.00  0.00     0.034 A 
HETATM   15  C2  UNL     1      24.120   4.033  49.427  1.00  0.00     0.135 A 
HETATM   16  C1  UNL     1      22.995   3.479  48.879  1.00  0.00     0.224 A 
HETATM   17  F1  UNL     1      23.700   4.685  48.358  1.00  0.00    -0.388 F 
HETATM   18  C4  UNL     1      25.363   4.394  50.146  1.00  0.00     0.089 A 
BRANCH  18  19
HETATM   19  C5  UNL     1      25.973   5.577  49.414  1.00  0.00     0.099 C 
HETATM   20 BR1  UNL     1      27.662   5.082  48.650  1.00  0.00    -0.096 Br
ENDBRANCH  18  19
ENDBRANCH   1  14
TORSDOF 2
ENDMDL
MODEL 3
REMARK VINA RESULT:      -7.1      3.876      5.262
REMARK  2 active torsions:
REMARK  status: ('A' for Active; 'I' for Inactive)
REMARK    1  A    between atoms: C3_4  and  N1_8 
REMARK    2  A    between atoms: C4_5  and  C5_6 
ROOT
HETATM    1  N1  UNL     1      25.093   2.246  51.962  1.00  0.00    -0.366 N 
HETATM    2  C6  UNL     1      26.356   1.875  51.332  1.00  0.00     0.128 C 
HETATM    3  C7  UNL     1      27.562   2.176  52.190  1.00  0.00     0.054 C 
HETATM    4  C8  UNL     1      27.950   0.995  53.034  1.00  0.00    -0.070 C 
HETATM    5  C9  UNL     1      27.801  -0.370  53.365  1.00  0.00    -0.034 C 
HETATM    6  C10 UNL     1      26.748  -0.580  52.398  1.00  0.00     0.125 C 
HETATM    7  N2  UNL     1      25.527  -0.598  52.393  1.00  0.00    -0.254 NA
HETATM    8  C11 UNL     1      24.470  -0.440  53.245  1.00  0.00     0.228 C 
HETATM    9  N3  UNL     1      24.097   0.707  53.652  1.00  0.00    -0.263 NA
HETATM   10  C12 UNL     1      24.733   1.890  53.279  1.00  0.00     0.274 C 
HETATM   11  C13 UNL     1      28.882  -0.291  54.396  1.00  0.00     0.020 C 
HETATM   12  C14 UNL     1      30.244  -0.605  53.775  1.00  0.00     0.015 C 
HETATM   13  C15 UNL     1      28.522   1.101  54.426  1.00  0.00     0.043 C 
ENDROOT
BRANCH   1  14
HETATM   14  C3  UNL     1      24.462   2.873  50.898  1.00  0.00     0.034 A 
HETATM   15  C2  UNL     1      23.766   3.451  49.825  1.00  0.00     0.135 A 
HETATM   16  C1  UNL     1      24.289   4.654  49.433  1.00  0.00     0.224 A 
HETATM   17  F1  UNL     1      23.106   3.989  48.816  1.00  0.00    -0.388 F 
HETATM   18  C4  UNL     1      23.343   2.191  50.476  1.00  0.00     0.089 A 
BRANCH  18  19
HETATM   19  C5  UNL     1      22.083   1.725  49.767  1.00  0.00     0.099 C 
HETATM   20 BR1  UNL     1      21.096   0.524  50.893  1.00  0.00    -0.096 Br
ENDBRANCH  18  19
ENDBRANCH   1  14
TORSDOF 2
ENDMDL
MODEL 4
REMARK VINA RESULT:      -7.1      4.295      7.050
REMARK  2 active torsions:
REMARK  status: ('A' for Active; 'I' for Inactive)
REMARK    1  A    between atoms: C3_4  and  N1_8 
REMARK    2  A    between atoms: C4_5  and  C5_6 
ROOT
HETATM    1  N1  UNL     1      24.730   0.259  53.151  1.00  0.00    -0.366 N 
HETATM    2  C6  UNL     1      23.809  -0.775  52.689  1.00  0.00     0.128 C 
HETATM    3  C7  UNL     1      22.558  -0.876  53.528  1.00  0.00     0.054 C 
HETATM    4  C8  UNL     1      21.449  -0.027  52.974  1.00  0.00    -0.070 C 
HETATM    5  C9  UNL     1      20.935   0.786  51.938  1.00  0.00    -0.034 C 
HETATM    6  C10 UNL     1      22.140   0.688  51.145  1.00  0.00     0.125 C 
HETATM    7  N2  UNL     1      23.149   1.351  50.966  1.00  0.00    -0.254 NA
HETATM    8  C11 UNL     1      23.728   2.518  51.379  1.00  0.00     0.228 C 
HETATM    9  N3  UNL     1      24.286   2.629  52.517  1.00  0.00    -0.263 NA
HETATM   10  C12 UNL     1      24.346   1.586  53.439  1.00  0.00     0.274 C 
HETATM   11  C13 UNL     1      19.633   0.962  52.653  1.00  0.00     0.020 C 
HETATM   12  C14 UNL     1      18.647  -0.139  52.259  1.00  0.00     0.015 C 
HETATM   13  C15 UNL     1      20.428   0.692  53.820  1.00  0.00     0.043 C 
ENDROOT
BRANCH   1  14
HETATM   14  C3  UNL     1      25.930  -0.434  53.087  1.00  0.00     0.034 A 
HETATM   15  C2  UNL     1      27.176  -1.079  53.071  1.00  0.00     0.135 A 
HETATM   16  C1  UNL     1      27.135  -2.308  52.470  1.00  0.00     0.224 A 
HETATM   17  F1  UNL     1      28.352  -1.681  53.060  1.00  0.00    -0.388 F 
HETATM   18  C4  UNL     1      26.950   0.223  53.737  1.00  0.00     0.089 A 
BRANCH  18  19
HETATM   19  C5  UNL     1      28.275   0.648  54.346  1.00  0.00     0.099 C 
HETATM   20 BR1  UNL     1      28.777   2.382  53.696  1.00  0.00    -0.096 Br
ENDBRANCH  18  19
ENDBRANCH   1  14
TORSDOF 2
ENDMDL
MODEL 5
REMARK VINA RESULT:      -6.9      5.646      7.626
REMARK  2 active torsions:
REMARK  status: ('A' for Active; 'I' for Inactive)
REMARK    1  A    between atoms: C3_4  and  N1_8 
REMARK    2  A    between atoms: C4_5  and  C5_6 
ROOT
HETATM    1  N1  UNL     1      24.496   4.316  50.713  1.00  0.00    -0.366 N 
HETATM    2  C6  UNL     1      23.666   4.286  51.913  1.00  0.00     0.128 C 
HETATM    3  C7  UNL     1      22.515   3.314  51.818  1.00  0.00     0.054 C 
HETATM    4  C8  UNL     1      22.882   1.965  52.370  1.00  0.00    -0.070 C 
HETATM    5  C9  UNL     1      23.789   1.139  53.070  1.00  0.00    -0.034 C 
HETATM    6  C10 UNL     1      24.762   2.195  53.233  1.00  0.00     0.125 C 
HETATM    7  N2  UNL     1      25.773   2.577  52.665  1.00  0.00    -0.254 NA
HETATM    8  C11 UNL     1      26.559   2.261  51.592  1.00  0.00     0.228 C 
HETATM    9  N3  UNL     1      26.213   2.535  50.399  1.00  0.00    -0.263 NA
HETATM   10  C12 UNL     1      25.011   3.164  50.081  1.00  0.00     0.274 C 
HETATM   11  C13 UNL     1      22.869  -0.038  52.976  1.00  0.00     0.020 C 
HETATM   12  C14 UNL     1      21.925  -0.081  54.179  1.00  0.00     0.015 C 
HETATM   13  C15 UNL     1      22.369   0.657  51.821  1.00  0.00     0.043 C 
ENDROOT
BRANCH   1  14
HETATM   14  C3  UNL     1      24.642   5.685  50.550  1.00  0.00     0.034 A 
HETATM   15  C2  UNL     1      24.851   7.056  50.332  1.00  0.00     0.135 A 
HETATM   16  C1  UNL     1      23.887   7.842  50.905  1.00  0.00     0.224 A 
HETATM   17  F1  UNL     1      25.052   8.344  50.123  1.00  0.00    -0.388 F 
HETATM   18  C4  UNL     1      25.712   6.006  49.744  1.00  0.00     0.089 A 
BRANCH  18  19
HETATM   19  C5  UNL     1      26.775   6.711  48.920  1.00  0.00     0.099 C 
HETATM   20 BR1  UNL     1      28.159   5.476  48.427  1.00  0.00    -0.096 Br
ENDBRANCH  18  19
ENDBRANCH   1  14
TORSDOF 2
ENDMDL
MODEL 6
REMARK VINA RESULT:      -6.9      2.563      4.009
REMARK  2 active torsions:
REMARK  status: ('A' for Active; 'I' for Inactive)
REMARK    1  A    between atoms: C3_4  and  N1_8 
REMARK    2  A    between atoms: C4_5  and  C5_6 
ROOT
HETATM    1  N1  UNL     1      23.172   0.521  52.583  1.00  0.00    -0.366 N 
HETATM    2  C6  UNL     1      23.968   0.189  53.761  1.00  0.00     0.128 C 
HETATM    3  C7  UNL     1      25.302  -0.434  53.422  1.00  0.00     0.054 C 
HETATM    4  C8  UNL     1      26.386   0.601  53.318  1.00  0.00    -0.070 C 
HETATM    5  C9  UNL     1      26.823   1.933  53.492  1.00  0.00    -0.034 C 
HETATM    6  C10 UNL     1      25.530   2.389  53.949  1.00  0.00     0.125 C 
HETATM    7  N2  UNL     1      24.548   2.928  53.464  1.00  0.00    -0.254 NA
HETATM    8  C11 UNL     1      24.093   3.402  52.265  1.00  0.00     0.228 C 
HETATM    9  N3  UNL     1      23.680   2.625  51.346  1.00  0.00    -0.263 NA
HETATM   10  C12 UNL     1      23.666   1.237  51.472  1.00  0.00     0.274 C 
HETATM   11  C13 UNL     1      28.208   1.592  53.041  1.00  0.00     0.020 C 
HETATM   12  C14 UNL     1      29.073   1.169  54.229  1.00  0.00     0.015 C 
HETATM   13  C15 UNL     1      27.541   0.523  52.350  1.00  0.00     0.043 C 
ENDROOT
BRANCH   1  14
HETATM   14  C3  UNL     1      21.934   0.039  52.981  1.00  0.00     0.034 A 
HETATM   15  C2  UNL     1      20.647  -0.397  53.331  1.00  0.00     0.135 A 
HETATM   16  C1  UNL     1      20.657  -1.505  54.135  1.00  0.00     0.224 A 
HETATM   17  F1  UNL     1      19.432  -0.802  53.657  1.00  0.00    -0.388 F 
HETATM   18  C4  UNL     1      20.892   0.731  52.406  1.00  0.00     0.089 A 
BRANCH  18  19
HETATM   19  C5  UNL     1      19.534   1.250  51.966  1.00  0.00     0.099 C 
HETATM   20 BR1  UNL     1      19.396   1.204  50.053  1.00  0.00    -0.096 Br
ENDBRANCH  18  19
ENDBRANCH   1  14
TORSDOF 2
ENDMDL
MODEL 7
REMARK VINA RESULT:      -6.8      3.798      5.566
REMARK  2 active torsions:
REMARK  status: ('A' for Active; 'I' for Inactive)
REMARK    1  A    between atoms: C3_4  and  N1_8 
REMARK    2  A    between atoms: C4_5  and  C5_6 
ROOT
HETATM    1  N1  UNL     1      22.971   1.235  52.095  1.00  0.00    -0.366 N 
HETATM    2  C6  UNL     1      23.950   2.192  52.601  1.00  0.00     0.128 C 
HETATM    3  C7  UNL     1      24.983   2.587  51.573  1.00  0.00     0.054 C 
HETATM    4  C8  UNL     1      24.571   3.821  50.820  1.00  0.00    -0.070 C 
HETATM    5  C9  UNL     1      23.694   4.917  50.660  1.00  0.00    -0.034 C 
HETATM    6  C10 UNL     1      22.855   4.520  51.767  1.00  0.00     0.125 C 
HETATM    7  N2  UNL     1      21.816   3.899  51.925  1.00  0.00    -0.254 NA
HETATM    8  C11 UNL     1      20.866   3.237  51.199  1.00  0.00     0.228 C 
HETATM    9  N3  UNL     1      21.070   2.077  50.719  1.00  0.00    -0.263 NA
HETATM   10  C12 UNL     1      22.271   1.388  50.879  1.00  0.00     0.274 C 
HETATM   11  C13 UNL     1      24.481   5.442  49.500  1.00  0.00     0.020 C 
HETATM   12  C14 UNL     1      25.571   6.402  49.978  1.00  0.00     0.015 C 
HETATM   13  C15 UNL     1      24.882   4.069  49.365  1.00  0.00     0.043 C 
ENDROOT
BRANCH   1  14
HETATM   14  C3  UNL     1      22.931   0.341  53.156  1.00  0.00     0.034 A 
HETATM   15  C2  UNL     1      22.971  -0.565  54.226  1.00  0.00     0.135 A 
HETATM   16  C1  UNL     1      21.750  -0.756  54.813  1.00  0.00     0.224 A 
HETATM   17  F1  UNL     1      23.017  -1.419  55.233  1.00  0.00    -0.388 F 
HETATM   18  C4  UNL     1      24.179  -0.135  53.487  1.00  0.00     0.089 A 
BRANCH  18  19
HETATM   19  C5  UNL     1      25.364  -0.847  54.118  1.00  0.00     0.099 C 
HETATM   20 BR1  UNL     1      26.811  -0.963  52.862  1.00  0.00    -0.096 Br
ENDBRANCH  18  19
ENDBRANCH   1  14
TORSDOF 2
ENDMDL
MODEL 8
REMARK VINA RESULT:      -6.7      4.172      6.091
REMARK  2 active torsions:
REMARK  status: ('A' for Active; 'I' for Inactive)
REMARK    1  A    between atoms: C3_4  and  N1_8 
REMARK    2  A    between atoms: C4_5  and  C5_6 
ROOT
HETATM    1  N1  UNL     1      23.832   1.972  51.346  1.00  0.00    -0.366 N 
HETATM    2  C6  UNL     1      24.917   2.861  50.940  1.00  0.00     0.128 C 
HETATM    3  C7  UNL     1      24.836   3.278  49.491  1.00  0.00     0.054 C 
HETATM    4  C8  UNL     1      24.083   4.568  49.327  1.00  0.00    -0.070 C 
HETATM    5  C9  UNL     1      23.469   5.704  49.901  1.00  0.00    -0.034 C 
HETATM    6  C10 UNL     1      23.736   5.273  51.255  1.00  0.00     0.125 C 
HETATM    7  N2  UNL     1      23.138   4.683  52.140  1.00  0.00    -0.254 NA
HETATM    8  C11 UNL     1      21.925   4.101  52.383  1.00  0.00     0.228 C 
HETATM    9  N3  UNL     1      21.614   2.964  51.904  1.00  0.00    -0.263 NA
HETATM   10  C12 UNL     1      22.468   2.223  51.089  1.00  0.00     0.274 C 
HETATM   11  C13 UNL     1      23.137   6.267  48.555  1.00  0.00     0.020 C 
HETATM   12  C14 UNL     1      24.273   7.156  48.047  1.00  0.00     0.015 C 
HETATM   13  C15 UNL     1      23.200   4.890  48.148  1.00  0.00     0.043 C 
ENDROOT
BRANCH   1  14
HETATM   14  C3  UNL     1      24.548   1.020  52.056  1.00  0.00     0.034 A 
HETATM   15  C2  UNL     1      25.203   0.033  52.809  1.00  0.00     0.135 A 
HETATM   16  C1  UNL     1      26.515  -0.130  52.454  1.00  0.00     0.224 A 
HETATM   17  F1  UNL     1      25.813  -0.898  53.521  1.00  0.00    -0.388 F 
HETATM   18  C4  UNL     1      23.761   0.333  52.953  1.00  0.00     0.089 A 
BRANCH  18  19
HETATM   19  C5  UNL     1      23.214  -0.606  54.015  1.00  0.00     0.099 C 
HETATM   20 BR1  UNL     1      21.386  -0.173  54.403  1.00  0.00    -0.096 Br
ENDBRANCH  18  19
ENDBRANCH   1  14
TORSDOF 2
ENDMDL
MODEL 9
REMARK VINA RESULT:      -6.6      3.980      6.476
REMARK  2 active torsions:
REMARK  status: ('A' for Active; 'I' for Inactive)
REMARK    1  A    between atoms: C3_4  and  N1_8 
REMARK    2  A    between atoms: C4_5  and  C5_6 
ROOT
HETATM    1  N1  UNL     1      23.460   2.750  51.697  1.00  0.00    -0.366 N 
HETATM    2  C6  UNL     1      23.553   1.294  51.749  1.00  0.00     0.128 C 
HETATM    3  C7  UNL     1      23.120   0.716  53.075  1.00  0.00     0.054 C 
HETATM    4  C8  UNL     1      21.663   0.350  53.071  1.00  0.00    -0.070 C 
HETATM    5  C9  UNL     1      20.451   0.172  52.367  1.00  0.00    -0.034 C 
HETATM    6  C10 UNL     1      21.017   0.605  51.109  1.00  0.00     0.125 C 
HETATM    7  N2  UNL     1      21.073   1.638  50.462  1.00  0.00    -0.254 NA
HETATM    8  C11 UNL     1      20.662   2.940  50.522  1.00  0.00     0.228 C 
HETATM    9  N3  UNL     1      21.238   3.796  51.267  1.00  0.00    -0.263 NA
HETATM   10  C12 UNL     1      22.319   3.483  52.089  1.00  0.00     0.274 C 
HETATM   11  C13 UNL     1      19.745  -0.301  53.599  1.00  0.00     0.020 C 
HETATM   12  C14 UNL     1      19.868  -1.818  53.742  1.00  0.00     0.015 C 
HETATM   13  C15 UNL     1      20.756   0.468  54.272  1.00  0.00     0.043 C 
ENDROOT
BRANCH   1  14
HETATM   14  C3  UNL     1      24.678   3.053  51.107  1.00  0.00     0.034 A 
HETATM   15  C2  UNL     1      25.946   3.308  50.562  1.00  0.00     0.135 A 
HETATM   16  C1  UNL     1      25.895   4.050  49.413  1.00  0.00     0.224 A 
HETATM   17  F1  UNL     1      27.142   3.545  50.055  1.00  0.00    -0.388 F 
HETATM   18  C4  UNL     1      25.737   2.460  51.757  1.00  0.00     0.089 A 
BRANCH  18  19
HETATM   19  C5  UNL     1      27.106   1.976  52.203  1.00  0.00     0.099 C 
HETATM   20 BR1  UNL     1      27.064   0.085  52.531  1.00  0.00    -0.096 Br
ENDBRANCH  18  19
ENDBRANCH   1  14
TORSDOF 2
ENDMDL
