MODEL 1
REMARK VINA RESULT:      -8.8      0.000      0.000
REMARK  2 active torsions:
REMARK  status: ('A' for Active; 'I' for Inactive)
REMARK    1  A    between atoms: C8_8  and  C9_9 
REMARK    2  A    between atoms: N2_18  and  C16_19 
ROOT
HETATM    1  C1  UNL     1      27.363   4.394  48.950  1.00  0.00     0.048 C 
HETATM    2  C2  UNL     1      26.232   3.774  49.661  1.00  0.00    -0.061 A 
HETATM    3  C3  UNL     1      24.947   4.195  49.378  1.00  0.00     0.007 A 
HETATM    4  C4  UNL     1      23.906   3.573  50.083  1.00  0.00     0.015 A 
HETATM    5  C5  UNL     1      24.165   2.589  51.007  1.00  0.00     0.001 A 
HETATM    6  C6  UNL     1      25.385   2.131  51.331  1.00  0.00    -0.016 A 
HETATM    7  C7  UNL     1      26.367   2.780  50.610  1.00  0.00     0.019 A 
HETATM    8  C8  UNL     1      25.871   1.137  52.260  1.00  0.00    -0.033 C 
HETATM    9  C10 UNL     1      25.199   0.269  52.925  1.00  0.00     0.009 C 
HETATM   10  C11 UNL     1      24.151  -0.537  53.484  1.00  0.00    -0.001 C 
HETATM   11  C12 UNL     1      22.834  -0.585  53.327  1.00  0.00     0.001 C 
HETATM   12  C13 UNL     1      22.419   0.357  52.413  1.00  0.00     0.141 C 
HETATM   13  C14 UNL     1      22.751   1.769  52.942  1.00  0.00     0.093 C 
HETATM   14  C15 UNL     1      22.844   2.219  51.521  1.00  0.00     0.068 C 
HETATM   15  N1  UNL     1      21.572   2.047  51.329  1.00  0.00    -0.173 NA
HETATM   16  N2  UNL     1      21.175   0.779  51.913  1.00  0.00    -0.237 N 
ENDROOT
BRANCH  16  17
HETATM   17  C16 UNL     1      19.867   0.230  51.923  1.00  0.00     0.191 A 
HETATM   18  N3  UNL     1      19.073   0.372  51.071  1.00  0.00    -0.215 NA
HETATM   19  C17 UNL     1      17.852  -0.114  51.023  1.00  0.00     0.112 A 
HETATM   20 BR1  UNL     1      16.351  -0.091  49.847  1.00  0.00    -0.029 Br
HETATM   21  C18 UNL     1      17.399  -0.916  52.120  1.00  0.00     0.092 A 
HETATM   22  S1  UNL     1      18.949  -0.863  53.192  1.00  0.00    -0.059 SA
ENDBRANCH  16  17
BRANCH   8  23
HETATM   23  C9  UNL     1      27.350   1.056  52.584  1.00  0.00     0.154 C 
HETATM   24 CL1  UNL     1      27.758  -0.599  53.087  1.00  0.00    -0.126 Cl
ENDBRANCH   8  23
TORSDOF 2
ENDMDL
MODEL 2
REMARK VINA RESULT:      -8.7      2.043      2.604
REMARK  2 active torsions:
REMARK  status: ('A' for Active; 'I' for Inactive)
REMARK    1  A    between atoms: C8_8  and  C9_9 
REMARK    2  A    between atoms: N2_18  and  C16_19 
ROOT
HETATM    1  C1  UNL     1      25.653   3.341  49.872  1.00  0.00     0.048 C 
HETATM    2  C2  UNL     1      24.536   2.697  50.584  1.00  0.00    -0.061 A 
HETATM    3  C3  UNL     1      23.241   2.962  50.184  1.00  0.00     0.007 A 
HETATM    4  C4  UNL     1      22.215   2.323  50.896  1.00  0.00     0.015 A 
HETATM    5  C5  UNL     1      22.497   1.473  51.939  1.00  0.00     0.001 A 
HETATM    6  C6  UNL     1      23.729   1.171  52.380  1.00  0.00    -0.016 A 
HETATM    7  C7  UNL     1      24.696   1.828  51.646  1.00  0.00     0.019 A 
HETATM    8  C8  UNL     1      24.238   0.333  53.442  1.00  0.00    -0.033 C 
HETATM    9  C10 UNL     1      23.602  -0.517  54.162  1.00  0.00     0.009 C 
HETATM   10  C11 UNL     1      22.595  -1.354  54.750  1.00  0.00    -0.001 C 
HETATM   11  C12 UNL     1      21.300  -1.544  54.526  1.00  0.00     0.001 C 
HETATM   12  C13 UNL     1      20.865  -0.749  53.489  1.00  0.00     0.141 C 
HETATM   13  C14 UNL     1      21.036   0.737  53.872  1.00  0.00     0.093 C 
HETATM   14  C15 UNL     1      21.183   1.037  52.417  1.00  0.00     0.068 C 
HETATM   15  N1  UNL     1      19.946   0.726  52.174  1.00  0.00    -0.173 NA
HETATM   16  N2  UNL     1      19.624  -0.504  52.876  1.00  0.00    -0.237 N 
ENDROOT
BRANCH  16  17
HETATM   17  C16 UNL     1      18.373  -1.170  52.875  1.00  0.00     0.191 A 
HETATM   18  N3  UNL     1      18.192  -2.261  53.264  1.00  0.00    -0.215 NA
HETATM   19  C17 UNL     1      17.059  -2.927  53.292  1.00  0.00     0.112 A 
HETATM   20 BR1  UNL     1      16.422  -4.641  53.833  1.00  0.00    -0.029 Br
HETATM   21  C18 UNL     1      15.881  -2.278  52.798  1.00  0.00     0.092 A 
HETATM   22  S1  UNL     1      16.633  -0.622  52.304  1.00  0.00    -0.059 SA
ENDBRANCH  16  17
BRANCH   8  23
HETATM   23  C9  UNL     1      25.693   0.428  53.855  1.00  0.00     0.154 C 
HETATM   24 CL1  UNL     1      26.617  -0.880  53.085  1.00  0.00    -0.126 Cl
ENDBRANCH   8  23
TORSDOF 2
ENDMDL
MODEL 3
REMARK VINA RESULT:      -8.6      4.027      6.618
REMARK  2 active torsions:
REMARK  status: ('A' for Active; 'I' for Inactive)
REMARK    1  A    between atoms: C8_8  and  C9_9 
REMARK    2  A    between atoms: N2_18  and  C16_19 
ROOT
HETATM    1  C1  UNL     1      21.584  -1.644  54.944  1.00  0.00     0.048 C 
HETATM    2  C2  UNL     1      22.087  -0.578  54.061  1.00  0.00    -0.061 A 
HETATM    3  C3  UNL     1      21.226   0.425  53.659  1.00  0.00     0.007 A 
HETATM    4  C4  UNL     1      21.755   1.416  52.819  1.00  0.00     0.015 A 
HETATM    5  C5  UNL     1      23.071   1.381  52.423  1.00  0.00     0.001 A 
HETATM    6  C6  UNL     1      23.962   0.439  52.775  1.00  0.00    -0.016 A 
HETATM    7  C7  UNL     1      23.386  -0.508  53.598  1.00  0.00     0.019 A 
HETATM    8  C8  UNL     1      25.356   0.211  52.470  1.00  0.00    -0.033 C 
HETATM    9  C10 UNL     1      26.185   0.999  51.887  1.00  0.00     0.009 C 
HETATM   10  C11 UNL     1      26.804   2.110  51.225  1.00  0.00    -0.001 C 
HETATM   11  C12 UNL     1      26.388   3.312  50.843  1.00  0.00     0.001 C 
HETATM   12  C13 UNL     1      25.066   3.498  51.179  1.00  0.00     0.141 C 
HETATM   13  C14 UNL     1      24.194   2.467  50.429  1.00  0.00     0.093 C 
HETATM   14  C15 UNL     1      23.220   2.554  51.558  1.00  0.00     0.068 C 
HETATM   15  N1  UNL     1      22.906   3.778  51.262  1.00  0.00    -0.173 NA
HETATM   16  N2  UNL     1      24.122   4.520  50.981  1.00  0.00    -0.237 N 
ENDROOT
BRANCH  16  17
HETATM   17  C16 UNL     1      24.207   5.886  50.611  1.00  0.00     0.191 A 
HETATM   18  N3  UNL     1      25.204   6.498  50.524  1.00  0.00    -0.215 NA
HETATM   19  C17 UNL     1      25.345   7.760  50.183  1.00  0.00     0.112 A 
HETATM   20 BR1  UNL     1      26.750   9.027  49.945  1.00  0.00    -0.029 Br
HETATM   21  C18 UNL     1      24.166   8.512  49.872  1.00  0.00     0.092 A 
HETATM   22  S1  UNL     1      22.872   7.169  50.139  1.00  0.00    -0.059 SA
ENDBRANCH  16  17
BRANCH   8  23
HETATM   23  C9  UNL     1      26.003  -1.116  52.812  1.00  0.00     0.154 C 
HETATM   24 CL1  UNL     1      27.748  -0.883  53.053  1.00  0.00    -0.126 Cl
ENDBRANCH   8  23
TORSDOF 2
ENDMDL
MODEL 4
REMARK VINA RESULT:      -8.5      3.559      6.014
REMARK  2 active torsions:
REMARK  status: ('A' for Active; 'I' for Inactive)
REMARK    1  A    between atoms: C8_8  and  C9_9 
REMARK    2  A    between atoms: N2_18  and  C16_19 
ROOT
HETATM    1  C1  UNL     1      22.586  -1.840  55.326  1.00  0.00     0.048 C 
HETATM    2  C2  UNL     1      22.774  -0.746  54.359  1.00  0.00    -0.061 A 
HETATM    3  C3  UNL     1      21.703   0.070  54.049  1.00  0.00     0.007 A 
HETATM    4  C4  UNL     1      21.936   1.097  53.122  1.00  0.00     0.015 A 
HETATM    5  C5  UNL     1      23.177   1.274  52.557  1.00  0.00     0.001 A 
HETATM    6  C6  UNL     1      24.259   0.522  52.812  1.00  0.00    -0.016 A 
HETATM    7  C7  UNL     1      23.971  -0.471  53.726  1.00  0.00     0.019 A 
HETATM    8  C8  UNL     1      25.622   0.527  52.331  1.00  0.00    -0.033 C 
HETATM    9  C10 UNL     1      26.216   1.419  51.625  1.00  0.00     0.009 C 
HETATM   10  C11 UNL     1      26.537   2.589  50.859  1.00  0.00    -0.001 C 
HETATM   11  C12 UNL     1      25.867   3.680  50.507  1.00  0.00     0.001 C 
HETATM   12  C13 UNL     1      24.585   3.646  51.009  1.00  0.00     0.141 C 
HETATM   13  C14 UNL     1      23.827   2.445  50.407  1.00  0.00     0.093 C 
HETATM   14  C15 UNL     1      23.002   2.413  51.651  1.00  0.00     0.068 C 
HETATM   15  N1  UNL     1      22.439   3.547  51.369  1.00  0.00    -0.173 NA
HETATM   16  N2  UNL     1      23.456   4.477  50.912  1.00  0.00    -0.237 N 
ENDROOT
BRANCH  16  17
HETATM   17  C16 UNL     1      23.247   5.817  50.500  1.00  0.00     0.191 A 
HETATM   18  N3  UNL     1      22.196   6.323  50.368  1.00  0.00    -0.215 NA
HETATM   19  C17 UNL     1      21.940   7.558  49.994  1.00  0.00     0.112 A 
HETATM   20 BR1  UNL     1      20.424   8.672  49.688  1.00  0.00    -0.029 Br
HETATM   21  C18 UNL     1      23.047   8.420  49.705  1.00  0.00     0.092 A 
HETATM   22  S1  UNL     1      24.461   7.219  50.042  1.00  0.00    -0.059 SA
ENDBRANCH  16  17
BRANCH   8  23
HETATM   23  C9  UNL     1      26.535  -0.649  52.618  1.00  0.00     0.154 C 
HETATM   24 CL1  UNL     1      28.119  -0.053  53.157  1.00  0.00    -0.126 Cl
ENDBRANCH   8  23
TORSDOF 2
ENDMDL
MODEL 5
REMARK VINA RESULT:      -8.4      4.500      7.456
REMARK  2 active torsions:
REMARK  status: ('A' for Active; 'I' for Inactive)
REMARK    1  A    between atoms: C8_8  and  C9_9 
REMARK    2  A    between atoms: N2_18  and  C16_19 
ROOT
HETATM    1  C1  UNL     1      17.889  -0.652  52.203  1.00  0.00     0.048 C 
HETATM    2  C2  UNL     1      19.266  -0.150  52.335  1.00  0.00    -0.061 A 
HETATM    3  C3  UNL     1      20.024  -0.542  53.421  1.00  0.00     0.007 A 
HETATM    4  C4  UNL     1      21.330  -0.035  53.500  1.00  0.00     0.015 A 
HETATM    5  C5  UNL     1      21.821   0.811  52.534  1.00  0.00     0.001 A 
HETATM    6  C6  UNL     1      21.143   1.232  51.454  1.00  0.00    -0.016 A 
HETATM    7  C7  UNL     1      19.867   0.704  51.431  1.00  0.00     0.019 A 
HETATM    8  C8  UNL     1      21.457   2.108  50.350  1.00  0.00    -0.033 C 
HETATM    9  C10 UNL     1      22.596   2.596  50.017  1.00  0.00     0.009 C 
HETATM   10  C11 UNL     1      23.988   2.941  49.951  1.00  0.00    -0.001 C 
HETATM   11  C12 UNL     1      25.058   2.621  50.670  1.00  0.00     0.001 C 
HETATM   12  C13 UNL     1      24.718   1.763  51.692  1.00  0.00     0.141 C 
HETATM   13  C14 UNL     1      23.733   2.468  52.650  1.00  0.00     0.093 C 
HETATM   14  C15 UNL     1      23.181   1.121  52.983  1.00  0.00     0.068 C 
HETATM   15  N1  UNL     1      24.278   0.760  53.575  1.00  0.00    -0.173 NA
HETATM   16  N2  UNL     1      25.408   1.162  52.758  1.00  0.00    -0.237 N 
ENDROOT
BRANCH  16  17
HETATM   17  C16 UNL     1      26.779   0.958  53.059  1.00  0.00     0.191 A 
HETATM   18  N3  UNL     1      27.311  -0.087  53.090  1.00  0.00    -0.215 NA
HETATM   19  C17 UNL     1      28.574  -0.337  53.358  1.00  0.00     0.112 A 
HETATM   20 BR1  UNL     1      29.735  -1.844  53.490  1.00  0.00    -0.029 Br
HETATM   21  C18 UNL     1      29.435   0.770  53.651  1.00  0.00     0.092 A 
HETATM   22  S1  UNL     1      28.188   2.174  53.489  1.00  0.00    -0.059 SA
ENDBRANCH  16  17
BRANCH   8  23
HETATM   23  C9  UNL     1      20.356   2.599  49.430  1.00  0.00     0.154 C 
HETATM   24 CL1  UNL     1      20.944   2.610  47.753  1.00  0.00    -0.126 Cl
ENDBRANCH   8  23
TORSDOF 2
ENDMDL
MODEL 6
REMARK VINA RESULT:      -8.4      4.076      5.604
REMARK  2 active torsions:
REMARK  status: ('A' for Active; 'I' for Inactive)
REMARK    1  A    between atoms: C8_8  and  C9_9 
REMARK    2  A    between atoms: N2_18  and  C16_19 
ROOT
HETATM    1  C1  UNL     1      28.491   7.549  47.544  1.00  0.00     0.048 C 
HETATM    2  C2  UNL     1      27.664   6.569  48.268  1.00  0.00    -0.061 A 
HETATM    3  C3  UNL     1      28.080   5.254  48.331  1.00  0.00     0.007 A 
HETATM    4  C4  UNL     1      27.256   4.361  49.033  1.00  0.00     0.015 A 
HETATM    5  C5  UNL     1      26.093   4.788  49.628  1.00  0.00     0.001 A 
HETATM    6  C6  UNL     1      25.630   6.049  49.609  1.00  0.00    -0.016 A 
HETATM    7  C7  UNL     1      26.478   6.879  48.904  1.00  0.00     0.019 A 
HETATM    8  C8  UNL     1      24.455   6.695  50.147  1.00  0.00    -0.033 C 
HETATM    9  C10 UNL     1      23.595   6.227  50.976  1.00  0.00     0.009 C 
HETATM   10  C11 UNL     1      22.861   5.394  51.885  1.00  0.00    -0.001 C 
HETATM   11  C12 UNL     1      23.029   4.165  52.358  1.00  0.00     0.001 C 
HETATM   12  C13 UNL     1      24.174   3.598  51.843  1.00  0.00     0.141 C 
HETATM   13  C14 UNL     1      24.041   3.470  50.310  1.00  0.00     0.093 C 
HETATM   14  C15 UNL     1      25.528   3.577  50.229  1.00  0.00     0.068 C 
HETATM   15  N1  UNL     1      25.695   2.429  50.810  1.00  0.00    -0.173 NA
HETATM   16  N2  UNL     1      24.797   2.343  51.948  1.00  0.00    -0.237 N 
ENDROOT
BRANCH  16  17
HETATM   17  C16 UNL     1      24.668   1.246  52.837  1.00  0.00     0.191 A 
HETATM   18  N3  UNL     1      23.661   0.699  53.087  1.00  0.00    -0.215 NA
HETATM   19  C17 UNL     1      23.480  -0.321  53.896  1.00  0.00     0.112 A 
HETATM   20 BR1  UNL     1      22.048  -1.418  54.515  1.00  0.00    -0.029 Br
HETATM   21  C18 UNL     1      24.624  -0.860  54.570  1.00  0.00     0.092 A 
HETATM   22  S1  UNL     1      25.949   0.290  53.884  1.00  0.00    -0.059 SA
ENDBRANCH  16  17
BRANCH   8  23
HETATM   23  C9  UNL     1      24.088   8.098  49.703  1.00  0.00     0.154 C 
HETATM   24 CL1  UNL     1      22.453   8.092  49.007  1.00  0.00    -0.126 Cl
ENDBRANCH   8  23
TORSDOF 2
ENDMDL
MODEL 7
REMARK VINA RESULT:      -8.3      3.720      5.278
REMARK  2 active torsions:
REMARK  status: ('A' for Active; 'I' for Inactive)
REMARK    1  A    between atoms: C8_8  and  C9_9 
REMARK    2  A    between atoms: N2_18  and  C16_19 
ROOT
HETATM    1  C1  UNL     1      29.073  -0.143  54.591  1.00  0.00     0.048 C 
HETATM    2  C2  UNL     1      27.970   0.508  53.865  1.00  0.00    -0.061 A 
HETATM    3  C3  UNL     1      28.243   1.604  53.071  1.00  0.00     0.007 A 
HETATM    4  C4  UNL     1      27.157   2.187  52.400  1.00  0.00     0.015 A 
HETATM    5  C5  UNL     1      25.886   1.680  52.534  1.00  0.00     0.001 A 
HETATM    6  C6  UNL     1      25.550   0.619  53.285  1.00  0.00    -0.016 A 
HETATM    7  C7  UNL     1      26.655   0.090  53.922  1.00  0.00     0.019 A 
HETATM    8  C8  UNL     1      24.305  -0.056  53.569  1.00  0.00    -0.033 C 
HETATM    9  C10 UNL     1      23.165   0.097  52.999  1.00  0.00     0.009 C 
HETATM   10  C11 UNL     1      22.088   0.526  52.154  1.00  0.00    -0.001 C 
HETATM   11  C12 UNL     1      21.982   1.394  51.154  1.00  0.00     0.001 C 
HETATM   12  C13 UNL     1      23.196   1.991  50.899  1.00  0.00     0.141 C 
HETATM   13  C14 UNL     1      23.646   2.794  52.139  1.00  0.00     0.093 C 
HETATM   14  C15 UNL     1      25.057   2.561  51.708  1.00  0.00     0.068 C 
HETATM   15  N1  UNL     1      24.914   3.310  50.657  1.00  0.00    -0.173 NA
HETATM   16  N2  UNL     1      23.648   2.991  50.021  1.00  0.00    -0.237 N 
ENDROOT
BRANCH  16  17
HETATM   17  C16 UNL     1      23.119   3.594  48.852  1.00  0.00     0.191 A 
HETATM   18  N3  UNL     1      23.270   4.717  48.549  1.00  0.00    -0.215 NA
HETATM   19  C17 UNL     1      22.809   5.329  47.480  1.00  0.00     0.112 A 
HETATM   20 BR1  UNL     1      22.856   7.067  46.698  1.00  0.00    -0.029 Br
HETATM   21  C18 UNL     1      22.027   4.570  46.550  1.00  0.00     0.092 A 
HETATM   22  S1  UNL     1      22.057   2.900  47.424  1.00  0.00    -0.059 SA
ENDBRANCH  16  17
BRANCH   8  23
HETATM   23  C9  UNL     1      24.227  -1.069  54.695  1.00  0.00     0.154 C 
HETATM   24 CL1  UNL     1      22.542  -1.231  55.233  1.00  0.00    -0.126 Cl
ENDBRANCH   8  23
TORSDOF 2
ENDMDL
MODEL 8
REMARK VINA RESULT:      -8.2      3.763      5.359
REMARK  2 active torsions:
REMARK  status: ('A' for Active; 'I' for Inactive)
REMARK    1  A    between atoms: C8_8  and  C9_9 
REMARK    2  A    between atoms: N2_18  and  C16_19 
ROOT
HETATM    1  C1  UNL     1      27.269  -1.738  52.865  1.00  0.00     0.048 C 
HETATM    2  C2  UNL     1      26.359  -0.610  52.605  1.00  0.00    -0.061 A 
HETATM    3  C3  UNL     1      26.820   0.474  51.884  1.00  0.00     0.007 A 
HETATM    4  C4  UNL     1      25.913   1.522  51.664  1.00  0.00     0.015 A 
HETATM    5  C5  UNL     1      24.627   1.459  52.146  1.00  0.00     0.001 A 
HETATM    6  C6  UNL     1      24.112   0.438  52.851  1.00  0.00    -0.016 A 
HETATM    7  C7  UNL     1      25.048  -0.559  53.038  1.00  0.00     0.019 A 
HETATM    8  C8  UNL     1      22.822   0.180  53.448  1.00  0.00    -0.033 C 
HETATM    9  C10 UNL     1      21.727   0.831  53.295  1.00  0.00     0.009 C 
HETATM   10  C11 UNL     1      20.722   1.772  52.891  1.00  0.00    -0.001 C 
HETATM   11  C12 UNL     1      20.707   2.820  52.076  1.00  0.00     0.001 C 
HETATM   12  C13 UNL     1      21.946   3.011  51.507  1.00  0.00     0.141 C 
HETATM   13  C14 UNL     1      22.978   3.324  52.612  1.00  0.00     0.093 C 
HETATM   14  C15 UNL     1      24.022   2.726  51.728  1.00  0.00     0.068 C 
HETATM   15  N1  UNL     1      23.915   3.688  50.864  1.00  0.00    -0.173 NA
HETATM   16  N2  UNL     1      22.507   3.964  50.640  1.00  0.00    -0.237 N 
ENDROOT
BRANCH  16  17
HETATM   17  C16 UNL     1      21.971   4.950  49.773  1.00  0.00     0.191 A 
HETATM   18  N3  UNL     1      21.326   5.867  50.116  1.00  0.00    -0.215 NA
HETATM   19  C17 UNL     1      20.807   6.811  49.363  1.00  0.00     0.112 A 
HETATM   20 BR1  UNL     1      19.752   8.386  49.570  1.00  0.00    -0.029 Br
HETATM   21  C18 UNL     1      21.033   6.749  47.949  1.00  0.00     0.092 A 
HETATM   22  S1  UNL     1      22.070   5.177  47.878  1.00  0.00    -0.059 SA
ENDBRANCH  16  17
BRANCH   8  23
HETATM   23  C9  UNL     1      22.652  -0.965  54.427  1.00  0.00     0.154 C 
HETATM   24 CL1  UNL     1      20.986  -1.577  54.341  1.00  0.00    -0.126 Cl
ENDBRANCH   8  23
TORSDOF 2
ENDMDL
MODEL 9
REMARK VINA RESULT:      -8.1      5.153      6.896
REMARK  2 active torsions:
REMARK  status: ('A' for Active; 'I' for Inactive)
REMARK    1  A    between atoms: C8_8  and  C9_9 
REMARK    2  A    between atoms: N2_18  and  C16_19 
ROOT
HETATM    1  C1  UNL     1      26.394   8.845  46.925  1.00  0.00     0.048 C 
HETATM    2  C2  UNL     1      26.298   7.574  47.663  1.00  0.00    -0.061 A 
HETATM    3  C3  UNL     1      27.454   6.885  47.970  1.00  0.00     0.007 A 
HETATM    4  C4  UNL     1      27.307   5.680  48.673  1.00  0.00     0.015 A 
HETATM    5  C5  UNL     1      26.064   5.219  49.037  1.00  0.00     0.001 A 
HETATM    6  C6  UNL     1      24.901   5.836  48.774  1.00  0.00    -0.016 A 
HETATM    7  C7  UNL     1      25.107   7.011  48.079  1.00  0.00     0.019 A 
HETATM    8  C8  UNL     1      23.516   5.527  49.047  1.00  0.00    -0.033 C 
HETATM    9  C10 UNL     1      23.037   4.612  49.809  1.00  0.00     0.009 C 
HETATM   10  C11 UNL     1      22.875   3.516  50.720  1.00  0.00    -0.001 C 
HETATM   11  C12 UNL     1      23.714   2.729  51.383  1.00  0.00     0.001 C 
HETATM   12  C13 UNL     1      25.019   3.076  51.117  1.00  0.00     0.141 C 
HETATM   13  C14 UNL     1      25.311   2.870  49.614  1.00  0.00     0.093 C 
HETATM   14  C15 UNL     1      26.335   3.952  49.723  1.00  0.00     0.068 C 
HETATM   15  N1  UNL     1      27.098   3.226  50.480  1.00  0.00    -0.173 NA
HETATM   16  N2  UNL     1      26.279   2.573  51.485  1.00  0.00    -0.237 N 
ENDROOT
BRANCH  16  17
HETATM   17  C16 UNL     1      26.733   1.688  52.496  1.00  0.00     0.191 A 
HETATM   18  N3  UNL     1      27.761   1.124  52.481  1.00  0.00    -0.215 NA
HETATM   19  C17 UNL     1      28.237   0.298  53.387  1.00  0.00     0.112 A 
HETATM   20 BR1  UNL     1      29.800  -0.753  53.682  1.00  0.00    -0.029 Br
HETATM   21  C18 UNL     1      27.436   0.030  54.545  1.00  0.00     0.092 A 
HETATM   22  S1  UNL     1      25.947   1.111  54.138  1.00  0.00    -0.059 SA
ENDBRANCH  16  17
BRANCH   8  23
HETATM   23  C9  UNL     1      22.412   6.308  48.361  1.00  0.00     0.154 C 
HETATM   24 CL1  UNL     1      22.099   5.610  46.757  1.00  0.00    -0.126 Cl
ENDBRANCH   8  23
TORSDOF 2
ENDMDL
