MODEL 1
REMARK VINA RESULT:      -7.9      0.000      0.000
REMARK  2 active torsions:
REMARK  status: ('A' for Active; 'I' for Inactive)
REMARK    1  A    between atoms: O1_2  and  C2_3 
REMARK    2  A    between atoms: C11_15  and  O3_16 
ROOT
HETATM    1  C2  UNL     1      20.718  -0.736  53.657  1.00  0.00     0.048 C 
HETATM    2  C3  UNL     1      21.587  -1.303  54.468  1.00  0.00     0.010 C 
HETATM    3  C4  UNL     1      22.968  -0.857  54.680  1.00  0.00     0.071 C 
HETATM    4  C5  UNL     1      23.448   0.128  53.676  1.00  0.00    -0.012 C 
HETATM    5  C6  UNL     1      22.520   0.828  52.968  1.00  0.00     0.068 C 
HETATM    6  O2  UNL     1      22.715   1.924  52.273  1.00  0.00    -0.307 OA
HETATM    7  C7  UNL     1      23.273   3.015  52.745  1.00  0.00     0.259 C 
HETATM    8  N1  UNL     1      24.510   3.324  52.260  1.00  0.00    -0.230 NA
HETATM    9  C8  UNL     1      25.058   2.647  51.207  1.00  0.00     0.235 C 
HETATM   10  N2  UNL     1      24.829   1.309  51.365  1.00  0.00    -0.241 NA
HETATM   11  C9  UNL     1      25.410   0.797  52.467  1.00  0.00     0.071 A 
HETATM   12  C10 UNL     1      26.788   0.883  52.409  1.00  0.00     0.069 A 
HETATM   13  C11 UNL     1      27.609   0.415  53.440  1.00  0.00     0.070 A 
HETATM   14  C13 UNL     1      27.014  -0.143  54.537  1.00  0.00     0.038 A 
HETATM   15  C14 UNL     1      25.640  -0.206  54.550  1.00  0.00     0.017 A 
HETATM   16  C15 UNL     1      24.801   0.245  53.550  1.00  0.00     0.002 A 
HETATM   17  C16 UNL     1      21.115   0.434  52.883  1.00  0.00     0.130 C 
ENDROOT
BRANCH   1  18
HETATM   18  O1  UNL     1      19.408  -1.158  53.455  1.00  0.00    -0.360 OA
HETATM   19  C1  UNL     1      18.495  -0.517  52.598  1.00  0.00     0.209 C 
ENDBRANCH   1  18
BRANCH  13  20
HETATM   20  O3  UNL     1      28.998   0.499  53.386  1.00  0.00    -0.356 OA
HETATM   21  C12 UNL     1      29.805  -0.613  53.672  1.00  0.00     0.210 C 
ENDBRANCH  13  20
TORSDOF 2
ENDMDL
MODEL 2
REMARK VINA RESULT:      -7.8      2.026      6.000
REMARK  2 active torsions:
REMARK  status: ('A' for Active; 'I' for Inactive)
REMARK    1  A    between atoms: O1_2  and  C2_3 
REMARK    2  A    between atoms: C11_15  and  O3_16 
ROOT
HETATM    1  C2  UNL     1      27.218  -0.273  53.720  1.00  0.00     0.048 C 
HETATM    2  C3  UNL     1      27.337   1.032  53.844  1.00  0.00     0.010 C 
HETATM    3  C4  UNL     1      26.232   1.995  53.797  1.00  0.00     0.071 C 
HETATM    4  C5  UNL     1      24.955   1.429  53.291  1.00  0.00    -0.012 C 
HETATM    5  C6  UNL     1      24.789   0.079  53.333  1.00  0.00     0.068 C 
HETATM    6  O2  UNL     1      23.662  -0.586  53.222  1.00  0.00    -0.307 OA
HETATM    7  C7  UNL     1      22.595  -0.367  53.954  1.00  0.00     0.259 C 
HETATM    8  N1  UNL     1      21.521   0.181  53.314  1.00  0.00    -0.230 NA
HETATM    9  C8  UNL     1      21.488   0.317  51.956  1.00  0.00     0.235 C 
HETATM   10  N2  UNL     1      22.701   0.774  51.521  1.00  0.00    -0.241 NA
HETATM   11  C9  UNL     1      23.012   1.994  52.000  1.00  0.00     0.071 A 
HETATM   12  C10 UNL     1      22.128   2.960  51.560  1.00  0.00     0.069 A 
HETATM   13  C11 UNL     1      22.248   4.305  51.927  1.00  0.00     0.070 A 
HETATM   14  C13 UNL     1      23.281   4.660  52.750  1.00  0.00     0.038 A 
HETATM   15  C14 UNL     1      24.135   3.662  53.162  1.00  0.00     0.017 A 
HETATM   16  C15 UNL     1      24.045   2.328  52.818  1.00  0.00     0.002 A 
HETATM   17  C16 UNL     1      25.897  -0.858  53.517  1.00  0.00     0.130 C 
ENDROOT
BRANCH   1  18
HETATM   18  O1  UNL     1      28.264  -1.187  53.765  1.00  0.00    -0.360 OA
HETATM   19  C1  UNL     1      29.625  -0.836  53.701  1.00  0.00     0.209 C 
ENDBRANCH   1  18
BRANCH  13  20
HETATM   20  O3  UNL     1      21.360   5.282  51.487  1.00  0.00    -0.356 OA
HETATM   21  C12 UNL     1      21.821   6.488  50.939  1.00  0.00     0.210 C 
ENDBRANCH  13  20
TORSDOF 2
ENDMDL
MODEL 3
REMARK VINA RESULT:      -7.7      2.004      6.010
REMARK  2 active torsions:
REMARK  status: ('A' for Active; 'I' for Inactive)
REMARK    1  A    between atoms: O1_2  and  C2_3 
REMARK    2  A    between atoms: C11_15  and  O3_16 
ROOT
HETATM    1  C2  UNL     1      26.382  -0.045  54.004  1.00  0.00     0.048 C 
HETATM    2  C3  UNL     1      25.201  -0.616  54.117  1.00  0.00     0.010 C 
HETATM    3  C4  UNL     1      23.967  -0.153  53.471  1.00  0.00     0.071 C 
HETATM    4  C5  UNL     1      24.060   1.214  52.895  1.00  0.00    -0.012 C 
HETATM    5  C6  UNL     1      25.296   1.716  52.627  1.00  0.00     0.068 C 
HETATM    6  O2  UNL     1      25.586   2.744  51.865  1.00  0.00    -0.307 OA
HETATM    7  C7  UNL     1      25.189   2.883  50.621  1.00  0.00     0.259 C 
HETATM    8  N1  UNL     1      24.265   3.858  50.383  1.00  0.00    -0.230 NA
HETATM    9  C8  UNL     1      23.914   4.764  51.343  1.00  0.00     0.235 C 
HETATM   10  N2  UNL     1      23.760   4.116  52.537  1.00  0.00    -0.241 NA
HETATM   11  C9  UNL     1      22.770   3.203  52.521  1.00  0.00     0.071 A 
HETATM   12  C10 UNL     1      21.536   3.786  52.310  1.00  0.00     0.069 A 
HETATM   13  C11 UNL     1      20.356   3.037  52.254  1.00  0.00     0.070 A 
HETATM   14  C13 UNL     1      20.443   1.681  52.415  1.00  0.00     0.038 A 
HETATM   15  C14 UNL     1      21.694   1.147  52.622  1.00  0.00     0.017 A 
HETATM   16  C15 UNL     1      22.876   1.857  52.684  1.00  0.00     0.002 A 
HETATM   17  C16 UNL     1      26.526   1.150  53.179  1.00  0.00     0.130 C 
ENDROOT
BRANCH   1  18
HETATM   18  O1  UNL     1      27.552  -0.482  54.615  1.00  0.00    -0.360 OA
HETATM   19  C1  UNL     1      28.723   0.289  54.723  1.00  0.00     0.209 C 
ENDBRANCH   1  18
BRANCH  13  20
HETATM   20  O3  UNL     1      19.109   3.619  52.041  1.00  0.00    -0.356 OA
HETATM   21  C12 UNL     1      18.056   2.891  51.468  1.00  0.00     0.210 C 
ENDBRANCH  13  20
TORSDOF 2
ENDMDL
MODEL 4
REMARK VINA RESULT:      -7.5      1.579      6.028
REMARK  2 active torsions:
REMARK  status: ('A' for Active; 'I' for Inactive)
REMARK    1  A    between atoms: O1_2  and  C2_3 
REMARK    2  A    between atoms: C11_15  and  O3_16 
ROOT
HETATM    1  C2  UNL     1      26.677   1.397  53.864  1.00  0.00     0.048 C 
HETATM    2  C3  UNL     1      26.181   0.294  54.385  1.00  0.00     0.010 C 
HETATM    3  C4  UNL     1      24.883  -0.298  54.045  1.00  0.00     0.071 C 
HETATM    4  C5  UNL     1      23.991   0.600  53.266  1.00  0.00    -0.012 C 
HETATM    5  C6  UNL     1      24.556   1.639  52.592  1.00  0.00     0.068 C 
HETATM    6  O2  UNL     1      24.013   2.350  51.632  1.00  0.00    -0.307 OA
HETATM    7  C7  UNL     1      23.484   1.846  50.541  1.00  0.00     0.259 C 
HETATM    8  N1  UNL     1      22.128   1.940  50.424  1.00  0.00    -0.230 NA
HETATM    9  C8  UNL     1      21.382   2.683  51.295  1.00  0.00     0.235 C 
HETATM   10  N2  UNL     1      21.827   2.462  52.568  1.00  0.00    -0.241 NA
HETATM   11  C9  UNL     1      21.683   1.183  52.967  1.00  0.00     0.071 A 
HETATM   12  C10 UNL     1      20.355   0.808  53.021  1.00  0.00     0.069 A 
HETATM   13  C11 UNL     1      19.957  -0.476  53.409  1.00  0.00     0.070 A 
HETATM   14  C13 UNL     1      20.928  -1.380  53.743  1.00  0.00     0.038 A 
HETATM   15  C14 UNL     1      22.236  -0.959  53.673  1.00  0.00     0.017 A 
HETATM   16  C15 UNL     1      22.662   0.299  53.296  1.00  0.00     0.002 A 
HETATM   17  C16 UNL     1      25.909   2.125  52.860  1.00  0.00     0.130 C 
ENDROOT
BRANCH   1  18
HETATM   18  O1  UNL     1      27.907   1.960  54.185  1.00  0.00    -0.360 OA
HETATM   19  C1  UNL     1      29.108   1.234  54.281  1.00  0.00     0.209 C 
ENDBRANCH   1  18
BRANCH  13  20
HETATM   20  O3  UNL     1      18.621  -0.861  53.464  1.00  0.00    -0.356 OA
HETATM   21  C12 UNL     1      18.258  -2.197  53.690  1.00  0.00     0.210 C 
ENDBRANCH  13  20
TORSDOF 2
ENDMDL
MODEL 5
REMARK VINA RESULT:      -7.5      2.263      6.480
REMARK  2 active torsions:
REMARK  status: ('A' for Active; 'I' for Inactive)
REMARK    1  A    between atoms: O1_2  and  C2_3 
REMARK    2  A    between atoms: C11_15  and  O3_16 
ROOT
HETATM    1  C2  UNL     1      27.136  -0.016  53.014  1.00  0.00     0.048 C 
HETATM    2  C3  UNL     1      26.724   1.147  52.555  1.00  0.00     0.010 C 
HETATM    3  C4  UNL     1      25.360   1.673  52.674  1.00  0.00     0.071 C 
HETATM    4  C5  UNL     1      24.355   0.664  53.098  1.00  0.00    -0.012 C 
HETATM    5  C6  UNL     1      24.797  -0.458  53.728  1.00  0.00     0.068 C 
HETATM    6  O2  UNL     1      24.084  -1.307  54.431  1.00  0.00    -0.307 OA
HETATM    7  C7  UNL     1      23.306  -0.972  55.434  1.00  0.00     0.259 C 
HETATM    8  N1  UNL     1      21.962  -1.093  55.228  1.00  0.00    -0.230 NA
HETATM    9  C8  UNL     1      21.459  -1.705  54.116  1.00  0.00     0.235 C 
HETATM   10  N2  UNL     1      22.166  -1.296  53.020  1.00  0.00    -0.241 NA
HETATM   11  C9  UNL     1      22.063   0.026  52.784  1.00  0.00     0.071 A 
HETATM   12  C10 UNL     1      20.766   0.395  52.486  1.00  0.00     0.069 A 
HETATM   13  C11 UNL     1      20.413   1.719  52.203  1.00  0.00     0.070 A 
HETATM   14  C13 UNL     1      21.396   2.670  52.228  1.00  0.00     0.038 A 
HETATM   15  C14 UNL     1      22.672   2.253  52.530  1.00  0.00     0.017 A 
HETATM   16  C15 UNL     1      23.054   0.957  52.812  1.00  0.00     0.002 A 
HETATM   17  C16 UNL     1      26.194  -0.890  53.706  1.00  0.00     0.130 C 
ENDROOT
BRANCH   1  18
HETATM   18  O1  UNL     1      28.428  -0.517  52.902  1.00  0.00    -0.360 OA
HETATM   19  C1  UNL     1      29.394  -0.447  53.922  1.00  0.00     0.209 C 
ENDBRANCH   1  18
BRANCH  13  20
HETATM   20  O3  UNL     1      19.107   2.098  51.903  1.00  0.00    -0.356 OA
HETATM   21  C12 UNL     1      18.793   3.425  51.574  1.00  0.00     0.210 C 
ENDBRANCH  13  20
TORSDOF 2
ENDMDL
MODEL 6
REMARK VINA RESULT:      -7.3      2.795      5.739
REMARK  2 active torsions:
REMARK  status: ('A' for Active; 'I' for Inactive)
REMARK    1  A    between atoms: O1_2  and  C2_3 
REMARK    2  A    between atoms: C11_15  and  O3_16 
ROOT
HETATM    1  C2  UNL     1      25.538   5.229  48.962  1.00  0.00     0.048 C 
HETATM    2  C3  UNL     1      26.611   4.539  49.285  1.00  0.00     0.010 C 
HETATM    3  C4  UNL     1      26.613   3.236  49.960  1.00  0.00     0.071 C 
HETATM    4  C5  UNL     1      25.301   2.853  50.544  1.00  0.00    -0.012 C 
HETATM    5  C6  UNL     1      24.182   3.465  50.068  1.00  0.00     0.068 C 
HETATM    6  O2  UNL     1      22.939   3.075  50.224  1.00  0.00    -0.307 OA
HETATM    7  C7  UNL     1      22.491   1.878  49.923  1.00  0.00     0.259 C 
HETATM    8  N1  UNL     1      22.135   1.081  50.972  1.00  0.00    -0.230 NA
HETATM    9  C8  UNL     1      22.066   1.563  52.248  1.00  0.00     0.235 C 
HETATM   10  N2  UNL     1      23.149   2.362  52.486  1.00  0.00    -0.241 NA
HETATM   11  C9  UNL     1      24.322   1.705  52.410  1.00  0.00     0.071 A 
HETATM   12  C10 UNL     1      24.426   0.726  53.379  1.00  0.00     0.069 A 
HETATM   13  C11 UNL     1      25.557  -0.090  53.499  1.00  0.00     0.070 A 
HETATM   14  C13 UNL     1      26.586   0.100  52.618  1.00  0.00     0.038 A 
HETATM   15  C14 UNL     1      26.435   1.086  51.670  1.00  0.00     0.017 A 
HETATM   16  C15 UNL     1      25.336   1.908  51.526  1.00  0.00     0.002 A 
HETATM   17  C16 UNL     1      24.218   4.696  49.280  1.00  0.00     0.130 C 
ENDROOT
BRANCH   1  18
HETATM   18  O1  UNL     1      25.534   6.464  48.324  1.00  0.00    -0.360 OA
HETATM   19  C1  UNL     1      26.675   7.269  48.154  1.00  0.00     0.209 C 
ENDBRANCH   1  18
BRANCH  13  20
HETATM   20  O3  UNL     1      25.667  -1.078  54.473  1.00  0.00    -0.356 OA
HETATM   21  C12 UNL     1      24.700  -1.216  55.480  1.00  0.00     0.210 C 
ENDBRANCH  13  20
TORSDOF 2
ENDMDL
MODEL 7
REMARK VINA RESULT:      -7.2      2.545      6.089
REMARK  2 active torsions:
REMARK  status: ('A' for Active; 'I' for Inactive)
REMARK    1  A    between atoms: O1_2  and  C2_3 
REMARK    2  A    between atoms: C11_15  and  O3_16 
ROOT
HETATM    1  C2  UNL     1      26.039   4.599  49.446  1.00  0.00     0.048 C 
HETATM    2  C3  UNL     1      24.768   4.567  49.790  1.00  0.00     0.010 C 
HETATM    3  C4  UNL     1      24.203   3.765  50.880  1.00  0.00     0.071 C 
HETATM    4  C5  UNL     1      25.124   2.726  51.411  1.00  0.00    -0.012 C 
HETATM    5  C6  UNL     1      26.458   2.875  51.185  1.00  0.00     0.068 C 
HETATM    6  O2  UNL     1      27.440   2.259  51.801  1.00  0.00    -0.307 OA
HETATM    7  C7  UNL     1      27.598   2.227  53.104  1.00  0.00     0.259 C 
HETATM    8  N1  UNL     1      27.393   1.023  53.712  1.00  0.00    -0.230 NA
HETATM    9  C8  UNL     1      27.222  -0.125  52.992  1.00  0.00     0.235 C 
HETATM   10  N2  UNL     1      26.389   0.126  51.938  1.00  0.00    -0.241 NA
HETATM   11  C9  UNL     1      25.153   0.504  52.315  1.00  0.00     0.071 A 
HETATM   12  C10 UNL     1      24.500  -0.495  53.010  1.00  0.00     0.069 A 
HETATM   13  C11 UNL     1      23.201  -0.335  53.505  1.00  0.00     0.070 A 
HETATM   14  C13 UNL     1      22.569   0.858  53.286  1.00  0.00     0.038 A 
HETATM   15  C14 UNL     1      23.261   1.823  52.589  1.00  0.00     0.017 A 
HETATM   16  C15 UNL     1      24.541   1.697  52.088  1.00  0.00     0.002 A 
HETATM   17  C16 UNL     1      27.002   3.786  50.179  1.00  0.00     0.130 C 
ENDROOT
BRANCH   1  18
HETATM   18  O1  UNL     1      26.577   5.358  48.413  1.00  0.00    -0.360 OA
HETATM   19  C1  UNL     1      27.923   5.761  48.345  1.00  0.00     0.209 C 
ENDBRANCH   1  18
BRANCH  13  20
HETATM   20  O3  UNL     1      22.538  -1.338  54.206  1.00  0.00    -0.356 OA
HETATM   21  C12 UNL     1      22.866  -1.631  55.539  1.00  0.00     0.210 C 
ENDBRANCH  13  20
TORSDOF 2
ENDMDL
MODEL 8
REMARK VINA RESULT:      -7.1      2.265      3.892
REMARK  2 active torsions:
REMARK  status: ('A' for Active; 'I' for Inactive)
REMARK    1  A    between atoms: O1_2  and  C2_3 
REMARK    2  A    between atoms: C11_15  and  O3_16 
ROOT
HETATM    1  C2  UNL     1      17.007  -0.784  51.806  1.00  0.00     0.048 C 
HETATM    2  C3  UNL     1      17.419  -1.517  52.819  1.00  0.00     0.010 C 
HETATM    3  C4  UNL     1      18.662  -1.309  53.570  1.00  0.00     0.071 C 
HETATM    4  C5  UNL     1      19.614  -0.372  52.920  1.00  0.00    -0.012 C 
HETATM    5  C6  UNL     1      19.127   0.499  51.993  1.00  0.00     0.068 C 
HETATM    6  O2  UNL     1      19.715   1.578  51.533  1.00  0.00    -0.307 OA
HETATM    7  C7  UNL     1      20.191   2.543  52.285  1.00  0.00     0.259 C 
HETATM    8  N1  UNL     1      21.549   2.669  52.326  1.00  0.00    -0.230 NA
HETATM    9  C8  UNL     1      22.361   1.960  51.487  1.00  0.00     0.235 C 
HETATM   10  N2  UNL     1      21.913   0.670  51.414  1.00  0.00    -0.241 NA
HETATM   11  C9  UNL     1      21.958   0.024  52.595  1.00  0.00     0.071 A 
HETATM   12  C10 UNL     1      23.253  -0.111  53.058  1.00  0.00     0.069 A 
HETATM   13  C11 UNL     1      23.550  -0.749  54.267  1.00  0.00     0.070 A 
HETATM   14  C13 UNL     1      22.514  -1.251  55.005  1.00  0.00     0.038 A 
HETATM   15  C14 UNL     1      21.243  -1.092  54.502  1.00  0.00     0.017 A 
HETATM   16  C15 UNL     1      20.915  -0.469  53.315  1.00  0.00     0.002 A 
HETATM   17  C16 UNL     1      17.821   0.340  51.356  1.00  0.00     0.130 C 
ENDROOT
BRANCH   1  18
HETATM   18  O1  UNL     1      15.830  -0.980  51.093  1.00  0.00    -0.360 OA
HETATM   19  C1  UNL     1      14.952  -2.059  51.298  1.00  0.00     0.209 C 
ENDBRANCH   1  18
BRANCH  13  20
HETATM   20  O3  UNL     1      24.852  -0.888  54.739  1.00  0.00    -0.356 OA
HETATM   21  C12 UNL     1      25.917  -0.191  54.148  1.00  0.00     0.210 C 
ENDBRANCH  13  20
TORSDOF 2
ENDMDL
MODEL 9
REMARK VINA RESULT:      -6.9      1.463      1.887
REMARK  2 active torsions:
REMARK  status: ('A' for Active; 'I' for Inactive)
REMARK    1  A    between atoms: O1_2  and  C2_3 
REMARK    2  A    between atoms: C11_15  and  O3_16 
ROOT
HETATM    1  C2  UNL     1      19.362   0.786  52.034  1.00  0.00     0.048 C 
HETATM    2  C3  UNL     1      19.956  -0.151  52.743  1.00  0.00     0.010 C 
HETATM    3  C4  UNL     1      21.351  -0.117  53.196  1.00  0.00     0.071 C 
HETATM    4  C5  UNL     1      22.177   0.931  52.542  1.00  0.00    -0.012 C 
HETATM    5  C6  UNL     1      21.537   1.983  51.961  1.00  0.00     0.068 C 
HETATM    6  O2  UNL     1      22.063   3.132  51.605  1.00  0.00    -0.307 OA
HETATM    7  C7  UNL     1      22.758   3.911  52.401  1.00  0.00     0.259 C 
HETATM    8  N1  UNL     1      24.092   4.016  52.135  1.00  0.00    -0.230 NA
HETATM    9  C8  UNL     1      24.640   3.496  50.998  1.00  0.00     0.235 C 
HETATM   10  N2  UNL     1      24.113   2.256  50.771  1.00  0.00    -0.241 NA
HETATM   11  C9  UNL     1      24.397   1.371  51.746  1.00  0.00     0.071 A 
HETATM   12  C10 UNL     1      25.754   1.132  51.843  1.00  0.00     0.069 A 
HETATM   13  C11 UNL     1      26.291   0.247  52.786  1.00  0.00     0.070 A 
HETATM   14  C13 UNL     1      25.430  -0.394  53.633  1.00  0.00     0.038 A 
HETATM   15  C14 UNL     1      24.088  -0.122  53.498  1.00  0.00     0.017 A 
HETATM   16  C15 UNL     1      23.526   0.743  52.580  1.00  0.00     0.002 A 
HETATM   17  C16 UNL     1      20.110   1.974  51.641  1.00  0.00     0.130 C 
ENDROOT
BRANCH   1  18
HETATM   18  O1  UNL     1      18.040   0.755  51.603  1.00  0.00    -0.360 OA
HETATM   19  C1  UNL     1      17.628   0.274  50.347  1.00  0.00     0.209 C 
ENDBRANCH   1  18
BRANCH  13  20
HETATM   20  O3  UNL     1      27.657   0.002  52.889  1.00  0.00    -0.356 OA
HETATM   21  C12 UNL     1      28.516   0.922  53.509  1.00  0.00     0.210 C 
ENDBRANCH  13  20
TORSDOF 2
ENDMDL
