MODEL 1
REMARK VINA RESULT:      -9.1      0.000      0.000
REMARK  4 active torsions:
REMARK  status: ('A' for Active; 'I' for Inactive)
REMARK    1  A    between atoms: C14_17  and  O1_18 
REMARK    2  A    between atoms: O1_18  and  C15_19 
REMARK    3  A    between atoms: C15_19  and  C16_20 
REMARK    4  A    between atoms: C16_20  and  C17_21 
ROOT
HETATM    1  C1  UNL     1      19.457   3.840  51.324  1.00  0.00     0.143 C 
HETATM    2  N1  UNL     1      20.258   2.697  51.673  1.00  0.00    -0.413 N 
HETATM    3  C2  UNL     1      20.077   1.563  50.880  1.00  0.00     0.136 C 
HETATM    4  C3  UNL     1      21.157   0.578  50.690  1.00  0.00     0.137 C 
HETATM    5  N2  UNL     1      22.167   0.807  51.778  1.00  0.00    -0.393 N 
HETATM    6  C4  UNL     1      22.779   0.111  52.892  1.00  0.00     0.129 C 
HETATM    7  C5  UNL     1      22.412  -0.645  53.922  1.00  0.00     0.001 C 
HETATM    8  C6  UNL     1      23.762  -0.904  54.541  1.00  0.00     0.015 C 
HETATM    9  C7  UNL     1      25.082  -0.839  54.677  1.00  0.00     0.085 C 
HETATM   10  N3  UNL     1      26.525  -0.709  54.740  1.00  0.00    -0.365 N 
HETATM   11  C8  UNL     1      27.368  -0.078  53.727  1.00  0.00     0.226 C 
HETATM   12  C9  UNL     1      28.275  -1.137  53.153  1.00  0.00     0.073 C 
HETATM   13  C10 UNL     1      28.101   1.138  54.199  1.00  0.00     0.066 C 
HETATM   14  C11 UNL     1      27.473   2.299  53.381  1.00  0.00     0.040 C 
HETATM   15  C12 UNL     1      26.046   1.700  53.340  1.00  0.00     0.231 C 
HETATM   16  C13 UNL     1      25.166   2.488  52.515  1.00  0.00     0.138 C 
HETATM   17  C14 UNL     1      23.957   2.511  51.979  1.00  0.00     0.070 C 
HETATM   18  C22 UNL     1      22.600   2.205  51.563  1.00  0.00     0.127 C 
HETATM   19  C23 UNL     1      21.513   3.005  52.247  1.00  0.00     0.144 C 
HETATM   20  N5  UNL     1      26.409   0.409  52.728  1.00  0.00     0.117 N 
HETATM   21  H12 UNL     1      26.288  -1.196  55.612  1.00  0.00     0.161 HD
HETATM   22  H31 UNL     1      26.985   0.647  51.880  1.00  0.00     0.319 HD
ENDROOT
BRANCH  17  23
HETATM   23  O1  UNL     1      24.441   3.756  51.487  1.00  0.00    -0.383 OA
BRANCH  23  24
HETATM   24  C15 UNL     1      25.293   3.720  50.369  1.00  0.00     0.173 C 
BRANCH  24  25
HETATM   25  C16 UNL     1      24.716   4.556  49.228  1.00  0.00     0.068 C 
BRANCH  25  26
HETATM   26  C17 UNL     1      25.054   5.983  49.499  1.00  0.00    -0.010 A 
HETATM   27  C18 UNL     1      24.161   6.894  50.059  1.00  0.00     0.059 A 
HETATM   28 CL1  UNL     1      22.565   6.326  50.455  1.00  0.00    -0.082 Cl
HETATM   29  C19 UNL     1      24.545   8.208  50.291  1.00  0.00     0.140 A 
HETATM   30  N4  UNL     1      25.783   8.641  49.984  1.00  0.00    -0.270 NA
HETATM   31  C20 UNL     1      26.680   7.814  49.444  1.00  0.00     0.140 A 
HETATM   32  C21 UNL     1      26.298   6.491  49.209  1.00  0.00     0.059 A 
HETATM   33 CL2  UNL     1      27.518   5.424  48.494  1.00  0.00    -0.082 Cl
ENDBRANCH  25  26
ENDBRANCH  24  25
ENDBRANCH  23  24
ENDBRANCH  17  23
TORSDOF 4
ENDMDL
MODEL 2
REMARK VINA RESULT:      -8.9      2.582      7.383
REMARK  4 active torsions:
REMARK  status: ('A' for Active; 'I' for Inactive)
REMARK    1  A    between atoms: C14_17  and  O1_18 
REMARK    2  A    between atoms: O1_18  and  C15_19 
REMARK    3  A    between atoms: C15_19  and  C16_20 
REMARK    4  A    between atoms: C16_20  and  C17_21 
ROOT
HETATM    1  C1  UNL     1      21.557   1.821  51.019  1.00  0.00     0.143 C 
HETATM    2  N1  UNL     1      22.066   3.139  50.743  1.00  0.00    -0.413 N 
HETATM    3  C2  UNL     1      21.781   4.113  51.701  1.00  0.00     0.136 C 
HETATM    4  C3  UNL     1      22.665   5.274  51.903  1.00  0.00     0.137 C 
HETATM    5  N2  UNL     1      23.539   5.387  50.686  1.00  0.00    -0.393 N 
HETATM    6  C4  UNL     1      23.843   6.318  49.617  1.00  0.00     0.129 C 
HETATM    7  C5  UNL     1      23.196   7.091  48.750  1.00  0.00     0.001 C 
HETATM    8  C6  UNL     1      24.370   7.696  48.025  1.00  0.00     0.015 C 
HETATM    9  C7  UNL     1      25.646   7.925  47.732  1.00  0.00     0.085 C 
HETATM   10  N3  UNL     1      27.064   8.109  47.488  1.00  0.00    -0.365 N 
HETATM   11  C8  UNL     1      28.145   7.559  48.301  1.00  0.00     0.226 C 
HETATM   12  C9  UNL     1      28.901   8.713  48.909  1.00  0.00     0.073 C 
HETATM   13  C10 UNL     1      29.027   6.585  47.583  1.00  0.00     0.066 C 
HETATM   14  C11 UNL     1      28.756   5.234  48.298  1.00  0.00     0.040 C 
HETATM   15  C12 UNL     1      27.260   5.511  48.584  1.00  0.00     0.231 C 
HETATM   16  C13 UNL     1      26.673   4.468  49.386  1.00  0.00     0.138 C 
HETATM   17  C14 UNL     1      25.579   4.131  50.047  1.00  0.00     0.070 C 
HETATM   18  C22 UNL     1      24.259   4.096  50.653  1.00  0.00     0.127 C 
HETATM   19  C23 UNL     1      23.264   3.168  49.993  1.00  0.00     0.144 C 
HETATM   20  N5  UNL     1      27.448   6.772  49.325  1.00  0.00     0.117 N 
HETATM   21  H12 UNL     1      26.617   8.631  46.725  1.00  0.00     0.161 HD
HETATM   22  H31 UNL     1      28.172   6.566  50.060  1.00  0.00     0.319 HD
ENDROOT
BRANCH  17  23
HETATM   23  O1  UNL     1      26.358   2.967  50.304  1.00  0.00    -0.383 OA
BRANCH  23  24
HETATM   24  C15 UNL     1      26.318   2.438  51.607  1.00  0.00     0.173 C 
BRANCH  24  25
HETATM   25  C16 UNL     1      26.439   0.917  51.570  1.00  0.00     0.068 C 
BRANCH  25  26
HETATM   26  C17 UNL     1      26.415   0.428  52.980  1.00  0.00    -0.010 A 
HETATM   27  C18 UNL     1      27.514   0.481  53.833  1.00  0.00     0.059 A 
HETATM   28 CL1  UNL     1      28.994   1.150  53.207  1.00  0.00    -0.082 Cl
HETATM   29  C19 UNL     1      27.420   0.015  55.138  1.00  0.00     0.140 A 
HETATM   30  N4  UNL     1      26.271  -0.500  55.616  1.00  0.00    -0.270 NA
HETATM   31  C20 UNL     1      25.185  -0.576  54.845  1.00  0.00     0.140 A 
HETATM   32  C21 UNL     1      25.276  -0.108  53.532  1.00  0.00     0.059 A 
HETATM   33 CL2  UNL     1      23.812  -0.226  52.540  1.00  0.00    -0.082 Cl
ENDBRANCH  25  26
ENDBRANCH  24  25
ENDBRANCH  23  24
ENDBRANCH  17  23
TORSDOF 4
ENDMDL
MODEL 3
REMARK VINA RESULT:      -8.7      1.714      2.205
REMARK  4 active torsions:
REMARK  status: ('A' for Active; 'I' for Inactive)
REMARK    1  A    between atoms: C14_17  and  O1_18 
REMARK    2  A    between atoms: O1_18  and  C15_19 
REMARK    3  A    between atoms: C15_19  and  C16_20 
REMARK    4  A    between atoms: C16_20  and  C17_21 
ROOT
HETATM    1  C1  UNL     1      19.324   3.279  51.654  1.00  0.00     0.143 C 
HETATM    2  N1  UNL     1      20.213   2.217  52.044  1.00  0.00    -0.413 N 
HETATM    3  C2  UNL     1      20.021   0.995  51.397  1.00  0.00     0.136 C 
HETATM    4  C3  UNL     1      21.128   0.043  51.208  1.00  0.00     0.137 C 
HETATM    5  N2  UNL     1      22.220   0.433  52.164  1.00  0.00    -0.393 N 
HETATM    6  C4  UNL     1      22.967  -0.109  53.281  1.00  0.00     0.129 C 
HETATM    7  C5  UNL     1      22.735  -0.762  54.416  1.00  0.00     0.001 C 
HETATM    8  C6  UNL     1      24.148  -0.894  54.926  1.00  0.00     0.015 C 
HETATM    9  C7  UNL     1      25.470  -0.757  54.927  1.00  0.00     0.085 C 
HETATM   10  N3  UNL     1      26.904  -0.561  54.837  1.00  0.00    -0.365 N 
HETATM   11  C8  UNL     1      27.616  -0.010  53.687  1.00  0.00     0.226 C 
HETATM   12  C9  UNL     1      28.522  -1.086  53.144  1.00  0.00     0.073 C 
HETATM   13  C10 UNL     1      28.324   1.281  53.955  1.00  0.00     0.066 C 
HETATM   14  C11 UNL     1      27.564   2.317  53.083  1.00  0.00     0.040 C 
HETATM   15  C12 UNL     1      26.172   1.657  53.243  1.00  0.00     0.231 C 
HETATM   16  C13 UNL     1      25.181   2.311  52.428  1.00  0.00     0.138 C 
HETATM   17  C14 UNL     1      23.929   2.223  52.011  1.00  0.00     0.070 C 
HETATM   18  C22 UNL     1      22.557   1.816  51.762  1.00  0.00     0.127 C 
HETATM   19  C23 UNL     1      21.497   2.640  52.459  1.00  0.00     0.144 C 
HETATM   20  N5  UNL     1      26.546   0.323  52.739  1.00  0.00     0.117 N 
HETATM   21  H12 UNL     1      26.773  -0.958  55.774  1.00  0.00     0.161 HD
HETATM   22  H31 UNL     1      27.029   0.490  51.819  1.00  0.00     0.319 HD
ENDROOT
BRANCH  17  23
HETATM   23  O1  UNL     1      24.300   3.426  51.345  1.00  0.00    -0.383 OA
BRANCH  23  24
HETATM   24  C15 UNL     1      24.863   3.306  50.063  1.00  0.00     0.173 C 
BRANCH  24  25
HETATM   25  C16 UNL     1      24.735   4.620  49.296  1.00  0.00     0.068 C 
BRANCH  25  26
HETATM   26  C17 UNL     1      23.338   5.112  49.476  1.00  0.00    -0.010 A 
HETATM   27  C18 UNL     1      22.239   4.574  48.811  1.00  0.00     0.059 A 
HETATM   28 CL1  UNL     1      22.524   3.259  47.707  1.00  0.00    -0.082 Cl
HETATM   29  C19 UNL     1      20.963   5.076  49.031  1.00  0.00     0.140 A 
HETATM   30  N4  UNL     1      20.749   6.093  49.888  1.00  0.00    -0.270 NA
HETATM   31  C20 UNL     1      21.764   6.649  50.554  1.00  0.00     0.140 A 
HETATM   32  C21 UNL     1      23.048   6.146  50.335  1.00  0.00     0.059 A 
HETATM   33 CL2  UNL     1      24.368   6.910  51.237  1.00  0.00    -0.082 Cl
ENDBRANCH  25  26
ENDBRANCH  24  25
ENDBRANCH  23  24
ENDBRANCH  17  23
TORSDOF 4
ENDMDL
MODEL 4
REMARK VINA RESULT:      -8.3      2.848      6.623
REMARK  4 active torsions:
REMARK  status: ('A' for Active; 'I' for Inactive)
REMARK    1  A    between atoms: C14_17  and  O1_18 
REMARK    2  A    between atoms: O1_18  and  C15_19 
REMARK    3  A    between atoms: C15_19  and  C16_20 
REMARK    4  A    between atoms: C16_20  and  C17_21 
ROOT
HETATM    1  C1  UNL     1      22.546  -1.565  54.954  1.00  0.00     0.143 C 
HETATM    2  N1  UNL     1      22.065  -0.713  53.899  1.00  0.00    -0.413 N 
HETATM    3  C2  UNL     1      20.793  -0.169  54.089  1.00  0.00     0.136 C 
HETATM    4  C3  UNL     1      20.407   1.115  53.479  1.00  0.00     0.137 C 
HETATM    5  N2  UNL     1      21.392   1.402  52.382  1.00  0.00    -0.393 N 
HETATM    6  C4  UNL     1      21.430   1.616  50.949  1.00  0.00     0.129 C 
HETATM    7  C5  UNL     1      20.944   1.062  49.842  1.00  0.00     0.001 C 
HETATM    8  C6  UNL     1      21.534   1.992  48.813  1.00  0.00     0.015 C 
HETATM    9  C7  UNL     1      22.235   3.020  48.346  1.00  0.00     0.085 C 
HETATM   10  N3  UNL     1      23.023   4.166  47.936  1.00  0.00    -0.365 N 
HETATM   11  C8  UNL     1      23.628   5.148  48.832  1.00  0.00     0.226 C 
HETATM   12  C9  UNL     1      22.984   6.484  48.559  1.00  0.00     0.073 C 
HETATM   13  C10 UNL     1      25.123   5.190  48.788  1.00  0.00     0.066 C 
HETATM   14  C11 UNL     1      25.556   4.691  50.193  1.00  0.00     0.040 C 
HETATM   15  C12 UNL     1      24.390   3.687  50.364  1.00  0.00     0.231 C 
HETATM   16  C13 UNL     1      24.394   3.091  51.675  1.00  0.00     0.138 C 
HETATM   17  C14 UNL     1      23.697   2.312  52.484  1.00  0.00     0.070 C 
HETATM   18  C22 UNL     1      22.693   1.450  53.084  1.00  0.00     0.127 C 
HETATM   19  C23 UNL     1      23.072  -0.010  53.197  1.00  0.00     0.144 C 
HETATM   20  N5  UNL     1      23.291   4.652  50.172  1.00  0.00     0.117 N 
HETATM   21  H12 UNL     1      22.773   3.714  47.048  1.00  0.00     0.161 HD
HETATM   22  H31 UNL     1      23.496   5.452  50.825  1.00  0.00     0.319 HD
ENDROOT
BRANCH  17  23
HETATM   23  O1  UNL     1      24.809   2.574  53.334  1.00  0.00    -0.383 OA
BRANCH  23  24
HETATM   24  C15 UNL     1      26.013   1.908  53.045  1.00  0.00     0.173 C 
BRANCH  24  25
HETATM   25  C16 UNL     1      26.577   1.251  54.302  1.00  0.00     0.068 C 
BRANCH  25  26
HETATM   26  C17 UNL     1      27.667   0.325  53.878  1.00  0.00    -0.010 A 
HETATM   27  C18 UNL     1      27.440  -0.952  53.372  1.00  0.00     0.059 A 
HETATM   28 CL1  UNL     1      25.790  -1.490  53.239  1.00  0.00    -0.082 Cl
HETATM   29  C19 UNL     1      28.502  -1.760  52.988  1.00  0.00     0.140 A 
HETATM   30  N4  UNL     1      29.777  -1.337  53.092  1.00  0.00    -0.270 NA
HETATM   31  C20 UNL     1      30.055  -0.123  53.570  1.00  0.00     0.140 A 
HETATM   32  C21 UNL     1      28.990   0.693  53.957  1.00  0.00     0.059 A 
HETATM   33 CL2  UNL     1      29.400   2.298  54.585  1.00  0.00    -0.082 Cl
ENDBRANCH  25  26
ENDBRANCH  24  25
ENDBRANCH  23  24
ENDBRANCH  17  23
TORSDOF 4
ENDMDL
MODEL 5
REMARK VINA RESULT:      -8.2      1.295      5.275
REMARK  4 active torsions:
REMARK  status: ('A' for Active; 'I' for Inactive)
REMARK    1  A    between atoms: C14_17  and  O1_18 
REMARK    2  A    between atoms: O1_18  and  C15_19 
REMARK    3  A    between atoms: C15_19  and  C16_20 
REMARK    4  A    between atoms: C16_20  and  C17_21 
ROOT
HETATM    1  C1  UNL     1      29.294  -0.807  53.204  1.00  0.00     0.143 C 
HETATM    2  N1  UNL     1      27.917  -0.571  53.551  1.00  0.00    -0.413 N 
HETATM    3  C2  UNL     1      27.694  -0.038  54.821  1.00  0.00     0.136 C 
HETATM    4  C3  UNL     1      26.511   0.791  55.109  1.00  0.00     0.137 C 
HETATM    5  N2  UNL     1      25.517   0.550  54.008  1.00  0.00    -0.393 N 
HETATM    6  C4  UNL     1      24.168   0.058  53.815  1.00  0.00     0.129 C 
HETATM    7  C5  UNL     1      23.413  -0.968  54.197  1.00  0.00     0.001 C 
HETATM    8  C6  UNL     1      22.133  -0.622  53.480  1.00  0.00     0.015 C 
HETATM    9  C7  UNL     1      21.310   0.080  52.708  1.00  0.00     0.085 C 
HETATM   10  N3  UNL     1      20.489   0.915  51.853  1.00  0.00    -0.365 N 
HETATM   11  C8  UNL     1      20.869   2.221  51.320  1.00  0.00     0.226 C 
HETATM   12  C9  UNL     1      19.928   3.248  51.898  1.00  0.00     0.073 C 
HETATM   13  C10 UNL     1      20.965   2.278  49.828  1.00  0.00     0.066 C 
HETATM   14  C11 UNL     1      22.475   2.519  49.557  1.00  0.00     0.040 C 
HETATM   15  C12 UNL     1      22.980   1.684  50.759  1.00  0.00     0.231 C 
HETATM   16  C13 UNL     1      24.409   1.782  50.907  1.00  0.00     0.138 C 
HETATM   17  C14 UNL     1      25.414   1.462  51.704  1.00  0.00     0.070 C 
HETATM   18  C22 UNL     1      26.244   0.961  52.786  1.00  0.00     0.127 C 
HETATM   19  C23 UNL     1      27.075  -0.259  52.459  1.00  0.00     0.144 C 
HETATM   20  N5  UNL     1      22.240   2.412  51.807  1.00  0.00     0.117 N 
HETATM   21  H12 UNL     1      19.902   0.089  52.021  1.00  0.00     0.161 HD
HETATM   22  H31 UNL     1      22.452   3.431  51.651  1.00  0.00     0.319 HD
ENDROOT
BRANCH  17  23
HETATM   23  O1  UNL     1      26.148   2.127  50.681  1.00  0.00    -0.383 OA
BRANCH  23  24
HETATM   24  C15 UNL     1      26.159   3.533  50.706  1.00  0.00     0.173 C 
BRANCH  24  25
HETATM   25  C16 UNL     1      25.789   4.096  49.335  1.00  0.00     0.068 C 
BRANCH  25  26
HETATM   26  C17 UNL     1      25.984   5.574  49.387  1.00  0.00    -0.010 A 
HETATM   27  C18 UNL     1      27.125   6.219  48.916  1.00  0.00     0.059 A 
HETATM   28 CL1  UNL     1      28.391   5.234  48.240  1.00  0.00    -0.082 Cl
HETATM   29  C19 UNL     1      27.237   7.601  48.989  1.00  0.00     0.140 A 
HETATM   30  N4  UNL     1      26.254   8.357  49.513  1.00  0.00    -0.270 NA
HETATM   31  C20 UNL     1      25.136   7.795  49.979  1.00  0.00     0.140 A 
HETATM   32  C21 UNL     1      25.020   6.405  49.908  1.00  0.00     0.059 A 
HETATM   33 CL2  UNL     1      23.522   5.697  50.536  1.00  0.00    -0.082 Cl
ENDBRANCH  25  26
ENDBRANCH  24  25
ENDBRANCH  23  24
ENDBRANCH  17  23
TORSDOF 4
ENDMDL
MODEL 6
REMARK VINA RESULT:      -8.2      2.570      3.229
REMARK  4 active torsions:
REMARK  status: ('A' for Active; 'I' for Inactive)
REMARK    1  A    between atoms: C14_17  and  O1_18 
REMARK    2  A    between atoms: O1_18  and  C15_19 
REMARK    3  A    between atoms: C15_19  and  C16_20 
REMARK    4  A    between atoms: C16_20  and  C17_21 
ROOT
HETATM    1  C1  UNL     1      17.670   3.724  51.275  1.00  0.00     0.143 C 
HETATM    2  N1  UNL     1      18.495   2.587  51.589  1.00  0.00    -0.413 N 
HETATM    3  C2  UNL     1      18.350   1.482  50.749  1.00  0.00     0.136 C 
HETATM    4  C3  UNL     1      19.454   0.531  50.532  1.00  0.00     0.137 C 
HETATM    5  N2  UNL     1      20.447   0.739  51.641  1.00  0.00    -0.393 N 
HETATM    6  C4  UNL     1      21.063   0.014  52.734  1.00  0.00     0.129 C 
HETATM    7  C5  UNL     1      20.702  -0.791  53.728  1.00  0.00     0.001 C 
HETATM    8  C6  UNL     1      22.051  -1.043  54.353  1.00  0.00     0.015 C 
HETATM    9  C7  UNL     1      23.368  -0.952  54.507  1.00  0.00     0.085 C 
HETATM   10  N3  UNL     1      24.807  -0.792  54.593  1.00  0.00    -0.365 N 
HETATM   11  C8  UNL     1      25.645  -0.101  53.616  1.00  0.00     0.226 C 
HETATM   12  C9  UNL     1      26.583  -1.115  53.011  1.00  0.00     0.073 C 
HETATM   13  C10 UNL     1      26.343   1.112  54.146  1.00  0.00     0.066 C 
HETATM   14  C11 UNL     1      25.697   2.289  53.367  1.00  0.00     0.040 C 
HETATM   15  C12 UNL     1      24.285   1.660  53.285  1.00  0.00     0.231 C 
HETATM   16  C13 UNL     1      23.396   2.459  52.481  1.00  0.00     0.138 C 
HETATM   17  C14 UNL     1      22.193   2.475  51.932  1.00  0.00     0.070 C 
HETATM   18  C22 UNL     1      20.848   2.155  51.488  1.00  0.00     0.127 C 
HETATM   19  C23 UNL     1      19.735   2.901  52.190  1.00  0.00     0.144 C 
HETATM   20  N5  UNL     1      24.686   0.403  52.626  1.00  0.00     0.117 N 
HETATM   21  H12 UNL     1      24.571  -1.319  55.442  1.00  0.00     0.161 HD
HETATM   22  H31 UNL     1      25.266   0.688  51.795  1.00  0.00     0.319 HD
ENDROOT
BRANCH  17  23
HETATM   23  O1  UNL     1      22.653   3.751  51.495  1.00  0.00    -0.383 OA
BRANCH  23  24
HETATM   24  C15 UNL     1      22.187   4.212  50.251  1.00  0.00     0.173 C 
BRANCH  24  25
HETATM   25  C16 UNL     1      23.309   4.184  49.216  1.00  0.00     0.068 C 
BRANCH  25  26
HETATM   26  C17 UNL     1      22.690   4.386  47.874  1.00  0.00    -0.010 A 
HETATM   27  C18 UNL     1      22.607   5.624  47.242  1.00  0.00     0.059 A 
HETATM   28 CL1  UNL     1      23.258   7.005  48.076  1.00  0.00    -0.082 Cl
HETATM   29  C19 UNL     1      22.023   5.740  45.987  1.00  0.00     0.140 A 
HETATM   30  N4  UNL     1      21.522   4.666  45.346  1.00  0.00    -0.270 NA
HETATM   31  C20 UNL     1      21.574   3.454  45.902  1.00  0.00     0.140 A 
HETATM   32  C21 UNL     1      22.160   3.334  47.164  1.00  0.00     0.059 A 
HETATM   33 CL2  UNL     1      22.210   1.709  47.869  1.00  0.00    -0.082 Cl
ENDBRANCH  25  26
ENDBRANCH  24  25
ENDBRANCH  23  24
ENDBRANCH  17  23
TORSDOF 4
ENDMDL
MODEL 7
REMARK VINA RESULT:      -8.2      3.217      6.690
REMARK  4 active torsions:
REMARK  status: ('A' for Active; 'I' for Inactive)
REMARK    1  A    between atoms: C14_17  and  O1_18 
REMARK    2  A    between atoms: O1_18  and  C15_19 
REMARK    3  A    between atoms: C15_19  and  C16_20 
REMARK    4  A    between atoms: C16_20  and  C17_21 
ROOT
HETATM    1  C1  UNL     1      19.947   5.661  49.389  1.00  0.00     0.143 C 
HETATM    2  N1  UNL     1      21.297   5.376  49.798  1.00  0.00    -0.413 N 
HETATM    3  C2  UNL     1      22.000   6.445  50.357  1.00  0.00     0.136 C 
HETATM    4  C3  UNL     1      23.084   6.226  51.331  1.00  0.00     0.137 C 
HETATM    5  N2  UNL     1      23.504   4.788  51.216  1.00  0.00    -0.393 N 
HETATM    6  C4  UNL     1      24.673   3.992  50.899  1.00  0.00     0.129 C 
HETATM    7  C5  UNL     1      25.631   3.945  49.978  1.00  0.00     0.001 C 
HETATM    8  C6  UNL     1      26.409   2.756  50.482  1.00  0.00     0.015 C 
HETATM    9  C7  UNL     1      26.716   1.741  51.282  1.00  0.00     0.085 C 
HETATM   10  N3  UNL     1      26.970   0.658  52.213  1.00  0.00    -0.365 N 
HETATM   11  C8  UNL     1      26.246   0.421  53.460  1.00  0.00     0.226 C 
HETATM   12  C9  UNL     1      27.221   0.580  54.599  1.00  0.00     0.073 C 
HETATM   13  C10 UNL     1      25.490  -0.870  53.502  1.00  0.00     0.066 C 
HETATM   14  C11 UNL     1      24.001  -0.432  53.549  1.00  0.00     0.040 C 
HETATM   15  C12 UNL     1      24.183   0.821  52.659  1.00  0.00     0.231 C 
HETATM   16  C13 UNL     1      22.968   1.590  52.574  1.00  0.00     0.138 C 
HETATM   17  C14 UNL     1      22.467   2.730  52.131  1.00  0.00     0.070 C 
HETATM   18  C22 UNL     1      22.269   4.038  51.530  1.00  0.00     0.127 C 
HETATM   19  C23 UNL     1      21.524   4.044  50.214  1.00  0.00     0.144 C 
HETATM   20  N5  UNL     1      25.223   1.473  53.476  1.00  0.00     0.117 N 
HETATM   21  H12 UNL     1      27.660   0.504  51.469  1.00  0.00     0.161 HD
HETATM   22  H31 UNL     1      24.848   1.484  54.459  1.00  0.00     0.319 HD
ENDROOT
BRANCH  17  23
HETATM   23  O1  UNL     1      21.283   2.174  52.696  1.00  0.00    -0.383 OA
BRANCH  23  24
HETATM   24  C15 UNL     1      20.173   2.023  51.846  1.00  0.00     0.173 C 
BRANCH  24  25
HETATM   25  C16 UNL     1      20.130   0.609  51.268  1.00  0.00     0.068 C 
BRANCH  25  26
HETATM   26  C17 UNL     1      18.917  -0.064  51.815  1.00  0.00    -0.010 A 
HETATM   27  C18 UNL     1      18.912  -0.810  52.991  1.00  0.00     0.059 A 
HETATM   28 CL1  UNL     1      20.412  -0.962  53.860  1.00  0.00    -0.082 Cl
HETATM   29  C19 UNL     1      17.743  -1.405  53.446  1.00  0.00     0.140 A 
HETATM   30  N4  UNL     1      16.585  -1.282  52.770  1.00  0.00    -0.270 NA
HETATM   31  C20 UNL     1      16.528  -0.580  51.637  1.00  0.00     0.140 A 
HETATM   32  C21 UNL     1      17.702   0.020  51.175  1.00  0.00     0.059 A 
HETATM   33 CL2  UNL     1      17.586   0.945  49.668  1.00  0.00    -0.082 Cl
ENDBRANCH  25  26
ENDBRANCH  24  25
ENDBRANCH  23  24
ENDBRANCH  17  23
TORSDOF 4
ENDMDL
MODEL 8
REMARK VINA RESULT:      -7.9      2.869      7.821
REMARK  4 active torsions:
REMARK  status: ('A' for Active; 'I' for Inactive)
REMARK    1  A    between atoms: C14_17  and  O1_18 
REMARK    2  A    between atoms: O1_18  and  C15_19 
REMARK    3  A    between atoms: C15_19  and  C16_20 
REMARK    4  A    between atoms: C16_20  and  C17_21 
ROOT
HETATM    1  C1  UNL     1      21.540   5.966  48.893  1.00  0.00     0.143 C 
HETATM    2  N1  UNL     1      22.656   6.863  49.031  1.00  0.00    -0.413 N 
HETATM    3  C2  UNL     1      22.675   7.635  50.193  1.00  0.00     0.136 C 
HETATM    4  C3  UNL     1      23.940   8.116  50.776  1.00  0.00     0.137 C 
HETATM    5  N2  UNL     1      24.994   8.003  49.711  1.00  0.00    -0.393 N 
HETATM    6  C4  UNL     1      25.917   8.836  48.966  1.00  0.00     0.129 C 
HETATM    7  C5  UNL     1      25.909   9.984  48.295  1.00  0.00     0.001 C 
HETATM    8  C6  UNL     1      27.351  10.033  47.860  1.00  0.00     0.015 C 
HETATM    9  C7  UNL     1      28.612   9.631  47.744  1.00  0.00     0.085 C 
HETATM   10  N3  UNL     1      29.964   9.109  47.674  1.00  0.00    -0.365 N 
HETATM   11  C8  UNL     1      30.460   7.936  48.390  1.00  0.00     0.226 C 
HETATM   12  C9  UNL     1      31.528   8.396  49.350  1.00  0.00     0.073 C 
HETATM   13  C10 UNL     1      30.902   6.811  47.506  1.00  0.00     0.066 C 
HETATM   14  C11 UNL     1      29.881   5.679  47.799  1.00  0.00     0.040 C 
HETATM   15  C12 UNL     1      28.673   6.618  48.029  1.00  0.00     0.231 C 
HETATM   16  C13 UNL     1      27.511   5.888  48.464  1.00  0.00     0.138 C 
HETATM   17  C14 UNL     1      26.278   6.035  48.918  1.00  0.00     0.070 C 
HETATM   18  C22 UNL     1      25.006   6.560  49.383  1.00  0.00     0.127 C 
HETATM   19  C23 UNL     1      23.851   6.423  48.416  1.00  0.00     0.144 C 
HETATM   20  N5  UNL     1      29.278   7.432  49.099  1.00  0.00     0.117 N 
HETATM   21  H12 UNL     1      29.987   9.924  47.050  1.00  0.00     0.161 HD
HETATM   22  H31 UNL     1      29.648   6.745  49.806  1.00  0.00     0.319 HD
ENDROOT
BRANCH  17  23
HETATM   23  O1  UNL     1      26.340   4.612  48.907  1.00  0.00    -0.383 OA
BRANCH  23  24
HETATM   24  C15 UNL     1      26.681   3.973  50.113  1.00  0.00     0.173 C 
BRANCH  24  25
HETATM   25  C16 UNL     1      26.407   2.474  50.019  1.00  0.00     0.068 C 
BRANCH  25  26
HETATM   26  C17 UNL     1      25.407   2.131  51.073  1.00  0.00    -0.010 A 
HETATM   27  C18 UNL     1      24.032   2.269  50.904  1.00  0.00     0.059 A 
HETATM   28 CL1  UNL     1      23.459   2.882  49.380  1.00  0.00    -0.082 Cl
HETATM   29  C19 UNL     1      23.157   1.924  51.926  1.00  0.00     0.140 A 
HETATM   30  N4  UNL     1      23.606   1.448  53.103  1.00  0.00    -0.270 NA
HETATM   31  C20 UNL     1      24.914   1.295  53.321  1.00  0.00     0.140 A 
HETATM   32  C21 UNL     1      25.797   1.641  52.297  1.00  0.00     0.059 A 
HETATM   33 CL2  UNL     1      27.525   1.421  52.625  1.00  0.00    -0.082 Cl
ENDBRANCH  25  26
ENDBRANCH  24  25
ENDBRANCH  23  24
ENDBRANCH  17  23
TORSDOF 4
ENDMDL
MODEL 9
REMARK VINA RESULT:      -7.9      2.068      5.758
REMARK  4 active torsions:
REMARK  status: ('A' for Active; 'I' for Inactive)
REMARK    1  A    between atoms: C14_17  and  O1_18 
REMARK    2  A    between atoms: O1_18  and  C15_19 
REMARK    3  A    between atoms: C15_19  and  C16_20 
REMARK    4  A    between atoms: C16_20  and  C17_21 
ROOT
HETATM    1  C1  UNL     1      28.193   1.628  52.852  1.00  0.00     0.143 C 
HETATM    2  N1  UNL     1      26.756   1.620  52.761  1.00  0.00    -0.413 N 
HETATM    3  C2  UNL     1      26.076   2.133  53.867  1.00  0.00     0.136 C 
HETATM    4  C3  UNL     1      24.741   2.743  53.732  1.00  0.00     0.137 C 
HETATM    5  N2  UNL     1      24.180   2.304  52.410  1.00  0.00    -0.393 N 
HETATM    6  C4  UNL     1      23.052   1.574  51.867  1.00  0.00     0.129 C 
HETATM    7  C5  UNL     1      22.396   0.438  52.086  1.00  0.00     0.001 C 
HETATM    8  C6  UNL     1      21.354   0.533  51.001  1.00  0.00     0.015 C 
HETATM    9  C7  UNL     1      20.698   1.060  49.973  1.00  0.00     0.085 C 
HETATM   10  N3  UNL     1      20.048   1.715  48.854  1.00  0.00    -0.365 N 
HETATM   11  C8  UNL     1      20.351   3.056  48.360  1.00  0.00     0.226 C 
HETATM   12  C9  UNL     1      19.125   3.911  48.559  1.00  0.00     0.073 C 
HETATM   13  C10 UNL     1      20.883   3.097  46.962  1.00  0.00     0.066 C 
HETATM   14  C11 UNL     1      22.343   3.598  47.128  1.00  0.00     0.040 C 
HETATM   15  C12 UNL     1      22.591   2.894  48.485  1.00  0.00     0.231 C 
HETATM   16  C13 UNL     1      23.872   3.249  49.037  1.00  0.00     0.138 C 
HETATM   17  C14 UNL     1      24.628   3.132  50.116  1.00  0.00     0.070 C 
HETATM   18  C22 UNL     1      25.163   2.812  51.428  1.00  0.00     0.127 C 
HETATM   19  C23 UNL     1      26.243   1.753  51.450  1.00  0.00     0.144 C 
HETATM   20  N5  UNL     1      21.461   3.500  49.212  1.00  0.00     0.117 N 
HETATM   21  H12 UNL     1      19.582   0.802  48.904  1.00  0.00     0.161 HD
HETATM   22  H31 UNL     1      21.540   4.537  49.050  1.00  0.00     0.319 HD
ENDROOT
BRANCH  17  23
HETATM   23  O1  UNL     1      25.517   3.895  49.306  1.00  0.00    -0.383 OA
BRANCH  23  24
HETATM   24  C15 UNL     1      25.902   5.160  49.786  1.00  0.00     0.173 C 
BRANCH  24  25
HETATM   25  C16 UNL     1      25.872   6.192  48.661  1.00  0.00     0.068 C 
BRANCH  25  26
HETATM   26  C17 UNL     1      26.796   7.300  49.040  1.00  0.00    -0.010 A 
HETATM   27  C18 UNL     1      28.140   7.342  48.675  1.00  0.00     0.059 A 
HETATM   28 CL1  UNL     1      28.765   6.021  47.731  1.00  0.00    -0.082 Cl
HETATM   29  C19 UNL     1      28.942   8.409  49.057  1.00  0.00     0.140 A 
HETATM   30  N4  UNL     1      28.451   9.429  49.786  1.00  0.00    -0.270 NA
HETATM   31  C20 UNL     1      27.172   9.443  50.164  1.00  0.00     0.140 A 
HETATM   32  C21 UNL     1      26.361   8.372  49.783  1.00  0.00     0.059 A 
HETATM   33 CL2  UNL     1      24.668   8.427  50.303  1.00  0.00    -0.082 Cl
ENDBRANCH  25  26
ENDBRANCH  24  25
ENDBRANCH  23  24
ENDBRANCH  17  23
TORSDOF 4
ENDMDL
