MODEL 1
REMARK VINA RESULT:      -8.4      0.000      0.000
REMARK  2 active torsions:
REMARK  status: ('A' for Active; 'I' for Inactive)
REMARK       I    between atoms: C2_2  and  N1_4 
REMARK    1  A    between atoms: N2_7  and  C5_8 
REMARK    2  A    between atoms: C8_12  and  C9_13 
ROOT
HETATM    1  C5  UNL     1      25.066   2.299  51.842  1.00  0.00     0.026 C 
HETATM    2  C6  UNL     1      26.138   2.920  51.249  1.00  0.00     0.113 C 
HETATM    3  N3  UNL     1      26.158   4.113  50.386  1.00  0.00    -0.366 N 
HETATM    4  C7  UNL     1      24.977   4.746  49.824  1.00  0.00     0.023 C 
HETATM    5  C8  UNL     1      25.012   6.066  49.931  1.00  0.00     0.012 C 
HETATM    6  C10 UNL     1      23.793   6.647  50.595  1.00  0.00     0.055 C 
HETATM    7  C11 UNL     1      22.882   5.702  50.984  1.00  0.00     0.123 C 
HETATM    8  F2  UNL     1      21.780   5.914  51.721  1.00  0.00    -0.206 F 
HETATM    9  C12 UNL     1      23.054   4.242  50.723  1.00  0.00    -0.017 C 
HETATM   10  C13 UNL     1      22.808   3.453  51.748  1.00  0.00    -0.010 C 
HETATM   11  C14 UNL     1      23.600   2.209  51.953  1.00  0.00     0.086 C 
HETATM   12  C15 UNL     1      23.640   4.100  49.288  1.00  0.00     0.099 C 
HETATM   13  H9  UNL     1      26.902   4.713  50.056  1.00  0.00     0.165 HD
ENDROOT
BRANCH   1  14
HETATM   14  N2  UNL     1      25.765   1.364  52.688  1.00  0.00    -0.380 N 
HETATM   15  C4  UNL     1      25.611  -0.039  52.459  1.00  0.00     0.142 C 
HETATM   16  C3  UNL     1      26.257  -0.799  53.621  1.00  0.00     0.145 C 
HETATM   17  N1  UNL     1      27.623  -0.315  53.675  1.00  0.00    -0.349 N 
HETATM   18  C2  UNL     1      28.725  -1.185  53.441  1.00  0.00     0.215 C 
HETATM   19  C17 UNL     1      27.837   1.089  53.976  1.00  0.00     0.145 C 
HETATM   20  C1  UNL     1      30.101  -0.644  53.508  1.00  0.00     0.117 C 
HETATM   21  O1  UNL     1      28.471  -2.374  53.190  1.00  0.00    -0.274 OA
HETATM   22  C16 UNL     1      26.612   1.916  53.756  1.00  0.00     0.142 C 
ENDBRANCH   1  14
BRANCH   5  23
HETATM   23  C9  UNL     1      26.319   6.502  49.500  1.00  0.00     0.276 C 
HETATM   24  F1  UNL     1      26.133   6.489  48.118  1.00  0.00    -0.232 F 
HETATM   25 BR1  UNL     1      26.703   8.368  49.733  1.00  0.00    -0.051 Br
ENDBRANCH   5  23
TORSDOF 2
ENDMDL
MODEL 2
REMARK VINA RESULT:      -8.0      4.374      7.128
REMARK  2 active torsions:
REMARK  status: ('A' for Active; 'I' for Inactive)
REMARK       I    between atoms: C2_2  and  N1_4 
REMARK    1  A    between atoms: N2_7  and  C5_8 
REMARK    2  A    between atoms: C8_12  and  C9_13 
ROOT
HETATM    1  C5  UNL     1      25.561   3.030  51.368  1.00  0.00     0.026 C 
HETATM    2  C6  UNL     1      26.891   2.725  51.530  1.00  0.00     0.113 C 
HETATM    3  N3  UNL     1      27.510   1.710  52.398  1.00  0.00    -0.366 N 
HETATM    4  C7  UNL     1      26.808   0.962  53.427  1.00  0.00     0.023 C 
HETATM    5  C8  UNL     1      27.111  -0.328  53.410  1.00  0.00     0.012 C 
HETATM    6  C10 UNL     1      25.907  -1.226  53.329  1.00  0.00     0.055 C 
HETATM    7  C11 UNL     1      24.721  -0.545  53.266  1.00  0.00     0.123 C 
HETATM    8  F2  UNL     1      23.509  -1.075  53.044  1.00  0.00    -0.206 F 
HETATM    9  C12 UNL     1      24.628   0.944  53.331  1.00  0.00    -0.017 C 
HETATM   10  C13 UNL     1      23.841   1.499  52.434  1.00  0.00    -0.010 C 
HETATM   11  C14 UNL     1      24.183   2.822  51.842  1.00  0.00     0.086 C 
HETATM   12  C15 UNL     1      25.654   1.420  54.401  1.00  0.00     0.099 C 
HETATM   13  H9  UNL     1      28.442   1.322  52.448  1.00  0.00     0.165 HD
ENDROOT
BRANCH   1  14
HETATM   14  N2  UNL     1      25.655   3.935  50.249  1.00  0.00    -0.380 N 
HETATM   15  C4  UNL     1      24.713   5.004  50.131  1.00  0.00     0.142 C 
HETATM   16  C3  UNL     1      24.883   5.658  48.757  1.00  0.00     0.145 C 
HETATM   17  N1  UNL     1      26.281   6.039  48.692  1.00  0.00    -0.349 N 
HETATM   18  C2  UNL     1      26.671   7.404  48.589  1.00  0.00     0.215 C 
HETATM   19  C17 UNL     1      27.277   4.983  48.735  1.00  0.00     0.145 C 
HETATM   20  C1  UNL     1      28.111   7.742  48.525  1.00  0.00     0.117 C 
HETATM   21  O1  UNL     1      25.768   8.255  48.557  1.00  0.00    -0.274 OA
HETATM   22  C16 UNL     1      26.732   3.701  49.276  1.00  0.00     0.142 C 
ENDBRANCH   1  14
BRANCH   5  23
HETATM   23  C9  UNL     1      28.547  -0.435  53.317  1.00  0.00     0.276 C 
HETATM   24  F1  UNL     1      28.897  -0.136  54.633  1.00  0.00    -0.232 F 
HETATM   25 BR1  UNL     1      29.255  -2.216  53.216  1.00  0.00    -0.051 Br
ENDBRANCH   5  23
TORSDOF 2
ENDMDL
MODEL 3
REMARK VINA RESULT:      -7.8      4.563      7.453
REMARK  2 active torsions:
REMARK  status: ('A' for Active; 'I' for Inactive)
REMARK       I    between atoms: C2_2  and  N1_4 
REMARK    1  A    between atoms: N2_7  and  C5_8 
REMARK    2  A    between atoms: C8_12  and  C9_13 
ROOT
HETATM    1  C5  UNL     1      25.725   2.663  51.194  1.00  0.00     0.026 C 
HETATM    2  C6  UNL     1      24.460   2.141  51.300  1.00  0.00     0.113 C 
HETATM    3  N3  UNL     1      24.005   0.957  52.049  1.00  0.00    -0.366 N 
HETATM    4  C7  UNL     1      24.885  -0.021  52.665  1.00  0.00     0.023 C 
HETATM    5  C8  UNL     1      24.498  -0.351  53.887  1.00  0.00     0.012 C 
HETATM    6  C10 UNL     1      25.577  -0.193  54.923  1.00  0.00     0.055 C 
HETATM    7  C11 UNL     1      26.755   0.284  54.414  1.00  0.00     0.123 C 
HETATM    8  F2  UNL     1      27.835   0.657  55.119  1.00  0.00    -0.206 F 
HETATM    9  C12 UNL     1      26.966   0.563  52.963  1.00  0.00    -0.017 C 
HETATM   10  C13 UNL     1      27.544   1.713  52.688  1.00  0.00    -0.010 C 
HETATM   11  C14 UNL     1      27.160   2.482  51.472  1.00  0.00     0.086 C 
HETATM   12  C15 UNL     1      26.275  -0.585  52.171  1.00  0.00     0.099 C 
HETATM   13  H9  UNL     1      23.089   0.613  52.305  1.00  0.00     0.165 HD
ENDROOT
BRANCH   1  14
HETATM   14  N2  UNL     1      25.422   3.898  50.516  1.00  0.00    -0.380 N 
HETATM   15  C4  UNL     1      24.320   4.691  50.963  1.00  0.00     0.142 C 
HETATM   16  C3  UNL     1      24.073   5.808  49.945  1.00  0.00     0.145 C 
HETATM   17  N1  UNL     1      25.342   6.500  49.830  1.00  0.00    -0.349 N 
HETATM   18  C2  UNL     1      25.476   7.864  50.212  1.00  0.00     0.215 C 
HETATM   19  C17 UNL     1      26.478   5.758  49.312  1.00  0.00     0.145 C 
HETATM   20  C1  UNL     1      26.793   8.527  50.075  1.00  0.00     0.117 C 
HETATM   21  O1  UNL     1      24.465   8.438  50.646  1.00  0.00    -0.274 OA
HETATM   22  C16 UNL     1      26.279   4.279  49.384  1.00  0.00     0.142 C 
ENDBRANCH   1  14
BRANCH   5  23
HETATM   23  C9  UNL     1      23.079  -0.613  53.837  1.00  0.00     0.276 C 
HETATM   24  F1  UNL     1      23.057  -1.638  52.891  1.00  0.00    -0.232 F 
HETATM   25 BR1  UNL     1      22.345  -1.568  55.331  1.00  0.00    -0.051 Br
ENDBRANCH   5  23
TORSDOF 2
ENDMDL
MODEL 4
REMARK VINA RESULT:      -7.7      1.830      2.457
REMARK  2 active torsions:
REMARK  status: ('A' for Active; 'I' for Inactive)
REMARK       I    between atoms: C2_2  and  N1_4 
REMARK    1  A    between atoms: N2_7  and  C5_8 
REMARK    2  A    between atoms: C8_12  and  C9_13 
ROOT
HETATM    1  C5  UNL     1      25.194   3.355  50.694  1.00  0.00     0.026 C 
HETATM    2  C6  UNL     1      26.356   3.497  49.975  1.00  0.00     0.113 C 
HETATM    3  N3  UNL     1      26.840   4.661  49.216  1.00  0.00    -0.366 N 
HETATM    4  C7  UNL     1      26.048   5.841  48.915  1.00  0.00     0.023 C 
HETATM    5  C8  UNL     1      26.718   6.966  49.116  1.00  0.00     0.012 C 
HETATM    6  C10 UNL     1      26.008   7.935  50.022  1.00  0.00     0.055 C 
HETATM    7  C11 UNL     1      24.810   7.466  50.489  1.00  0.00     0.123 C 
HETATM    8  F2  UNL     1      24.035   8.047  51.418  1.00  0.00    -0.206 F 
HETATM    9  C12 UNL     1      24.235   6.147  50.090  1.00  0.00    -0.017 C 
HETATM   10  C13 UNL     1      23.764   5.416  51.078  1.00  0.00    -0.010 C 
HETATM   11  C14 UNL     1      23.886   3.932  51.048  1.00  0.00     0.086 C 
HETATM   12  C15 UNL     1      24.513   5.968  48.569  1.00  0.00     0.099 C 
HETATM   13  H9  UNL     1      27.737   4.895  48.809  1.00  0.00     0.165 HD
ENDROOT
BRANCH   1  14
HETATM   14  N2  UNL     1      25.457   2.089  51.332  1.00  0.00    -0.380 N 
HETATM   15  C4  UNL     1      26.807   1.647  51.483  1.00  0.00     0.142 C 
HETATM   16  C3  UNL     1      26.797   0.194  51.967  1.00  0.00     0.145 C 
HETATM   17  N1  UNL     1      25.998   0.206  53.177  1.00  0.00    -0.349 N 
HETATM   18  C2  UNL     1      26.561  -0.136  54.438  1.00  0.00     0.215 C 
HETATM   19  C17 UNL     1      24.599   0.579  53.066  1.00  0.00     0.145 C 
HETATM   20  C1  UNL     1      25.704  -0.110  55.645  1.00  0.00     0.117 C 
HETATM   21  O1  UNL     1      27.763  -0.446  54.462  1.00  0.00    -0.274 OA
HETATM   22  C16 UNL     1      24.299   1.313  51.798  1.00  0.00     0.142 C 
ENDBRANCH   1  14
BRANCH   5  23
HETATM   23  C9  UNL     1      28.015   6.814  48.502  1.00  0.00     0.276 C 
HETATM   24  F1  UNL     1      27.673   7.013  47.165  1.00  0.00    -0.232 F 
HETATM   25 BR1  UNL     1      29.230   8.282  48.723  1.00  0.00    -0.051 Br
ENDBRANCH   5  23
TORSDOF 2
ENDMDL
MODEL 5
REMARK VINA RESULT:      -7.7      3.469      4.722
REMARK  2 active torsions:
REMARK  status: ('A' for Active; 'I' for Inactive)
REMARK       I    between atoms: C2_2  and  N1_4 
REMARK    1  A    between atoms: N2_7  and  C5_8 
REMARK    2  A    between atoms: C8_12  and  C9_13 
ROOT
HETATM    1  C5  UNL     1      24.172   1.777  52.128  1.00  0.00     0.026 C 
HETATM    2  C6  UNL     1      23.022   1.339  52.738  1.00  0.00     0.113 C 
HETATM    3  N3  UNL     1      21.629   1.443  52.273  1.00  0.00    -0.366 N 
HETATM    4  C7  UNL     1      21.192   2.240  51.140  1.00  0.00     0.023 C 
HETATM    5  C8  UNL     1      20.339   1.591  50.363  1.00  0.00     0.012 C 
HETATM    6  C10 UNL     1      20.749   1.557  48.916  1.00  0.00     0.055 C 
HETATM    7  C11 UNL     1      21.941   2.186  48.672  1.00  0.00     0.123 C 
HETATM    8  F2  UNL     1      22.618   2.189  47.514  1.00  0.00    -0.206 F 
HETATM    9  C12 UNL     1      22.727   2.889  49.730  1.00  0.00    -0.017 C 
HETATM   10  C13 UNL     1      24.016   2.626  49.742  1.00  0.00    -0.010 C 
HETATM   11  C14 UNL     1      24.764   2.557  51.028  1.00  0.00     0.086 C 
HETATM   12  C15 UNL     1      21.707   3.644  50.632  1.00  0.00     0.099 C 
HETATM   13  H9  UNL     1      20.767   1.010  52.576  1.00  0.00     0.165 HD
ENDROOT
BRANCH   1  14
HETATM   14  N2  UNL     1      25.152   1.174  52.997  1.00  0.00    -0.380 N 
HETATM   15  C4  UNL     1      25.238  -0.251  53.075  1.00  0.00     0.142 C 
HETATM   16  C3  UNL     1      26.178  -0.624  54.225  1.00  0.00     0.145 C 
HETATM   17  N1  UNL     1      27.420   0.068  53.935  1.00  0.00    -0.349 N 
HETATM   18  C2  UNL     1      28.622  -0.649  53.678  1.00  0.00     0.215 C 
HETATM   19  C17 UNL     1      27.402   1.520  53.916  1.00  0.00     0.145 C 
HETATM   20  C1  UNL     1      29.864   0.102  53.388  1.00  0.00     0.117 C 
HETATM   21  O1  UNL     1      28.567  -1.888  53.711  1.00  0.00    -0.274 OA
HETATM   22  C16 UNL     1      26.022   2.075  53.767  1.00  0.00     0.142 C 
ENDBRANCH   1  14
BRANCH   5  23
HETATM   23  C9  UNL     1      19.349   0.983  51.220  1.00  0.00     0.276 C 
HETATM   24  F1  UNL     1      18.762   2.127  51.759  1.00  0.00    -0.232 F 
HETATM   25 BR1  UNL     1      17.812   0.244  50.339  1.00  0.00    -0.051 Br
ENDBRANCH   5  23
TORSDOF 2
ENDMDL
MODEL 6
REMARK VINA RESULT:      -7.3      4.870      7.059
REMARK  2 active torsions:
REMARK  status: ('A' for Active; 'I' for Inactive)
REMARK       I    between atoms: C2_2  and  N1_4 
REMARK    1  A    between atoms: N2_7  and  C5_8 
REMARK    2  A    between atoms: C8_12  and  C9_13 
ROOT
HETATM    1  C5  UNL     1      21.846   1.161  52.039  1.00  0.00     0.026 C 
HETATM    2  C6  UNL     1      22.013   2.234  51.198  1.00  0.00     0.113 C 
HETATM    3  N3  UNL     1      23.220   3.040  50.952  1.00  0.00    -0.366 N 
HETATM    4  C7  UNL     1      24.439   2.966  51.739  1.00  0.00     0.023 C 
HETATM    5  C8  UNL     1      25.527   2.944  50.985  1.00  0.00     0.012 C 
HETATM    6  C10 UNL     1      26.441   1.786  51.282  1.00  0.00     0.055 C 
HETATM    7  C11 UNL     1      25.969   0.956  52.263  1.00  0.00     0.123 C 
HETATM    8  F2  UNL     1      26.495  -0.221  52.632  1.00  0.00    -0.206 F 
HETATM    9  C12 UNL     1      24.699   1.209  53.007  1.00  0.00    -0.017 C 
HETATM   10  C13 UNL     1      23.906   0.166  53.138  1.00  0.00    -0.010 C 
HETATM   11  C14 UNL     1      22.426   0.332  53.109  1.00  0.00     0.086 C 
HETATM   12  C15 UNL     1      24.630   2.738  53.290  1.00  0.00     0.099 C 
HETATM   13  H9  UNL     1      23.462   3.721  50.245  1.00  0.00     0.165 HD
ENDROOT
BRANCH   1  14
HETATM   14  N2  UNL     1      20.528   0.738  51.634  1.00  0.00    -0.380 N 
HETATM   15  C4  UNL     1      19.656   0.143  52.597  1.00  0.00     0.142 C 
HETATM   16  C3  UNL     1      18.433  -0.422  51.869  1.00  0.00     0.145 C 
HETATM   17  N1  UNL     1      17.885   0.699  51.129  1.00  0.00    -0.349 N 
HETATM   18  C2  UNL     1      16.585   1.204  51.409  1.00  0.00     0.215 C 
HETATM   19  C17 UNL     1      18.705   1.293  50.088  1.00  0.00     0.145 C 
HETATM   20  C1  UNL     1      16.069   2.349  50.625  1.00  0.00     0.117 C 
HETATM   21  O1  UNL     1      15.937   0.648  52.311  1.00  0.00    -0.274 OA
HETATM   22  C16 UNL     1      20.152   0.946  50.228  1.00  0.00     0.142 C 
ENDBRANCH   1  14
BRANCH   5  23
HETATM   23  C9  UNL     1      25.390   3.985  49.995  1.00  0.00     0.276 C 
HETATM   24  F1  UNL     1      25.303   5.100  50.829  1.00  0.00    -0.232 F 
HETATM   25 BR1  UNL     1      26.986   4.453  49.036  1.00  0.00    -0.051 Br
ENDBRANCH   5  23
TORSDOF 2
ENDMDL
MODEL 7
REMARK VINA RESULT:      -7.1      5.646      7.860
REMARK  2 active torsions:
REMARK  status: ('A' for Active; 'I' for Inactive)
REMARK       I    between atoms: C2_2  and  N1_4 
REMARK    1  A    between atoms: N2_7  and  C5_8 
REMARK    2  A    between atoms: C8_12  and  C9_13 
ROOT
HETATM    1  C5  UNL     1      20.709   1.433  51.258  1.00  0.00     0.026 C 
HETATM    2  C6  UNL     1      21.452   0.337  51.621  1.00  0.00     0.113 C 
HETATM    3  N3  UNL     1      22.875   0.263  51.991  1.00  0.00    -0.366 N 
HETATM    4  C7  UNL     1      23.829   1.349  51.836  1.00  0.00     0.023 C 
HETATM    5  C8  UNL     1      24.600   1.501  52.901  1.00  0.00     0.012 C 
HETATM    6  C10 UNL     1      24.599   2.902  53.449  1.00  0.00     0.055 C 
HETATM    7  C11 UNL     1      23.782   3.757  52.758  1.00  0.00     0.123 C 
HETATM    8  F2  UNL     1      23.474   5.017  53.102  1.00  0.00    -0.206 F 
HETATM    9  C12 UNL     1      23.015   3.352  51.542  1.00  0.00    -0.017 C 
HETATM   10  C13 UNL     1      21.755   3.731  51.520  1.00  0.00    -0.010 C 
HETATM   11  C14 UNL     1      20.714   2.863  50.904  1.00  0.00     0.086 C 
HETATM   12  C15 UNL     1      23.947   2.436  50.697  1.00  0.00     0.099 C 
HETATM   13  H9  UNL     1      23.440  -0.459  52.420  1.00  0.00     0.165 HD
ENDROOT
BRANCH   1  14
HETATM   14  N2  UNL     1      19.395   0.841  51.245  1.00  0.00    -0.380 N 
HETATM   15  C4  UNL     1      18.959   0.076  52.370  1.00  0.00     0.142 C 
HETATM   16  C3  UNL     1      17.647  -0.626  52.008  1.00  0.00     0.145 C 
HETATM   17  N1  UNL     1      16.756   0.438  51.586  1.00  0.00    -0.349 N 
HETATM   18  C2  UNL     1      15.562   0.730  52.303  1.00  0.00     0.215 C 
HETATM   19  C17 UNL     1      17.117   1.199  50.403  1.00  0.00     0.145 C 
HETATM   20  C1  UNL     1      14.684   1.824  51.832  1.00  0.00     0.117 C 
HETATM   21  O1  UNL     1      15.313   0.039  53.304  1.00  0.00    -0.274 OA
HETATM   22  C16 UNL     1      18.563   1.063  50.053  1.00  0.00     0.142 C 
ENDBRANCH   1  14
BRANCH   5  23
HETATM   23  C9  UNL     1      25.078   0.193  53.281  1.00  0.00     0.276 C 
HETATM   24  F1  UNL     1      25.911  -0.083  52.197  1.00  0.00    -0.232 F 
HETATM   25 BR1  UNL     1      26.387   0.149  54.684  1.00  0.00    -0.051 Br
ENDBRANCH   5  23
TORSDOF 2
ENDMDL
MODEL 8
REMARK VINA RESULT:      -7.0      4.366      6.598
REMARK  2 active torsions:
REMARK  status: ('A' for Active; 'I' for Inactive)
REMARK       I    between atoms: C2_2  and  N1_4 
REMARK    1  A    between atoms: N2_7  and  C5_8 
REMARK    2  A    between atoms: C8_12  and  C9_13 
ROOT
HETATM    1  C5  UNL     1      26.845   5.893  48.755  1.00  0.00     0.026 C 
HETATM    2  C6  UNL     1      27.838   4.977  48.511  1.00  0.00     0.113 C 
HETATM    3  N3  UNL     1      29.243   5.210  48.136  1.00  0.00    -0.366 N 
HETATM    4  C7  UNL     1      29.793   6.497  47.746  1.00  0.00     0.023 C 
HETATM    5  C8  UNL     1      30.960   6.743  48.321  1.00  0.00     0.012 C 
HETATM    6  C10 UNL     1      31.005   8.059  49.049  1.00  0.00     0.055 C 
HETATM    7  C11 UNL     1      29.824   8.749  49.002  1.00  0.00     0.123 C 
HETATM    8  F2  UNL     1      29.529   9.871  49.676  1.00  0.00    -0.206 F 
HETATM    9  C12 UNL     1      28.626   8.270  48.250  1.00  0.00    -0.017 C 
HETATM   10  C13 UNL     1      27.485   8.345  48.902  1.00  0.00    -0.010 C 
HETATM   11  C14 UNL     1      26.434   7.307  48.710  1.00  0.00     0.086 C 
HETATM   12  C15 UNL     1      29.138   7.665  46.910  1.00  0.00     0.099 C 
HETATM   13  H9  UNL     1      30.056   4.609  48.102  1.00  0.00     0.165 HD
ENDROOT
BRANCH   1  14
HETATM   14  N2  UNL     1      25.822   5.013  49.263  1.00  0.00    -0.380 N 
HETATM   15  C4  UNL     1      26.190   3.939  50.132  1.00  0.00     0.142 C 
HETATM   16  C3  UNL     1      24.973   3.030  50.331  1.00  0.00     0.145 C 
HETATM   17  N1  UNL     1      23.925   3.907  50.820  1.00  0.00    -0.349 N 
HETATM   18  C2  UNL     1      23.362   3.734  52.115  1.00  0.00     0.215 C 
HETATM   19  C17 UNL     1      23.465   4.971  49.945  1.00  0.00     0.145 C 
HETATM   20  C1  UNL     1      22.294   4.654  52.568  1.00  0.00     0.117 C 
HETATM   21  O1  UNL     1      23.801   2.804  52.810  1.00  0.00    -0.274 OA
HETATM   22  C16 UNL     1      24.436   5.275  48.850  1.00  0.00     0.142 C 
ENDBRANCH   1  14
BRANCH   5  23
HETATM   23  C9  UNL     1      31.772   5.558  48.179  1.00  0.00     0.276 C 
HETATM   24  F1  UNL     1      31.910   5.525  46.792  1.00  0.00    -0.232 F 
HETATM   25 BR1  UNL     1      33.621   5.741  48.660  1.00  0.00    -0.051 Br
ENDBRANCH   5  23
TORSDOF 2
ENDMDL
MODEL 9
REMARK VINA RESULT:      -7.0      2.352      3.764
REMARK  2 active torsions:
REMARK  status: ('A' for Active; 'I' for Inactive)
REMARK       I    between atoms: C2_2  and  N1_4 
REMARK    1  A    between atoms: N2_7  and  C5_8 
REMARK    2  A    between atoms: C8_12  and  C9_13 
ROOT
HETATM    1  C5  UNL     1      25.174   3.696  50.918  1.00  0.00     0.026 C 
HETATM    2  C6  UNL     1      23.964   3.973  51.505  1.00  0.00     0.113 C 
HETATM    3  N3  UNL     1      23.116   5.168  51.362  1.00  0.00    -0.366 N 
HETATM    4  C7  UNL     1      23.525   6.399  50.708  1.00  0.00     0.023 C 
HETATM    5  C8  UNL     1      22.590   6.880  49.903  1.00  0.00     0.012 C 
HETATM    6  C10 UNL     1      23.076   7.138  48.503  1.00  0.00     0.055 C 
HETATM    7  C11 UNL     1      24.391   6.810  48.314  1.00  0.00     0.123 C 
HETATM    8  F2  UNL     1      25.049   6.798  47.144  1.00  0.00    -0.206 F 
HETATM    9  C12 UNL     1      25.273   6.300  49.406  1.00  0.00    -0.017 C 
HETATM   10  C13 UNL     1      26.007   5.252  49.095  1.00  0.00    -0.010 C 
HETATM   11  C14 UNL     1      26.296   4.202  50.110  1.00  0.00     0.086 C 
HETATM   12  C15 UNL     1      24.932   7.115  50.687  1.00  0.00     0.099 C 
HETATM   13  H9  UNL     1      22.160   5.371  51.623  1.00  0.00     0.165 HD
ENDROOT
BRANCH   1  14
HETATM   14  N2  UNL     1      25.324   2.317  51.311  1.00  0.00    -0.380 N 
HETATM   15  C4  UNL     1      26.633   1.790  51.535  1.00  0.00     0.142 C 
HETATM   16  C3  UNL     1      26.529   0.272  51.706  1.00  0.00     0.145 C 
HETATM   17  N1  UNL     1      25.580   0.079  52.785  1.00  0.00    -0.349 N 
HETATM   18  C2  UNL     1      25.967  -0.535  54.009  1.00  0.00     0.215 C 
HETATM   19  C17 UNL     1      24.215   0.532  52.580  1.00  0.00     0.145 C 
HETATM   20  C1  UNL     1      24.961  -0.710  55.081  1.00  0.00     0.117 C 
HETATM   21  O1  UNL     1      27.148  -0.899  54.117  1.00  0.00    -0.274 OA
HETATM   22  C16 UNL     1      24.099   1.518  51.463  1.00  0.00     0.142 C 
ENDBRANCH   1  14
BRANCH   5  23
HETATM   23  C9  UNL     1      21.339   6.847  50.623  1.00  0.00     0.276 C 
HETATM   24  F1  UNL     1      21.023   8.205  50.619  1.00  0.00    -0.232 F 
HETATM   25 BR1  UNL     1      19.824   6.182  49.651  1.00  0.00    -0.051 Br
ENDBRANCH   5  23
TORSDOF 2
ENDMDL
