MODEL 1
REMARK VINA RESULT:      -7.8      0.000      0.000
REMARK  0 active torsions:
REMARK  status: ('A' for Active; 'I' for Inactive)
ROOT
HETATM    1  O1  UNL     1      24.781   2.917  53.349  1.00  0.00    -0.265 OA
HETATM    2  C1  UNL     1      25.550   2.075  52.847  1.00  0.00     0.262 C 
HETATM    3  C2  UNL     1      26.162   0.762  53.265  1.00  0.00     0.138 C 
HETATM    4  C3  UNL     1      25.230  -0.249  53.719  1.00  0.00    -0.017 C 
HETATM    5  C4  UNL     1      24.155  -0.897  54.063  1.00  0.00    -0.004 C 
HETATM    6  C5  UNL     1      22.752  -0.440  54.073  1.00  0.00    -0.002 C 
HETATM    7  C6  UNL     1      21.415  -0.433  54.212  1.00  0.00    -0.000 C 
HETATM    8  C7  UNL     1      20.607   0.808  53.941  1.00  0.00     0.204 C 
HETATM    9  O2  UNL     1      19.768   0.384  52.837  1.00  0.00    -0.334 OA
HETATM   10  C8  UNL     1      20.097   1.087  51.611  1.00  0.00     0.141 C 
HETATM   11  N1  UNL     1      19.593   2.197  52.114  1.00  0.00    -0.222 NA
HETATM   12  C9  UNL     1      19.857   3.579  51.745  1.00  0.00     0.235 C 
HETATM   13  N2  UNL     1      20.824   4.219  51.117  1.00  0.00    -0.254 NA
HETATM   14  C10 UNL     1      21.916   3.644  50.343  1.00  0.00     0.120 C 
HETATM   15  C11 UNL     1      22.588   2.506  50.041  1.00  0.00    -0.062 C 
HETATM   16  C12 UNL     1      23.626   3.232  49.300  1.00  0.00     0.038 C 
HETATM   17  C13 UNL     1      24.619   4.011  50.034  1.00  0.00     0.031 C 
HETATM   18  C14 UNL     1      25.790   3.446  50.692  1.00  0.00     0.179 C 
HETATM   19  O3  UNL     1      25.867   2.518  51.647  1.00  0.00    -0.321 OA
HETATM   20  C15 UNL     1      22.230   1.113  50.389  1.00  0.00     0.043 C 
HETATM   21  C16 UNL     1      20.740   0.819  50.248  1.00  0.00     0.090 C 
ENDROOT
TORSDOF 0
ENDMDL
MODEL 2
REMARK VINA RESULT:      -7.6      1.271      1.772
REMARK  0 active torsions:
REMARK  status: ('A' for Active; 'I' for Inactive)
ROOT
HETATM    1  O1  UNL     1      24.897   2.468  53.419  1.00  0.00    -0.265 OA
HETATM    2  C1  UNL     1      25.349   1.395  52.975  1.00  0.00     0.262 C 
HETATM    3  C2  UNL     1      25.221  -0.069  53.307  1.00  0.00     0.138 C 
HETATM    4  C3  UNL     1      23.869  -0.582  53.378  1.00  0.00    -0.017 C 
HETATM    5  C4  UNL     1      22.572  -0.701  53.369  1.00  0.00    -0.004 C 
HETATM    6  C5  UNL     1      21.541   0.330  53.139  1.00  0.00    -0.002 C 
HETATM    7  C6  UNL     1      20.346   0.921  52.977  1.00  0.00    -0.000 C 
HETATM    8  C7  UNL     1      20.234   2.403  52.731  1.00  0.00     0.204 C 
HETATM    9  O2  UNL     1      19.624   2.443  51.416  1.00  0.00    -0.334 OA
HETATM   10  C8  UNL     1      20.532   2.980  50.419  1.00  0.00     0.141 C 
HETATM   11  N1  UNL     1      20.422   4.175  50.966  1.00  0.00    -0.222 NA
HETATM   12  C9  UNL     1      21.325   5.312  50.885  1.00  0.00     0.235 C 
HETATM   13  N2  UNL     1      22.601   5.484  50.597  1.00  0.00    -0.254 NA
HETATM   14  C10 UNL     1      23.518   4.520  50.004  1.00  0.00     0.120 C 
HETATM   15  C11 UNL     1      23.708   3.217  49.685  1.00  0.00    -0.062 C 
HETATM   16  C12 UNL     1      25.111   3.439  49.315  1.00  0.00     0.038 C 
HETATM   17  C13 UNL     1      26.102   3.665  50.365  1.00  0.00     0.031 C 
HETATM   18  C14 UNL     1      26.706   2.612  51.170  1.00  0.00     0.179 C 
HETATM   19  O3  UNL     1      26.130   1.705  51.960  1.00  0.00    -0.321 OA
HETATM   20  C15 UNL     1      22.724   2.112  49.721  1.00  0.00     0.043 C 
HETATM   21  C16 UNL     1      21.345   2.515  49.209  1.00  0.00     0.090 C 
ENDROOT
TORSDOF 0
ENDMDL
MODEL 3
REMARK VINA RESULT:      -7.4      2.281      4.873
REMARK  0 active torsions:
REMARK  status: ('A' for Active; 'I' for Inactive)
ROOT
HETATM    1  O1  UNL     1      20.722   0.626  54.645  1.00  0.00    -0.265 OA
HETATM    2  C1  UNL     1      20.551  -0.472  54.081  1.00  0.00     0.262 C 
HETATM    3  C2  UNL     1      19.392  -1.228  53.482  1.00  0.00     0.138 C 
HETATM    4  C3  UNL     1      18.621  -0.513  52.488  1.00  0.00    -0.017 C 
HETATM    5  C4  UNL     1      18.161   0.392  51.672  1.00  0.00    -0.004 C 
HETATM    6  C5  UNL     1      18.632   1.772  51.447  1.00  0.00    -0.002 C 
HETATM    7  C6  UNL     1      18.740   3.016  50.949  1.00  0.00    -0.000 C 
HETATM    8  C7  UNL     1      19.771   3.980  51.473  1.00  0.00     0.204 C 
HETATM    9  O2  UNL     1      20.586   4.215  50.296  1.00  0.00    -0.334 OA
HETATM   10  C8  UNL     1      21.924   3.675  50.453  1.00  0.00     0.141 C 
HETATM   11  N1  UNL     1      22.196   4.610  51.341  1.00  0.00    -0.222 NA
HETATM   12  C9  UNL     1      23.209   4.622  52.385  1.00  0.00     0.235 C 
HETATM   13  N2  UNL     1      23.915   3.710  53.025  1.00  0.00    -0.254 NA
HETATM   14  C10 UNL     1      24.061   2.300  52.689  1.00  0.00     0.120 C 
HETATM   15  C11 UNL     1      23.579   1.280  51.938  1.00  0.00    -0.062 C 
HETATM   16  C12 UNL     1      24.414   0.287  52.624  1.00  0.00     0.038 C 
HETATM   17  C13 UNL     1      24.072  -0.121  53.985  1.00  0.00     0.031 C 
HETATM   18  C14 UNL     1      23.031  -1.083  54.321  1.00  0.00     0.179 C 
HETATM   19  O3  UNL     1      21.727  -1.064  54.038  1.00  0.00    -0.321 OA
HETATM   20  C15 UNL     1      22.593   1.340  50.836  1.00  0.00     0.043 C 
HETATM   21  C16 UNL     1      22.794   2.537  49.912  1.00  0.00     0.090 C 
ENDROOT
TORSDOF 0
ENDMDL
MODEL 4
REMARK VINA RESULT:      -7.1      2.497      5.199
REMARK  0 active torsions:
REMARK  status: ('A' for Active; 'I' for Inactive)
ROOT
HETATM    1  O1  UNL     1      25.882   2.621  49.275  1.00  0.00    -0.265 OA
HETATM    2  C1  UNL     1      26.677   3.487  49.690  1.00  0.00     0.262 C 
HETATM    3  C2  UNL     1      27.265   4.773  49.171  1.00  0.00     0.138 C 
HETATM    4  C3  UNL     1      26.311   5.761  48.714  1.00  0.00    -0.017 C 
HETATM    5  C4  UNL     1      25.219   6.394  48.392  1.00  0.00    -0.004 C 
HETATM    6  C5  UNL     1      23.817   5.940  48.481  1.00  0.00    -0.002 C 
HETATM    7  C6  UNL     1      22.475   5.930  48.414  1.00  0.00    -0.000 C 
HETATM    8  C7  UNL     1      21.683   4.707  48.793  1.00  0.00     0.204 C 
HETATM    9  O2  UNL     1      20.903   5.193  49.915  1.00  0.00    -0.334 OA
HETATM   10  C8  UNL     1      21.296   4.555  51.158  1.00  0.00     0.141 C 
HETATM   11  N1  UNL     1      20.766   3.421  50.742  1.00  0.00    -0.222 NA
HETATM   12  C9  UNL     1      21.049   2.060  51.171  1.00  0.00     0.235 C 
HETATM   13  N2  UNL     1      22.049   1.452  51.780  1.00  0.00    -0.254 NA
HETATM   14  C10 UNL     1      23.180   2.064  52.464  1.00  0.00     0.120 C 
HETATM   15  C11 UNL     1      23.866   3.214  52.668  1.00  0.00    -0.062 C 
HETATM   16  C12 UNL     1      24.943   2.527  53.391  1.00  0.00     0.038 C 
HETATM   17  C13 UNL     1      25.896   1.706  52.648  1.00  0.00     0.031 C 
HETATM   18  C14 UNL     1      27.030   2.231  51.900  1.00  0.00     0.179 C 
HETATM   19  O3  UNL     1      27.056   3.107  50.894  1.00  0.00    -0.321 OA
HETATM   20  C15 UNL     1      23.491   4.588  52.265  1.00  0.00     0.043 C 
HETATM   21  C16 UNL     1      22.011   4.894  52.469  1.00  0.00     0.090 C 
ENDROOT
TORSDOF 0
ENDMDL
MODEL 5
REMARK VINA RESULT:      -7.1      3.610      5.859
REMARK  0 active torsions:
REMARK  status: ('A' for Active; 'I' for Inactive)
ROOT
HETATM    1  O1  UNL     1      25.980   7.796  50.314  1.00  0.00    -0.265 OA
HETATM    2  C1  UNL     1      26.365   7.914  49.135  1.00  0.00     0.262 C 
HETATM    3  C2  UNL     1      27.549   7.462  48.319  1.00  0.00     0.138 C 
HETATM    4  C3  UNL     1      27.827   6.041  48.347  1.00  0.00    -0.017 C 
HETATM    5  C4  UNL     1      27.795   4.763  48.594  1.00  0.00    -0.004 C 
HETATM    6  C5  UNL     1      26.876   4.003  49.465  1.00  0.00    -0.002 C 
HETATM    7  C6  UNL     1      26.279   2.983  50.103  1.00  0.00    -0.000 C 
HETATM    8  C7  UNL     1      25.132   3.218  51.050  1.00  0.00     0.204 C 
HETATM    9  O2  UNL     1      24.056   2.495  50.401  1.00  0.00    -0.334 OA
HETATM   10  C8  UNL     1      23.021   3.391  49.917  1.00  0.00     0.141 C 
HETATM   11  N1  UNL     1      22.662   3.644  51.160  1.00  0.00    -0.222 NA
HETATM   12  C9  UNL     1      21.941   4.789  51.696  1.00  0.00     0.235 C 
HETATM   13  N2  UNL     1      21.711   6.026  51.303  1.00  0.00    -0.254 NA
HETATM   14  C10 UNL     1      21.950   6.601  49.986  1.00  0.00     0.120 C 
HETATM   15  C11 UNL     1      22.558   6.423  48.788  1.00  0.00    -0.062 C 
HETATM   16  C12 UNL     1      22.244   7.787  48.346  1.00  0.00     0.038 C 
HETATM   17  C13 UNL     1      22.976   8.914  48.919  1.00  0.00     0.031 C 
HETATM   18  C14 UNL     1      24.314   9.322  48.511  1.00  0.00     0.179 C 
HETATM   19  O3  UNL     1      25.454   8.629  48.508  1.00  0.00    -0.321 OA
HETATM   20  C15 UNL     1      23.218   5.205  48.269  1.00  0.00     0.043 C 
HETATM   21  C16 UNL     1      22.461   3.922  48.595  1.00  0.00     0.090 C 
ENDROOT
TORSDOF 0
ENDMDL
MODEL 6
REMARK VINA RESULT:      -7.0      2.162      3.784
REMARK  0 active torsions:
REMARK  status: ('A' for Active; 'I' for Inactive)
ROOT
HETATM    1  O1  UNL     1      23.923   5.693  51.096  1.00  0.00    -0.265 OA
HETATM    2  C1  UNL     1      24.438   5.602  49.965  1.00  0.00     0.262 C 
HETATM    3  C2  UNL     1      25.787   5.237  49.401  1.00  0.00     0.138 C 
HETATM    4  C3  UNL     1      26.325   3.964  49.830  1.00  0.00    -0.017 C 
HETATM    5  C4  UNL     1      26.504   2.810  50.407  1.00  0.00    -0.004 C 
HETATM    6  C5  UNL     1      25.637   2.101  51.368  1.00  0.00    -0.002 C 
HETATM    7  C6  UNL     1      25.163   1.161  52.204  1.00  0.00    -0.000 C 
HETATM    8  C7  UNL     1      23.873   1.361  52.953  1.00  0.00     0.204 C 
HETATM    9  O2  UNL     1      23.055   0.283  52.433  1.00  0.00    -0.334 OA
HETATM   10  C8  UNL     1      21.945   0.783  51.643  1.00  0.00     0.141 C 
HETATM   11  N1  UNL     1      21.376   1.246  52.739  1.00  0.00    -0.222 NA
HETATM   12  C9  UNL     1      20.383   2.299  52.888  1.00  0.00     0.235 C 
HETATM   13  N2  UNL     1      19.977   3.321  52.160  1.00  0.00    -0.254 NA
HETATM   14  C10 UNL     1      20.280   3.596  50.762  1.00  0.00     0.120 C 
HETATM   15  C11 UNL     1      21.071   3.271  49.711  1.00  0.00    -0.062 C 
HETATM   16  C12 UNL     1      20.566   4.382  48.896  1.00  0.00     0.038 C 
HETATM   17  C13 UNL     1      20.983   5.747  49.207  1.00  0.00     0.031 C 
HETATM   18  C14 UNL     1      22.261   6.328  48.818  1.00  0.00     0.179 C 
HETATM   19  O3  UNL     1      23.502   5.925  49.095  1.00  0.00    -0.321 OA
HETATM   20  C15 UNL     1      22.017   2.139  49.593  1.00  0.00     0.043 C 
HETATM   21  C16 UNL     1      21.481   0.840  50.185  1.00  0.00     0.090 C 
ENDROOT
TORSDOF 0
ENDMDL
MODEL 7
REMARK VINA RESULT:      -7.0      1.815      4.839
REMARK  0 active torsions:
REMARK  status: ('A' for Active; 'I' for Inactive)
ROOT
HETATM    1  O1  UNL     1      20.392   0.156  50.901  1.00  0.00    -0.265 OA
HETATM    2  C1  UNL     1      19.743   0.291  51.956  1.00  0.00     0.262 C 
HETATM    3  C2  UNL     1      19.682  -0.390  53.300  1.00  0.00     0.138 C 
HETATM    4  C3  UNL     1      20.942  -0.508  54.002  1.00  0.00    -0.017 C 
HETATM    5  C4  UNL     1      22.199  -0.454  54.338  1.00  0.00    -0.004 C 
HETATM    6  C5  UNL     1      23.345   0.087  53.582  1.00  0.00    -0.002 C 
HETATM    7  C6  UNL     1      24.594   0.462  53.258  1.00  0.00    -0.000 C 
HETATM    8  C7  UNL     1      24.902   1.077  51.918  1.00  0.00     0.204 C 
HETATM    9  O2  UNL     1      25.379   2.393  52.296  1.00  0.00    -0.334 OA
HETATM   10  C8  UNL     1      24.469   3.438  51.865  1.00  0.00     0.141 C 
HETATM   11  N1  UNL     1      24.810   3.216  50.611  1.00  0.00    -0.222 NA
HETATM   12  C9  UNL     1      24.084   3.526  49.389  1.00  0.00     0.235 C 
HETATM   13  N2  UNL     1      22.826   3.773  49.077  1.00  0.00    -0.254 NA
HETATM   14  C10 UNL     1      21.721   4.051  49.985  1.00  0.00     0.120 C 
HETATM   15  C11 UNL     1      21.307   4.022  51.275  1.00  0.00    -0.062 C 
HETATM   16  C12 UNL     1      19.924   4.353  50.913  1.00  0.00     0.038 C 
HETATM   17  C13 UNL     1      19.086   3.338  50.279  1.00  0.00     0.031 C 
HETATM   18  C14 UNL     1      18.413   2.261  50.992  1.00  0.00     0.179 C 
HETATM   19  O3  UNL     1      18.921   1.303  51.769  1.00  0.00    -0.321 OA
HETATM   20  C15 UNL     1      22.114   3.767  52.490  1.00  0.00     0.043 C 
HETATM   21  C16 UNL     1      23.480   4.444  52.460  1.00  0.00     0.090 C 
ENDROOT
TORSDOF 0
ENDMDL
MODEL 8
REMARK VINA RESULT:      -6.8     10.819     13.542
REMARK  0 active torsions:
REMARK  status: ('A' for Active; 'I' for Inactive)
ROOT
HETATM    1  O1  UNL     1      31.543   4.513  47.034  1.00  0.00    -0.265 OA
HETATM    2  C1  UNL     1      32.443   4.153  47.817  1.00  0.00     0.262 C 
HETATM    3  C2  UNL     1      33.556   3.137  47.815  1.00  0.00     0.138 C 
HETATM    4  C3  UNL     1      34.459   3.196  46.685  1.00  0.00    -0.017 C 
HETATM    5  C4  UNL     1      35.052   3.516  45.571  1.00  0.00    -0.004 C 
HETATM    6  C5  UNL     1      34.692   4.555  44.586  1.00  0.00    -0.002 C 
HETATM    7  C6  UNL     1      34.727   5.350  43.504  1.00  0.00    -0.000 C 
HETATM    8  C7  UNL     1      33.654   6.377  43.254  1.00  0.00     0.204 C 
HETATM    9  O2  UNL     1      34.409   7.614  43.295  1.00  0.00    -0.334 OA
HETATM   10  C8  UNL     1      34.046   8.428  44.441  1.00  0.00     0.141 C 
HETATM   11  N1  UNL     1      32.873   8.674  43.891  1.00  0.00    -0.222 NA
HETATM   12  C9  UNL     1      31.629   9.089  44.521  1.00  0.00     0.235 C 
HETATM   13  N2  UNL     1      31.127   9.039  45.740  1.00  0.00    -0.254 NA
HETATM   14  C10 UNL     1      31.824   8.720  46.978  1.00  0.00     0.120 C 
HETATM   15  C11 UNL     1      32.960   8.212  47.516  1.00  0.00    -0.062 C 
HETATM   16  C12 UNL     1      32.402   8.216  48.874  1.00  0.00     0.038 C 
HETATM   17  C13 UNL     1      31.396   7.221  49.238  1.00  0.00     0.031 C 
HETATM   18  C14 UNL     1      31.693   5.841  49.597  1.00  0.00     0.179 C 
HETATM   19  O3  UNL     1      32.322   4.894  48.900  1.00  0.00    -0.321 OA
HETATM   20  C15 UNL     1      34.226   7.872  46.829  1.00  0.00     0.043 C 
HETATM   21  C16 UNL     1      34.634   8.896  45.774  1.00  0.00     0.090 C 
ENDROOT
TORSDOF 0
ENDMDL
MODEL 9
REMARK VINA RESULT:      -6.7     10.625     13.613
REMARK  0 active torsions:
REMARK  status: ('A' for Active; 'I' for Inactive)
ROOT
HETATM    1  O1  UNL     1      33.054   4.505  44.318  1.00  0.00    -0.265 OA
HETATM    2  C1  UNL     1      34.222   4.816  44.014  1.00  0.00     0.262 C 
HETATM    3  C2  UNL     1      34.891   5.683  42.979  1.00  0.00     0.138 C 
HETATM    4  C3  UNL     1      34.430   7.054  42.913  1.00  0.00    -0.017 C 
HETATM    5  C4  UNL     1      33.795   8.173  43.114  1.00  0.00    -0.004 C 
HETATM    6  C5  UNL     1      32.705   8.471  44.063  1.00  0.00    -0.002 C 
HETATM    7  C6  UNL     1      31.762   9.136  44.752  1.00  0.00    -0.000 C 
HETATM    8  C7  UNL     1      30.903   8.439  45.773  1.00  0.00     0.204 C 
HETATM    9  O2  UNL     1      31.262   9.137  46.992  1.00  0.00    -0.334 OA
HETATM   10  C8  UNL     1      31.970   8.271  47.918  1.00  0.00     0.141 C 
HETATM   11  N1  UNL     1      30.857   7.597  48.136  1.00  0.00    -0.222 NA
HETATM   12  C9  UNL     1      30.684   6.242  48.634  1.00  0.00     0.235 C 
HETATM   13  N2  UNL     1      31.436   5.161  48.709  1.00  0.00    -0.254 NA
HETATM   14  C10 UNL     1      32.873   5.060  48.494  1.00  0.00     0.120 C 
HETATM   15  C11 UNL     1      33.973   5.691  48.015  1.00  0.00    -0.062 C 
HETATM   16  C12 UNL     1      34.809   4.493  48.158  1.00  0.00     0.038 C 
HETATM   17  C13 UNL     1      34.638   3.383  47.224  1.00  0.00     0.031 C 
HETATM   18  C14 UNL     1      35.193   3.344  45.877  1.00  0.00     0.179 C 
HETATM   19  O3  UNL     1      35.013   4.184  44.856  1.00  0.00    -0.321 OA
HETATM   20  C15 UNL     1      34.106   7.101  47.586  1.00  0.00     0.043 C 
HETATM   21  C16 UNL     1      33.374   8.080  48.497  1.00  0.00     0.090 C 
ENDROOT
TORSDOF 0
ENDMDL
