MODEL 1
REMARK VINA RESULT:      -8.0      0.000      0.000
REMARK  9 active torsions:
REMARK  status: ('A' for Active; 'I' for Inactive)
REMARK       I    between atoms: C1_2  and  N1_3 
REMARK    1  A    between atoms: C1_2  and  C19_24 
REMARK    2  A    between atoms: N1_3  and  C2_4 
REMARK    3  A    between atoms: C2_4  and  C3_5 
REMARK    4  A    between atoms: C2_4  and  C11_14 
REMARK    5  A    between atoms: C3_5  and  C4_6 
REMARK    6  A    between atoms: C4_6  and  C5_7 
REMARK    7  A    between atoms: C5_7  and  C6_9 
REMARK       I    between atoms: C11_14  and  N2_16 
REMARK    8  A    between atoms: N2_16  and  C12_17 
REMARK    9  A    between atoms: C12_17  and  C13_18 
ROOT
HETATM    1  C2  UNL     1      27.072   1.117  53.232  1.00  0.00     0.176 C 
ENDROOT
BRANCH   1   2
HETATM    2  N1  UNL     1      28.350   0.437  53.253  1.00  0.00    -0.343 N 
HETATM    3  C1  UNL     1      28.394  -0.984  53.214  1.00  0.00     0.283 C 
HETATM    4  O1  UNL     1      27.548  -1.921  53.162  1.00  0.00    -0.267 OA
HETATM    5  H1  UNL     1      29.288   0.894  53.294  1.00  0.00     0.163 HD
BRANCH   3   6
HETATM    6  C19 UNL     1      29.651  -1.798  53.230  1.00  0.00     0.444 C 
HETATM    7  F2  UNL     1      30.512  -1.212  54.114  1.00  0.00    -0.204 F 
HETATM    8  F3  UNL     1      29.392  -3.092  53.616  1.00  0.00    -0.204 F 
ENDBRANCH   3   6
ENDBRANCH   1   2
BRANCH   1   9
HETATM    9  C3  UNL     1      26.528   1.143  51.803  1.00  0.00     0.038 C 
BRANCH   9  10
HETATM   10  C4  UNL     1      26.748   2.480  51.166  1.00  0.00     0.041 C 
BRANCH  10  11
HETATM   11  C5  UNL     1      25.503   3.166  50.674  1.00  0.00     0.181 C 
HETATM   12  F1  UNL     1      25.402   3.040  49.297  1.00  0.00    -0.248 F 
BRANCH  11  13
HETATM   13  C6  UNL     1      24.330   2.603  51.389  1.00  0.00     0.065 A 
HETATM   14  C7  UNL     1      23.767   3.543  52.406  1.00  0.00    -0.015 A 
HETATM   15  C8  UNL     1      22.489   3.835  52.151  1.00  0.00    -0.004 A 
HETATM   16  C9  UNL     1      22.122   3.104  50.943  1.00  0.00    -0.004 A 
HETATM   17  C10 UNL     1      23.156   2.402  50.502  1.00  0.00    -0.015 A 
ENDBRANCH  11  13
ENDBRANCH  10  11
ENDBRANCH   9  10
ENDBRANCH   1   9
BRANCH   1  18
HETATM   18  C11 UNL     1      26.104   0.519  54.166  1.00  0.00     0.240 C 
HETATM   19  O2  UNL     1      26.373   0.788  55.365  1.00  0.00    -0.271 OA
HETATM   20  N2  UNL     1      24.991  -0.271  53.788  1.00  0.00    -0.355 N 
HETATM   21  H13 UNL     1      24.935  -0.385  52.745  1.00  0.00     0.162 HD
BRANCH  20  22
HETATM   22  C12 UNL     1      24.034  -0.863  54.694  1.00  0.00     0.161 C 
BRANCH  22  23
HETATM   23  C13 UNL     1      22.635  -0.717  54.283  1.00  0.00    -0.041 A 
HETATM   24  C14 UNL     1      22.157   0.416  53.657  1.00  0.00     0.009 A 
HETATM   25  C15 UNL     1      20.851   0.618  53.246  1.00  0.00     0.001 A 
HETATM   26  C16 UNL     1      19.972  -0.404  53.490  1.00  0.00     0.000 A 
HETATM   27  C17 UNL     1      20.370  -1.563  54.107  1.00  0.00     0.001 A 
HETATM   28  C18 UNL     1      21.703  -1.711  54.501  1.00  0.00     0.009 A 
ENDBRANCH  22  23
ENDBRANCH  20  22
ENDBRANCH   1  18
TORSDOF 9
ENDMDL
MODEL 2
REMARK VINA RESULT:      -7.9      1.272      1.650
REMARK  9 active torsions:
REMARK  status: ('A' for Active; 'I' for Inactive)
REMARK       I    between atoms: C1_2  and  N1_3 
REMARK    1  A    between atoms: C1_2  and  C19_24 
REMARK    2  A    between atoms: N1_3  and  C2_4 
REMARK    3  A    between atoms: C2_4  and  C3_5 
REMARK    4  A    between atoms: C2_4  and  C11_14 
REMARK    5  A    between atoms: C3_5  and  C4_6 
REMARK    6  A    between atoms: C4_6  and  C5_7 
REMARK    7  A    between atoms: C5_7  and  C6_9 
REMARK       I    between atoms: C11_14  and  N2_16 
REMARK    8  A    between atoms: N2_16  and  C12_17 
REMARK    9  A    between atoms: C12_17  and  C13_18 
ROOT
HETATM    1  C2  UNL     1      26.486  -0.114  53.455  1.00  0.00     0.176 C 
ENDROOT
BRANCH   1   2
HETATM    2  N1  UNL     1      27.460  -1.184  53.422  1.00  0.00    -0.343 N 
HETATM    3  C1  UNL     1      28.849  -0.876  53.423  1.00  0.00     0.283 C 
HETATM    4  O1  UNL     1      29.549   0.176  53.446  1.00  0.00    -0.267 OA
HETATM    5  H1  UNL     1      27.248  -2.206  53.398  1.00  0.00     0.163 HD
BRANCH   3   6
HETATM    6  C19 UNL     1      29.947  -1.893  53.392  1.00  0.00     0.444 C 
HETATM    7  F2  UNL     1      30.900  -1.500  54.288  1.00  0.00    -0.204 F 
HETATM    8  F3  UNL     1      29.472  -3.138  53.730  1.00  0.00    -0.204 F 
ENDBRANCH   3   6
ENDBRANCH   1   2
BRANCH   1   9
HETATM    9  C3  UNL     1      26.320   0.473  52.053  1.00  0.00     0.038 C 
BRANCH   9  10
HETATM   10  C4  UNL     1      26.693   1.923  52.027  1.00  0.00     0.041 C 
BRANCH  10  11
HETATM   11  C5  UNL     1      25.884   2.774  51.088  1.00  0.00     0.181 C 
HETATM   12  F1  UNL     1      26.369   2.651  49.795  1.00  0.00    -0.248 F 
BRANCH  11  13
HETATM   13  C6  UNL     1      24.454   2.391  51.203  1.00  0.00     0.065 A 
HETATM   14  C7  UNL     1      23.757   3.086  52.328  1.00  0.00    -0.015 A 
HETATM   15  C8  UNL     1      22.722   3.809  51.891  1.00  0.00    -0.004 A 
HETATM   16  C9  UNL     1      22.667   3.637  50.444  1.00  0.00    -0.004 A 
HETATM   17  C10 UNL     1      23.642   2.836  50.042  1.00  0.00    -0.015 A 
ENDBRANCH  11  13
ENDBRANCH  10  11
ENDBRANCH   9  10
ENDBRANCH   1   9
BRANCH   1  18
HETATM   18  C11 UNL     1      25.195  -0.549  54.012  1.00  0.00     0.240 C 
HETATM   19  O2  UNL     1      25.332  -1.171  55.097  1.00  0.00    -0.271 OA
HETATM   20  N2  UNL     1      23.932  -0.310  53.419  1.00  0.00    -0.355 N 
HETATM   21  H13 UNL     1      24.022   0.222  52.518  1.00  0.00     0.162 HD
BRANCH  20  22
HETATM   22  C12 UNL     1      22.658  -0.731  53.957  1.00  0.00     0.161 C 
BRANCH  22  23
HETATM   23  C13 UNL     1      21.503  -0.402  53.117  1.00  0.00    -0.041 A 
HETATM   24  C14 UNL     1      20.202  -0.600  53.531  1.00  0.00     0.009 A 
HETATM   25  C15 UNL     1      19.069  -0.313  52.790  1.00  0.00     0.001 A 
HETATM   26  C16 UNL     1      19.277   0.211  51.541  1.00  0.00     0.000 A 
HETATM   27  C17 UNL     1      20.540   0.439  51.057  1.00  0.00     0.001 A 
HETATM   28  C18 UNL     1      21.648   0.129  51.853  1.00  0.00     0.009 A 
ENDBRANCH  22  23
ENDBRANCH  20  22
ENDBRANCH   1  18
TORSDOF 9
ENDMDL
MODEL 3
REMARK VINA RESULT:      -7.8      1.271      2.151
REMARK  9 active torsions:
REMARK  status: ('A' for Active; 'I' for Inactive)
REMARK       I    between atoms: C1_2  and  N1_3 
REMARK    1  A    between atoms: C1_2  and  C19_24 
REMARK    2  A    between atoms: N1_3  and  C2_4 
REMARK    3  A    between atoms: C2_4  and  C3_5 
REMARK    4  A    between atoms: C2_4  and  C11_14 
REMARK    5  A    between atoms: C3_5  and  C4_6 
REMARK    6  A    between atoms: C4_6  and  C5_7 
REMARK    7  A    between atoms: C5_7  and  C6_9 
REMARK       I    between atoms: C11_14  and  N2_16 
REMARK    8  A    between atoms: N2_16  and  C12_17 
REMARK    9  A    between atoms: C12_17  and  C13_18 
ROOT
HETATM    1  C2  UNL     1      27.352   1.123  53.273  1.00  0.00     0.176 C 
ENDROOT
BRANCH   1   2
HETATM    2  N1  UNL     1      28.589   0.372  53.324  1.00  0.00    -0.343 N 
HETATM    3  C1  UNL     1      28.557  -1.047  53.240  1.00  0.00     0.283 C 
HETATM    4  O1  UNL     1      27.664  -1.934  53.123  1.00  0.00    -0.267 OA
HETATM    5  H1  UNL     1      29.547   0.775  53.418  1.00  0.00     0.163 HD
BRANCH   3   6
HETATM    6  C19 UNL     1      29.766  -1.930  53.280  1.00  0.00     0.444 C 
HETATM    7  F2  UNL     1      30.660  -1.368  54.146  1.00  0.00    -0.204 F 
HETATM    8  F3  UNL     1      29.435  -3.195  53.706  1.00  0.00    -0.204 F 
ENDBRANCH   3   6
ENDBRANCH   1   2
BRANCH   1   9
HETATM    9  C3  UNL     1      26.870   1.222  51.825  1.00  0.00     0.038 C 
BRANCH   9  10
HETATM   10  C4  UNL     1      26.675   2.650  51.418  1.00  0.00     0.041 C 
BRANCH  10  11
HETATM   11  C5  UNL     1      25.325   2.970  50.838  1.00  0.00     0.181 C 
HETATM   12  F1  UNL     1      24.642   3.841  51.672  1.00  0.00    -0.248 F 
BRANCH  11  13
HETATM   13  C6  UNL     1      25.507   3.512  49.468  1.00  0.00     0.065 A 
HETATM   14  C7  UNL     1      24.652   4.708  49.200  1.00  0.00    -0.015 A 
HETATM   15  C8  UNL     1      25.389   5.775  48.879  1.00  0.00    -0.004 A 
HETATM   16  C9  UNL     1      26.784   5.351  48.912  1.00  0.00    -0.004 A 
HETATM   17  C10 UNL     1      26.864   4.071  49.244  1.00  0.00    -0.015 A 
ENDBRANCH  11  13
ENDBRANCH  10  11
ENDBRANCH   9  10
ENDBRANCH   1   9
BRANCH   1  18
HETATM   18  C11 UNL     1      26.314   0.552  54.147  1.00  0.00     0.240 C 
HETATM   19  O2  UNL     1      26.476   0.879  55.351  1.00  0.00    -0.271 OA
HETATM   20  N2  UNL     1      25.247  -0.271  53.712  1.00  0.00    -0.355 N 
HETATM   21  H13 UNL     1      25.282  -0.432  52.675  1.00  0.00     0.162 HD
BRANCH  20  22
HETATM   22  C12 UNL     1      24.223  -0.837  54.560  1.00  0.00     0.161 C 
BRANCH  22  23
HETATM   23  C13 UNL     1      22.856  -0.670  54.058  1.00  0.00    -0.041 A 
HETATM   24  C14 UNL     1      21.789  -1.392  54.553  1.00  0.00     0.009 A 
HETATM   25  C15 UNL     1      20.477  -1.284  54.125  1.00  0.00     0.001 A 
HETATM   26  C16 UNL     1      20.237  -0.380  53.123  1.00  0.00     0.000 A 
HETATM   27  C17 UNL     1      21.245   0.376  52.580  1.00  0.00     0.001 A 
HETATM   28  C18 UNL     1      22.552   0.224  53.053  1.00  0.00     0.009 A 
ENDBRANCH  22  23
ENDBRANCH  20  22
ENDBRANCH   1  18
TORSDOF 9
ENDMDL
MODEL 4
REMARK VINA RESULT:      -7.8      1.606      2.183
REMARK  9 active torsions:
REMARK  status: ('A' for Active; 'I' for Inactive)
REMARK       I    between atoms: C1_2  and  N1_3 
REMARK    1  A    between atoms: C1_2  and  C19_24 
REMARK    2  A    between atoms: N1_3  and  C2_4 
REMARK    3  A    between atoms: C2_4  and  C3_5 
REMARK    4  A    between atoms: C2_4  and  C11_14 
REMARK    5  A    between atoms: C3_5  and  C4_6 
REMARK    6  A    between atoms: C4_6  and  C5_7 
REMARK    7  A    between atoms: C5_7  and  C6_9 
REMARK       I    between atoms: C11_14  and  N2_16 
REMARK    8  A    between atoms: N2_16  and  C12_17 
REMARK    9  A    between atoms: C12_17  and  C13_18 
ROOT
HETATM    1  C2  UNL     1      25.999   0.127  54.223  1.00  0.00     0.176 C 
ENDROOT
BRANCH   1   2
HETATM    2  N1  UNL     1      27.147  -0.722  53.977  1.00  0.00    -0.343 N 
HETATM    3  C1  UNL     1      28.459  -0.197  54.134  1.00  0.00     0.283 C 
HETATM    4  O1  UNL     1      28.964   0.915  54.459  1.00  0.00    -0.267 OA
HETATM    5  H1  UNL     1      27.117  -1.724  53.686  1.00  0.00     0.163 HD
BRANCH   3   6
HETATM    6  C19 UNL     1      29.719  -0.975  53.910  1.00  0.00     0.444 C 
HETATM    7  F2  UNL     1      29.412  -2.039  53.111  1.00  0.00    -0.204 F 
HETATM    8  F3  UNL     1      30.675  -0.195  53.304  1.00  0.00    -0.204 F 
ENDBRANCH   3   6
ENDBRANCH   1   2
BRANCH   1   9
HETATM    9  C3  UNL     1      25.733   0.998  52.995  1.00  0.00     0.038 C 
BRANCH   9  10
HETATM   10  C4  UNL     1      25.201   2.340  53.391  1.00  0.00     0.041 C 
BRANCH  10  11
HETATM   11  C5  UNL     1      24.108   2.879  52.510  1.00  0.00     0.181 C 
HETATM   12  F1  UNL     1      24.046   4.260  52.618  1.00  0.00    -0.248 F 
BRANCH  11  13
HETATM   13  C6  UNL     1      24.343   2.423  51.117  1.00  0.00     0.065 A 
HETATM   14  C7  UNL     1      23.076   2.121  50.385  1.00  0.00    -0.015 A 
HETATM   15  C8  UNL     1      22.951   2.874  49.290  1.00  0.00    -0.004 A 
HETATM   16  C9  UNL     1      24.132   3.728  49.226  1.00  0.00    -0.004 A 
HETATM   17  C10 UNL     1      24.929   3.481  50.255  1.00  0.00    -0.015 A 
ENDBRANCH  11  13
ENDBRANCH  10  11
ENDBRANCH   9  10
ENDBRANCH   1   9
BRANCH   1  18
HETATM   18  C11 UNL     1      24.805  -0.644  54.606  1.00  0.00     0.240 C 
HETATM   19  O2  UNL     1      25.018  -1.387  55.598  1.00  0.00    -0.271 OA
HETATM   20  N2  UNL     1      23.550  -0.576  53.954  1.00  0.00    -0.355 N 
HETATM   21  H13 UNL     1      23.569   0.099  53.148  1.00  0.00     0.162 HD
BRANCH  20  22
HETATM   22  C12 UNL     1      22.371  -1.325  54.320  1.00  0.00     0.161 C 
BRANCH  22  23
HETATM   23  C13 UNL     1      21.153  -0.934  53.606  1.00  0.00    -0.041 A 
HETATM   24  C14 UNL     1      21.163  -0.049  52.547  1.00  0.00     0.009 A 
HETATM   25  C15 UNL     1      20.052   0.363  51.832  1.00  0.00     0.001 A 
HETATM   26  C16 UNL     1      18.849  -0.162  52.223  1.00  0.00     0.000 A 
HETATM   27  C17 UNL     1      18.755  -1.048  53.266  1.00  0.00     0.001 A 
HETATM   28  C18 UNL     1      19.913  -1.428  53.952  1.00  0.00     0.009 A 
ENDBRANCH  22  23
ENDBRANCH  20  22
ENDBRANCH   1  18
TORSDOF 9
ENDMDL
MODEL 5
REMARK VINA RESULT:      -7.7      3.606      6.979
REMARK  9 active torsions:
REMARK  status: ('A' for Active; 'I' for Inactive)
REMARK       I    between atoms: C1_2  and  N1_3 
REMARK    1  A    between atoms: C1_2  and  C19_24 
REMARK    2  A    between atoms: N1_3  and  C2_4 
REMARK    3  A    between atoms: C2_4  and  C3_5 
REMARK    4  A    between atoms: C2_4  and  C11_14 
REMARK    5  A    between atoms: C3_5  and  C4_6 
REMARK    6  A    between atoms: C4_6  and  C5_7 
REMARK    7  A    between atoms: C5_7  and  C6_9 
REMARK       I    between atoms: C11_14  and  N2_16 
REMARK    8  A    between atoms: N2_16  and  C12_17 
REMARK    9  A    between atoms: C12_17  and  C13_18 
ROOT
HETATM    1  C2  UNL     1      25.567   2.636  51.508  1.00  0.00     0.176 C 
ENDROOT
BRANCH   1   2
HETATM    2  N1  UNL     1      26.827   2.752  52.212  1.00  0.00    -0.343 N 
HETATM    3  C1  UNL     1      27.482   1.582  52.685  1.00  0.00     0.283 C 
HETATM    4  O1  UNL     1      27.254   0.339  52.666  1.00  0.00    -0.267 OA
HETATM    5  H1  UNL     1      27.334   3.641  52.419  1.00  0.00     0.163 HD
BRANCH   3   6
HETATM    6  C19 UNL     1      28.785   1.575  53.423  1.00  0.00     0.444 C 
HETATM    7  F2  UNL     1      29.060   2.862  53.789  1.00  0.00    -0.204 F 
HETATM    8  F3  UNL     1      28.712   0.776  54.539  1.00  0.00    -0.204 F 
ENDBRANCH   3   6
ENDBRANCH   1   2
BRANCH   1   9
HETATM    9  C3  UNL     1      24.412   2.894  52.477  1.00  0.00     0.038 C 
BRANCH   9  10
HETATM   10  C4  UNL     1      23.283   1.941  52.237  1.00  0.00     0.041 C 
BRANCH  10  11
HETATM   11  C5  UNL     1      23.567   0.510  52.603  1.00  0.00     0.181 C 
HETATM   12  F1  UNL     1      24.356   0.456  53.741  1.00  0.00    -0.248 F 
BRANCH  11  13
HETATM   13  C6  UNL     1      22.278  -0.209  52.766  1.00  0.00     0.065 A 
HETATM   14  C7  UNL     1      22.333  -1.265  53.822  1.00  0.00    -0.015 A 
HETATM   15  C8  UNL     1      21.436  -1.042  54.785  1.00  0.00    -0.004 A 
HETATM   16  C9  UNL     1      20.726   0.181  54.427  1.00  0.00    -0.004 A 
HETATM   17  C10 UNL     1      21.192   0.662  53.285  1.00  0.00    -0.015 A 
ENDBRANCH  11  13
ENDBRANCH  10  11
ENDBRANCH   9  10
ENDBRANCH   1   9
BRANCH   1  18
HETATM   18  C11 UNL     1      25.496   3.525  50.337  1.00  0.00     0.240 C 
HETATM   19  O2  UNL     1      24.938   2.971  49.355  1.00  0.00    -0.271 OA
HETATM   20  N2  UNL     1      25.989   4.851  50.292  1.00  0.00    -0.355 N 
HETATM   21  H13 UNL     1      26.421   5.135  51.207  1.00  0.00     0.162 HD
BRANCH  20  22
HETATM   22  C12 UNL     1      25.924   5.733  49.149  1.00  0.00     0.161 C 
BRANCH  22  23
HETATM   23  C13 UNL     1      27.225   6.065  48.560  1.00  0.00    -0.041 A 
HETATM   24  C14 UNL     1      27.486   7.287  47.974  1.00  0.00     0.009 A 
HETATM   25  C15 UNL     1      28.688   7.662  47.400  1.00  0.00     0.001 A 
HETATM   26  C16 UNL     1      29.691   6.729  47.424  1.00  0.00     0.000 A 
HETATM   27  C17 UNL     1      29.509   5.492  47.988  1.00  0.00     0.001 A 
HETATM   28  C18 UNL     1      28.272   5.168  48.554  1.00  0.00     0.009 A 
ENDBRANCH  22  23
ENDBRANCH  20  22
ENDBRANCH   1  18
TORSDOF 9
ENDMDL
MODEL 6
REMARK VINA RESULT:      -7.5      2.616      5.643
REMARK  9 active torsions:
REMARK  status: ('A' for Active; 'I' for Inactive)
REMARK       I    between atoms: C1_2  and  N1_3 
REMARK    1  A    between atoms: C1_2  and  C19_24 
REMARK    2  A    between atoms: N1_3  and  C2_4 
REMARK    3  A    between atoms: C2_4  and  C3_5 
REMARK    4  A    between atoms: C2_4  and  C11_14 
REMARK    5  A    between atoms: C3_5  and  C4_6 
REMARK    6  A    between atoms: C4_6  and  C5_7 
REMARK    7  A    between atoms: C5_7  and  C6_9 
REMARK       I    between atoms: C11_14  and  N2_16 
REMARK    8  A    between atoms: N2_16  and  C12_17 
REMARK    9  A    between atoms: C12_17  and  C13_18 
ROOT
HETATM    1  C2  UNL     1      25.541   0.740  52.957  1.00  0.00     0.176 C 
ENDROOT
BRANCH   1   2
HETATM    2  N1  UNL     1      26.821   0.906  53.615  1.00  0.00    -0.343 N 
HETATM    3  C1  UNL     1      27.702  -0.204  53.733  1.00  0.00     0.283 C 
HETATM    4  O1  UNL     1      27.686  -1.421  53.395  1.00  0.00    -0.267 OA
HETATM    5  H1  UNL     1      27.187   1.791  54.029  1.00  0.00     0.163 HD
BRANCH   3   6
HETATM    6  C19 UNL     1      29.048  -0.157  54.389  1.00  0.00     0.444 C 
HETATM    7  F2  UNL     1      29.977  -0.512  53.452  1.00  0.00    -0.204 F 
HETATM    8  F3  UNL     1      29.319   1.106  54.860  1.00  0.00    -0.204 F 
ENDBRANCH   3   6
ENDBRANCH   1   2
BRANCH   1   9
HETATM    9  C3  UNL     1      24.555   0.070  53.915  1.00  0.00     0.038 C 
BRANCH   9  10
HETATM   10  C4  UNL     1      23.585  -0.795  53.172  1.00  0.00     0.041 C 
BRANCH  10  11
HETATM   11  C5  UNL     1      22.271  -1.025  53.866  1.00  0.00     0.181 C 
HETATM   12  F1  UNL     1      22.309  -0.493  55.146  1.00  0.00    -0.248 F 
BRANCH  11  13
HETATM   13  C6  UNL     1      21.183  -0.448  53.037  1.00  0.00     0.065 A 
HETATM   14  C7  UNL     1      20.562   0.762  53.659  1.00  0.00    -0.015 A 
HETATM   15  C8  UNL     1      20.672   1.831  52.867  1.00  0.00    -0.004 A 
HETATM   16  C9  UNL     1      21.376   1.396  51.665  1.00  0.00    -0.004 A 
HETATM   17  C10 UNL     1      21.670   0.107  51.749  1.00  0.00    -0.015 A 
ENDBRANCH  11  13
ENDBRANCH  10  11
ENDBRANCH   9  10
ENDBRANCH   1   9
BRANCH   1  18
HETATM   18  C11 UNL     1      25.009   2.011  52.440  1.00  0.00     0.240 C 
HETATM   19  O2  UNL     1      24.352   2.640  53.310  1.00  0.00    -0.271 OA
HETATM   20  N2  UNL     1      25.199   2.497  51.123  1.00  0.00    -0.355 N 
HETATM   21  H13 UNL     1      25.773   1.833  50.546  1.00  0.00     0.162 HD
BRANCH  20  22
HETATM   22  C12 UNL     1      24.684   3.742  50.604  1.00  0.00     0.161 C 
BRANCH  22  23
HETATM   23  C13 UNL     1      25.657   4.540  49.854  1.00  0.00    -0.041 A 
HETATM   24  C14 UNL     1      25.483   5.887  49.607  1.00  0.00     0.009 A 
HETATM   25  C15 UNL     1      26.360   6.696  48.905  1.00  0.00     0.001 A 
HETATM   26  C16 UNL     1      27.490   6.091  48.423  1.00  0.00     0.000 A 
HETATM   27  C17 UNL     1      27.736   4.757  48.627  1.00  0.00     0.001 A 
HETATM   28  C18 UNL     1      26.813   3.989  49.343  1.00  0.00     0.009 A 
ENDBRANCH  22  23
ENDBRANCH  20  22
ENDBRANCH   1  18
TORSDOF 9
ENDMDL
MODEL 7
REMARK VINA RESULT:      -7.4      2.285      4.497
REMARK  9 active torsions:
REMARK  status: ('A' for Active; 'I' for Inactive)
REMARK       I    between atoms: C1_2  and  N1_3 
REMARK    1  A    between atoms: C1_2  and  C19_24 
REMARK    2  A    between atoms: N1_3  and  C2_4 
REMARK    3  A    between atoms: C2_4  and  C3_5 
REMARK    4  A    between atoms: C2_4  and  C11_14 
REMARK    5  A    between atoms: C3_5  and  C4_6 
REMARK    6  A    between atoms: C4_6  and  C5_7 
REMARK    7  A    between atoms: C5_7  and  C6_9 
REMARK       I    between atoms: C11_14  and  N2_16 
REMARK    8  A    between atoms: N2_16  and  C12_17 
REMARK    9  A    between atoms: C12_17  and  C13_18 
ROOT
HETATM    1  C2  UNL     1      25.102  -0.386  53.109  1.00  0.00     0.176 C 
ENDROOT
BRANCH   1   2
HETATM    2  N1  UNL     1      26.405  -0.714  53.648  1.00  0.00    -0.343 N 
HETATM    3  C1  UNL     1      27.118   0.253  54.409  1.00  0.00     0.283 C 
HETATM    4  O1  UNL     1      26.919   1.442  54.788  1.00  0.00    -0.267 OA
HETATM    5  H1  UNL     1      26.903  -1.625  53.537  1.00  0.00     0.163 HD
BRANCH   3   6
HETATM    6  C19 UNL     1      28.469   0.031  55.017  1.00  0.00     0.444 C 
HETATM    7  F2  UNL     1      29.127  -0.881  54.241  1.00  0.00    -0.204 F 
HETATM    8  F3  UNL     1      29.182   1.205  55.067  1.00  0.00    -0.204 F 
ENDBRANCH   3   6
ENDBRANCH   1   2
BRANCH   1   9
HETATM    9  C3  UNL     1      24.033  -0.604  54.181  1.00  0.00     0.038 C 
BRANCH   9  10
HETATM   10  C4  UNL     1      22.789  -1.191  53.591  1.00  0.00     0.041 C 
BRANCH  10  11
HETATM   11  C5  UNL     1      21.518  -0.456  53.917  1.00  0.00     0.181 C 
HETATM   12  F1  UNL     1      21.539  -0.029  55.236  1.00  0.00    -0.248 F 
BRANCH  11  13
HETATM   13  C6  UNL     1      21.350   0.662  52.955  1.00  0.00     0.065 A 
HETATM   14  C7  UNL     1      21.583   0.246  51.538  1.00  0.00    -0.015 A 
HETATM   15  C8  UNL     1      20.505   0.463  50.780  1.00  0.00    -0.004 A 
HETATM   16  C9  UNL     1      19.485   1.038  51.650  1.00  0.00    -0.004 A 
HETATM   17  C10 UNL     1      19.951   1.157  52.884  1.00  0.00    -0.015 A 
ENDBRANCH  11  13
ENDBRANCH  10  11
ENDBRANCH   9  10
ENDBRANCH   1   9
BRANCH   1  18
HETATM   18  C11 UNL     1      25.049   0.981  52.567  1.00  0.00     0.240 C 
HETATM   19  O2  UNL     1      25.701   1.093  51.497  1.00  0.00    -0.271 OA
HETATM   20  N2  UNL     1      24.353   2.064  53.157  1.00  0.00    -0.355 N 
HETATM   21  H13 UNL     1      23.871   1.776  54.045  1.00  0.00     0.162 HD
BRANCH  20  22
HETATM   22  C12 UNL     1      24.293   3.410  52.634  1.00  0.00     0.161 C 
BRANCH  22  23
HETATM   23  C13 UNL     1      23.154   3.670  51.750  1.00  0.00    -0.041 A 
HETATM   24  C14 UNL     1      23.171   3.363  50.405  1.00  0.00     0.009 A 
HETATM   25  C15 UNL     1      22.134   3.584  49.516  1.00  0.00     0.001 A 
HETATM   26  C16 UNL     1      21.002   4.156  50.033  1.00  0.00     0.000 A 
HETATM   27  C17 UNL     1      20.906   4.490  51.361  1.00  0.00     0.001 A 
HETATM   28  C18 UNL     1      21.988   4.244  52.212  1.00  0.00     0.009 A 
ENDBRANCH  22  23
ENDBRANCH  20  22
ENDBRANCH   1  18
TORSDOF 9
ENDMDL
MODEL 8
REMARK VINA RESULT:      -7.4      3.414      7.230
REMARK  9 active torsions:
REMARK  status: ('A' for Active; 'I' for Inactive)
REMARK       I    between atoms: C1_2  and  N1_3 
REMARK    1  A    between atoms: C1_2  and  C19_24 
REMARK    2  A    between atoms: N1_3  and  C2_4 
REMARK    3  A    between atoms: C2_4  and  C3_5 
REMARK    4  A    between atoms: C2_4  and  C11_14 
REMARK    5  A    between atoms: C3_5  and  C4_6 
REMARK    6  A    between atoms: C4_6  and  C5_7 
REMARK    7  A    between atoms: C5_7  and  C6_9 
REMARK       I    between atoms: C11_14  and  N2_16 
REMARK    8  A    between atoms: N2_16  and  C12_17 
REMARK    9  A    between atoms: C12_17  and  C13_18 
ROOT
HETATM    1  C2  UNL     1      23.300   1.743  52.867  1.00  0.00     0.176 C 
ENDROOT
BRANCH   1   2
HETATM    2  N1  UNL     1      21.948   1.243  52.731  1.00  0.00    -0.343 N 
HETATM    3  C1  UNL     1      21.439   0.315  53.681  1.00  0.00     0.283 C 
HETATM    4  O1  UNL     1      21.876  -0.259  54.718  1.00  0.00    -0.267 OA
HETATM    5  H1  UNL     1      21.271   1.501  51.979  1.00  0.00     0.163 HD
BRANCH   3   6
HETATM    6  C19 UNL     1      20.061  -0.270  53.647  1.00  0.00     0.444 C 
HETATM    7  F2  UNL     1      19.562  -0.078  52.390  1.00  0.00    -0.204 F 
HETATM    8  F3  UNL     1      20.092  -1.613  53.938  1.00  0.00    -0.204 F 
ENDBRANCH   3   6
ENDBRANCH   1   2
BRANCH   1   9
HETATM    9  C3  UNL     1      24.286   0.715  52.309  1.00  0.00     0.038 C 
BRANCH   9  10
HETATM   10  C4  UNL     1      25.569   0.726  53.078  1.00  0.00     0.041 C 
BRANCH  10  11
HETATM   11  C5  UNL     1      26.479  -0.443  52.820  1.00  0.00     0.181 C 
HETATM   12  F1  UNL     1      27.013  -0.359  51.543  1.00  0.00    -0.248 F 
BRANCH  11  13
HETATM   13  C6  UNL     1      27.522  -0.483  53.876  1.00  0.00     0.065 A 
HETATM   14  C7  UNL     1      28.797  -1.106  53.406  1.00  0.00    -0.015 A 
HETATM   15  C8  UNL     1      29.825  -0.260  53.515  1.00  0.00    -0.004 A 
HETATM   16  C9  UNL     1      29.293   0.982  54.067  1.00  0.00    -0.004 A 
HETATM   17  C10 UNL     1      27.990   0.868  54.276  1.00  0.00    -0.015 A 
ENDBRANCH  11  13
ENDBRANCH  10  11
ENDBRANCH   9  10
ENDBRANCH   1   9
BRANCH   1  18
HETATM   18  C11 UNL     1      23.477   3.059  52.232  1.00  0.00     0.240 C 
HETATM   19  O2  UNL     1      23.767   3.954  53.067  1.00  0.00    -0.271 OA
HETATM   20  N2  UNL     1      23.343   3.317  50.846  1.00  0.00    -0.355 N 
HETATM   21  H13 UNL     1      23.097   2.446  50.312  1.00  0.00     0.162 HD
BRANCH  20  22
HETATM   22  C12 UNL     1      23.515   4.603  50.210  1.00  0.00     0.161 C 
BRANCH  22  23
HETATM   23  C13 UNL     1      24.852   4.838  49.659  1.00  0.00    -0.041 A 
HETATM   24  C14 UNL     1      25.227   6.045  49.106  1.00  0.00     0.009 A 
HETATM   25  C15 UNL     1      26.470   6.331  48.568  1.00  0.00     0.001 A 
HETATM   26  C16 UNL     1      27.392   5.319  48.595  1.00  0.00     0.000 A 
HETATM   27  C17 UNL     1      27.096   4.090  49.129  1.00  0.00     0.001 A 
HETATM   28  C18 UNL     1      25.822   3.858  49.658  1.00  0.00     0.009 A 
ENDBRANCH  22  23
ENDBRANCH  20  22
ENDBRANCH   1  18
TORSDOF 9
ENDMDL
MODEL 9
REMARK VINA RESULT:      -7.4      3.113      6.110
REMARK  9 active torsions:
REMARK  status: ('A' for Active; 'I' for Inactive)
REMARK       I    between atoms: C1_2  and  N1_3 
REMARK    1  A    between atoms: C1_2  and  C19_24 
REMARK    2  A    between atoms: N1_3  and  C2_4 
REMARK    3  A    between atoms: C2_4  and  C3_5 
REMARK    4  A    between atoms: C2_4  and  C11_14 
REMARK    5  A    between atoms: C3_5  and  C4_6 
REMARK    6  A    between atoms: C4_6  and  C5_7 
REMARK    7  A    between atoms: C5_7  and  C6_9 
REMARK       I    between atoms: C11_14  and  N2_16 
REMARK    8  A    between atoms: N2_16  and  C12_17 
REMARK    9  A    between atoms: C12_17  and  C13_18 
ROOT
HETATM    1  C2  UNL     1      25.113   3.252  50.649  1.00  0.00     0.176 C 
ENDROOT
BRANCH   1   2
HETATM    2  N1  UNL     1      25.352   4.625  51.040  1.00  0.00    -0.343 N 
HETATM    3  C1  UNL     1      25.071   5.679  50.127  1.00  0.00     0.283 C 
HETATM    4  O1  UNL     1      24.628   5.768  48.947  1.00  0.00    -0.267 OA
HETATM    5  H1  UNL     1      25.723   4.944  51.962  1.00  0.00     0.163 HD
BRANCH   3   6
HETATM    6  C19 UNL     1      25.276   7.134  50.416  1.00  0.00     0.444 C 
HETATM    7  F2  UNL     1      26.589   7.423  50.174  1.00  0.00    -0.204 F 
HETATM    8  F3  UNL     1      24.471   7.910  49.616  1.00  0.00    -0.204 F 
ENDBRANCH   3   6
ENDBRANCH   1   2
BRANCH   1   9
HETATM    9  C3  UNL     1      26.343   2.404  50.972  1.00  0.00     0.038 C 
BRANCH   9  10
HETATM   10  C4  UNL     1      26.479   2.191  52.448  1.00  0.00     0.041 C 
BRANCH  10  11
HETATM   11  C5  UNL     1      27.871   1.878  52.923  1.00  0.00     0.181 C 
HETATM   12  F1  UNL     1      28.393   2.960  53.616  1.00  0.00    -0.248 F 
BRANCH  11  13
HETATM   13  C6  UNL     1      27.832   0.639  53.740  1.00  0.00     0.065 A 
HETATM   14  C7  UNL     1      27.328  -0.543  52.976  1.00  0.00    -0.015 A 
HETATM   15  C8  UNL     1      28.232  -1.525  52.940  1.00  0.00    -0.004 A 
HETATM   16  C9  UNL     1      29.397  -1.055  53.681  1.00  0.00    -0.004 A 
HETATM   17  C10 UNL     1      29.183   0.169  54.140  1.00  0.00    -0.015 A 
ENDBRANCH  11  13
ENDBRANCH  10  11
ENDBRANCH   9  10
ENDBRANCH   1   9
BRANCH   1  18
HETATM   18  C11 UNL     1      23.899   2.697  51.268  1.00  0.00     0.240 C 
HETATM   19  O2  UNL     1      23.422   3.461  52.146  1.00  0.00    -0.271 OA
HETATM   20  N2  UNL     1      23.312   1.452  50.935  1.00  0.00    -0.355 N 
HETATM   21  H13 UNL     1      23.854   0.958  50.182  1.00  0.00     0.162 HD
BRANCH  20  22
HETATM   22  C12 UNL     1      22.121   0.896  51.535  1.00  0.00     0.161 C 
BRANCH  22  23
HETATM   23  C13 UNL     1      22.351   0.165  52.784  1.00  0.00    -0.041 A 
HETATM   24  C14 UNL     1      23.615  -0.125  53.254  1.00  0.00     0.009 A 
HETATM   25  C15 UNL     1      23.901  -0.812  54.421  1.00  0.00     0.001 A 
HETATM   26  C16 UNL     1      22.826  -1.231  55.159  1.00  0.00     0.000 A 
HETATM   27  C17 UNL     1      21.537  -0.980  54.759  1.00  0.00     0.001 A 
HETATM   28  C18 UNL     1      21.309  -0.282  53.569  1.00  0.00     0.009 A 
ENDBRANCH  22  23
ENDBRANCH  20  22
ENDBRANCH   1  18
TORSDOF 9
ENDMDL
