MODEL 1
REMARK VINA RESULT:      -9.9      0.000      0.000
REMARK  3 active torsions:
REMARK  status: ('A' for Active; 'I' for Inactive)
REMARK    1  A    between atoms: C7_7  and  N1_8 
REMARK    2  A    between atoms: N1_8  and  C8_9 
REMARK    3  A    between atoms: C17_20  and  C18_21 
ROOT
HETATM    1  C8  UNL     1      23.180   2.293  51.166  1.00  0.00     0.109 C 
HETATM    2  N2  UNL     1      21.997   2.867  51.215  1.00  0.00    -0.228 NA
HETATM    3  C9  UNL     1      21.092   3.029  52.331  1.00  0.00     0.235 C 
HETATM    4  N3  UNL     1      20.706   2.159  53.249  1.00  0.00    -0.241 NA
HETATM    5  C10 UNL     1      21.077   0.776  53.411  1.00  0.00     0.069 A 
HETATM    6  C11 UNL     1      20.003  -0.041  53.760  1.00  0.00     0.032 A 
HETATM    7  C12 UNL     1      20.211  -1.371  53.923  1.00  0.00     0.002 A 
HETATM    8  C13 UNL     1      21.409  -1.989  53.771  1.00  0.00     0.001 A 
HETATM    9  C14 UNL     1      22.477  -1.187  53.426  1.00  0.00     0.014 A 
HETATM   10  C15 UNL     1      22.352   0.196  53.239  1.00  0.00    -0.001 A 
HETATM   11  C16 UNL     1      23.748   0.602  52.909  1.00  0.00    -0.038 C 
HETATM   12  C17 UNL     1      24.614  -0.020  53.685  1.00  0.00     0.015 C 
HETATM   13  C23 UNL     1      24.233   1.592  51.913  1.00  0.00     0.118 C 
ENDROOT
BRANCH   1  14
HETATM   14  N1  UNL     1      23.527   2.476  49.774  1.00  0.00    -0.346 N 
HETATM   15  H8  UNL     1      23.211   1.821  49.015  1.00  0.00     0.167 HD
BRANCH  14  16
HETATM   16  C7  UNL     1      24.314   3.520  49.216  1.00  0.00     0.035 C 
HETATM   17  C6  UNL     1      25.579   3.279  49.525  1.00  0.00     0.027 C 
HETATM   18  C5  UNL     1      26.810   4.002  49.225  1.00  0.00     0.002 C 
HETATM   19  C4  UNL     1      27.111   5.231  48.835  1.00  0.00     0.002 C 
HETATM   20  C3  UNL     1      26.276   6.410  48.538  1.00  0.00     0.032 C 
HETATM   21  C2  UNL     1      24.977   6.660  48.495  1.00  0.00     0.043 C 
HETATM   22  C1  UNL     1      24.772   8.084  48.121  1.00  0.00     0.076 C 
HETATM   23  O1  UNL     1      23.889   5.838  48.732  1.00  0.00    -0.350 OA
HETATM   24  C24 UNL     1      23.474   4.513  48.488  1.00  0.00     0.232 C 
ENDBRANCH  14  16
ENDBRANCH   1  14
BRANCH  12  25
HETATM   25  C18 UNL     1      26.065  -0.054  53.846  1.00  0.00    -0.054 A 
HETATM   26  C19 UNL     1      26.750   0.378  54.878  1.00  0.00     0.007 A 
HETATM   27  C20 UNL     1      28.183   0.197  54.723  1.00  0.00    -0.003 A 
HETATM   28  C21 UNL     1      28.370  -0.367  53.546  1.00  0.00    -0.022 A 
HETATM   29  C22 UNL     1      27.088  -0.572  52.897  1.00  0.00     0.065 A 
ENDBRANCH  12  25
TORSDOF 3
ENDMDL
MODEL 2
REMARK VINA RESULT:      -9.8      1.657      2.589
REMARK  3 active torsions:
REMARK  status: ('A' for Active; 'I' for Inactive)
REMARK    1  A    between atoms: C7_7  and  N1_8 
REMARK    2  A    between atoms: N1_8  and  C8_9 
REMARK    3  A    between atoms: C17_20  and  C18_21 
ROOT
HETATM    1  C8  UNL     1      23.914   3.713  50.686  1.00  0.00     0.109 C 
HETATM    2  N2  UNL     1      22.917   4.570  50.686  1.00  0.00    -0.228 NA
HETATM    3  C9  UNL     1      21.893   4.799  51.682  1.00  0.00     0.235 C 
HETATM    4  N3  UNL     1      21.149   3.938  52.354  1.00  0.00    -0.241 NA
HETATM    5  C10 UNL     1      21.138   2.498  52.294  1.00  0.00     0.069 A 
HETATM    6  C11 UNL     1      19.853   1.959  52.332  1.00  0.00     0.032 A 
HETATM    7  C12 UNL     1      19.700   0.613  52.261  1.00  0.00     0.002 A 
HETATM    8  C13 UNL     1      20.720  -0.275  52.154  1.00  0.00     0.001 A 
HETATM    9  C14 UNL     1      21.995   0.251  52.117  1.00  0.00     0.014 A 
HETATM   10  C15 UNL     1      22.244   1.628  52.185  1.00  0.00    -0.001 A 
HETATM   11  C16 UNL     1      23.732   1.687  52.130  1.00  0.00    -0.038 C 
HETATM   12  C17 UNL     1      24.269   0.744  52.880  1.00  0.00     0.015 C 
HETATM   13  C23 UNL     1      24.614   2.648  51.418  1.00  0.00     0.118 C 
ENDROOT
BRANCH   1  14
HETATM   14  N1  UNL     1      24.538   4.004  49.415  1.00  0.00    -0.346 N 
HETATM   15  H8  UNL     1      24.221   3.574  48.510  1.00  0.00     0.167 HD
BRANCH  14  16
HETATM   16  C7  UNL     1      25.634   4.879  49.178  1.00  0.00     0.035 C 
HETATM   17  C6  UNL     1      25.153   5.987  48.635  1.00  0.00     0.027 C 
HETATM   18  C5  UNL     1      25.804   7.214  48.188  1.00  0.00     0.002 C 
HETATM   19  C4  UNL     1      27.042   7.566  47.877  1.00  0.00     0.002 C 
HETATM   20  C3  UNL     1      28.312   6.816  47.859  1.00  0.00     0.032 C 
HETATM   21  C2  UNL     1      28.688   5.589  48.184  1.00  0.00     0.043 C 
HETATM   22  C1  UNL     1      30.146   5.448  47.929  1.00  0.00     0.076 C 
HETATM   23  O1  UNL     1      27.961   4.522  48.685  1.00  0.00    -0.350 OA
HETATM   24  C24 UNL     1      26.925   4.271  49.608  1.00  0.00     0.232 C 
ENDBRANCH  14  16
ENDBRANCH   1  14
BRANCH  12  25
HETATM   25  C18 UNL     1      25.615   0.294  53.224  1.00  0.00    -0.054 A 
HETATM   26  C19 UNL     1      26.342  -0.576  52.565  1.00  0.00     0.007 A 
HETATM   27  C20 UNL     1      27.642  -0.804  53.172  1.00  0.00    -0.003 A 
HETATM   28  C21 UNL     1      27.700  -0.039  54.245  1.00  0.00    -0.022 A 
HETATM   29  C22 UNL     1      26.460   0.705  54.377  1.00  0.00     0.065 A 
ENDBRANCH  12  25
TORSDOF 3
ENDMDL
MODEL 3
REMARK VINA RESULT:      -9.6      2.644      6.137
REMARK  3 active torsions:
REMARK  status: ('A' for Active; 'I' for Inactive)
REMARK    1  A    between atoms: C7_7  and  N1_8 
REMARK    2  A    between atoms: N1_8  and  C8_9 
REMARK    3  A    between atoms: C17_20  and  C18_21 
ROOT
HETATM    1  C8  UNL     1      25.268   3.177  51.314  1.00  0.00     0.109 C 
HETATM    2  N2  UNL     1      25.389   4.328  50.689  1.00  0.00    -0.228 NA
HETATM    3  C9  UNL     1      24.372   5.274  50.286  1.00  0.00     0.235 C 
HETATM    4  N3  UNL     1      23.211   5.073  49.687  1.00  0.00    -0.241 NA
HETATM    5  C10 UNL     1      22.607   3.839  49.254  1.00  0.00     0.069 A 
HETATM    6  C11 UNL     1      21.986   3.940  48.010  1.00  0.00     0.032 A 
HETATM    7  C12 UNL     1      21.395   2.842  47.476  1.00  0.00     0.002 A 
HETATM    8  C13 UNL     1      21.357   1.623  48.067  1.00  0.00     0.001 A 
HETATM    9  C14 UNL     1      21.969   1.513  49.299  1.00  0.00     0.014 A 
HETATM   10  C15 UNL     1      22.601   2.596  49.924  1.00  0.00    -0.001 A 
HETATM   11  C16 UNL     1      23.074   1.995  51.204  1.00  0.00    -0.038 C 
HETATM   12  C17 UNL     1      22.153   1.206  51.722  1.00  0.00     0.015 C 
HETATM   13  C23 UNL     1      24.351   2.209  51.933  1.00  0.00     0.118 C 
ENDROOT
BRANCH   1  14
HETATM   14  N1  UNL     1      26.649   2.754  51.401  1.00  0.00    -0.346 N 
HETATM   15  H8  UNL     1      27.401   3.126  50.768  1.00  0.00     0.167 HD
BRANCH  14  16
HETATM   16  C7  UNL     1      27.202   1.811  52.310  1.00  0.00     0.035 C 
HETATM   17  C6  UNL     1      28.084   2.450  53.064  1.00  0.00     0.027 C 
HETATM   18  C5  UNL     1      28.946   1.996  54.151  1.00  0.00     0.002 C 
HETATM   19  C4  UNL     1      29.390   0.824  54.575  1.00  0.00     0.002 C 
HETATM   20  C3  UNL     1      29.177  -0.553  54.090  1.00  0.00     0.032 C 
HETATM   21  C2  UNL     1      28.456  -1.115  53.134  1.00  0.00     0.043 C 
HETATM   22  C1  UNL     1      28.682  -2.585  53.159  1.00  0.00     0.076 C 
HETATM   23  O1  UNL     1      27.598  -0.559  52.201  1.00  0.00    -0.350 OA
HETATM   24  C24 UNL     1      26.620   0.453  52.115  1.00  0.00     0.232 C 
ENDBRANCH  14  16
ENDBRANCH   1  14
BRANCH  12  25
HETATM   25  C18 UNL     1      22.018   0.362  52.905  1.00  0.00    -0.054 A 
HETATM   26  C19 UNL     1      21.134   0.494  53.865  1.00  0.00     0.007 A 
HETATM   27  C20 UNL     1      21.270  -0.514  54.903  1.00  0.00    -0.003 A 
HETATM   28  C21 UNL     1      22.280  -1.286  54.554  1.00  0.00    -0.022 A 
HETATM   29  C22 UNL     1      22.834  -0.819  53.295  1.00  0.00     0.065 A 
ENDBRANCH  12  25
TORSDOF 3
ENDMDL
MODEL 4
REMARK VINA RESULT:      -9.6      2.559      6.554
REMARK  3 active torsions:
REMARK  status: ('A' for Active; 'I' for Inactive)
REMARK    1  A    between atoms: C7_7  and  N1_8 
REMARK    2  A    between atoms: N1_8  and  C8_9 
REMARK    3  A    between atoms: C17_20  and  C18_21 
ROOT
HETATM    1  C8  UNL     1      24.238   1.887  52.202  1.00  0.00     0.109 C 
HETATM    2  N2  UNL     1      23.247   1.037  52.355  1.00  0.00    -0.228 NA
HETATM    3  C9  UNL     1      22.179   0.685  51.445  1.00  0.00     0.235 C 
HETATM    4  N3  UNL     1      21.401   1.456  50.706  1.00  0.00    -0.241 NA
HETATM    5  C10 UNL     1      21.384   2.892  50.586  1.00  0.00     0.069 A 
HETATM    6  C11 UNL     1      20.096   3.423  50.541  1.00  0.00     0.032 A 
HETATM    7  C12 UNL     1      19.939   4.767  50.450  1.00  0.00     0.002 A 
HETATM    8  C13 UNL     1      20.958   5.661  50.397  1.00  0.00     0.001 A 
HETATM    9  C14 UNL     1      22.236   5.144  50.441  1.00  0.00     0.014 A 
HETATM   10  C15 UNL     1      22.490   3.769  50.533  1.00  0.00    -0.001 A 
HETATM   11  C16 UNL     1      23.979   3.717  50.526  1.00  0.00    -0.038 C 
HETATM   12  C17 UNL     1      24.475   4.558  49.640  1.00  0.00     0.015 C 
HETATM   13  C23 UNL     1      24.898   2.852  51.311  1.00  0.00     0.118 C 
ENDROOT
BRANCH   1  14
HETATM   14  N1  UNL     1      24.922   1.757  53.469  1.00  0.00    -0.346 N 
HETATM   15  H8  UNL     1      24.525   2.118  54.374  1.00  0.00     0.167 HD
BRANCH  14  16
HETATM   16  C7  UNL     1      26.186   1.149  53.704  1.00  0.00     0.035 C 
HETATM   17  C6  UNL     1      27.110   2.092  53.605  1.00  0.00     0.027 C 
HETATM   18  C5  UNL     1      28.562   2.051  53.746  1.00  0.00     0.002 C 
HETATM   19  C4  UNL     1      29.486   1.103  53.718  1.00  0.00     0.002 C 
HETATM   20  C3  UNL     1      29.405  -0.357  53.522  1.00  0.00     0.032 C 
HETATM   21  C2  UNL     1      28.427  -1.234  53.365  1.00  0.00     0.043 C 
HETATM   22  C1  UNL     1      29.016  -2.591  53.212  1.00  0.00     0.076 C 
HETATM   23  O1  UNL     1      27.054  -1.063  53.330  1.00  0.00    -0.350 OA
HETATM   24  C24 UNL     1      26.051  -0.311  53.975  1.00  0.00     0.232 C 
ENDBRANCH  14  16
ENDBRANCH   1  14
BRANCH  12  25
HETATM   25  C18 UNL     1      25.802   4.960  49.181  1.00  0.00    -0.054 A 
HETATM   26  C19 UNL     1      26.161   6.155  48.776  1.00  0.00     0.007 A 
HETATM   27  C20 UNL     1      27.558   6.224  48.384  1.00  0.00    -0.003 A 
HETATM   28  C21 UNL     1      28.062   5.018  48.559  1.00  0.00    -0.022 A 
HETATM   29  C22 UNL     1      27.030   4.130  49.064  1.00  0.00     0.065 A 
ENDBRANCH  12  25
TORSDOF 3
ENDMDL
MODEL 5
REMARK VINA RESULT:      -9.5      1.778      2.410
REMARK  3 active torsions:
REMARK  status: ('A' for Active; 'I' for Inactive)
REMARK    1  A    between atoms: C7_7  and  N1_8 
REMARK    2  A    between atoms: N1_8  and  C8_9 
REMARK    3  A    between atoms: C17_20  and  C18_21 
ROOT
HETATM    1  C8  UNL     1      24.907   3.876  50.658  1.00  0.00     0.109 C 
HETATM    2  N2  UNL     1      23.996   4.824  50.676  1.00  0.00    -0.228 NA
HETATM    3  C9  UNL     1      23.033   5.163  51.700  1.00  0.00     0.235 C 
HETATM    4  N3  UNL     1      22.234   4.384  52.410  1.00  0.00    -0.241 NA
HETATM    5  C10 UNL     1      22.085   2.952  52.373  1.00  0.00     0.069 A 
HETATM    6  C11 UNL     1      20.757   2.537  52.461  1.00  0.00     0.032 A 
HETATM    7  C12 UNL     1      20.475   1.211  52.417  1.00  0.00     0.002 A 
HETATM    8  C13 UNL     1      21.402   0.230  52.292  1.00  0.00     0.001 A 
HETATM    9  C14 UNL     1      22.719   0.631  52.205  1.00  0.00     0.014 A 
HETATM   10  C15 UNL     1      23.100   1.979  52.243  1.00  0.00    -0.001 A 
HETATM   11  C16 UNL     1      24.584   1.896  52.139  1.00  0.00    -0.038 C 
HETATM   12  C17 UNL     1      25.054   0.916  52.887  1.00  0.00     0.015 C 
HETATM   13  C23 UNL     1      25.528   2.759  51.384  1.00  0.00     0.118 C 
ENDROOT
BRANCH   1  14
HETATM   14  N1  UNL     1      25.514   4.090  49.362  1.00  0.00    -0.346 N 
HETATM   15  H8  UNL     1      25.401   3.420  48.560  1.00  0.00     0.167 HD
BRANCH  14  16
HETATM   16  C7  UNL     1      26.327   5.188  48.966  1.00  0.00     0.035 C 
HETATM   17  C6  UNL     1      27.538   4.719  48.712  1.00  0.00     0.027 C 
HETATM   18  C5  UNL     1      28.765   5.377  48.274  1.00  0.00     0.002 C 
HETATM   19  C4  UNL     1      29.213   6.623  48.258  1.00  0.00     0.002 C 
HETATM   20  C3  UNL     1      28.617   7.898  48.700  1.00  0.00     0.032 C 
HETATM   21  C2  UNL     1      27.450   8.270  49.201  1.00  0.00     0.043 C 
HETATM   22  C1  UNL     1      27.475   9.737  49.442  1.00  0.00     0.076 C 
HETATM   23  O1  UNL     1      26.317   7.533  49.500  1.00  0.00    -0.350 OA
HETATM   24  C24 UNL     1      25.562   6.467  48.969  1.00  0.00     0.232 C 
ENDBRANCH  14  16
ENDBRANCH   1  14
BRANCH  12  25
HETATM   25  C18 UNL     1      26.363   0.345  53.194  1.00  0.00    -0.054 A 
HETATM   26  C19 UNL     1      27.211   0.774  54.097  1.00  0.00     0.007 A 
HETATM   27  C20 UNL     1      28.428  -0.018  54.152  1.00  0.00    -0.003 A 
HETATM   28  C21 UNL     1      28.308  -0.964  53.241  1.00  0.00    -0.022 A 
HETATM   29  C22 UNL     1      27.029  -0.828  52.567  1.00  0.00     0.065 A 
ENDBRANCH  12  25
TORSDOF 3
ENDMDL
MODEL 6
REMARK VINA RESULT:      -9.5      2.863      6.401
REMARK  3 active torsions:
REMARK  status: ('A' for Active; 'I' for Inactive)
REMARK    1  A    between atoms: C7_7  and  N1_8 
REMARK    2  A    between atoms: N1_8  and  C8_9 
REMARK    3  A    between atoms: C17_20  and  C18_21 
ROOT
HETATM    1  C8  UNL     1      23.847   3.207  52.651  1.00  0.00     0.109 C 
HETATM    2  N2  UNL     1      24.157   4.412  52.223  1.00  0.00    -0.228 NA
HETATM    3  C9  UNL     1      23.382   5.339  51.428  1.00  0.00     0.235 C 
HETATM    4  N3  UNL     1      22.669   5.134  50.333  1.00  0.00    -0.241 NA
HETATM    5  C10 UNL     1      22.450   3.914  49.600  1.00  0.00     0.069 A 
HETATM    6  C11 UNL     1      22.493   4.090  48.218  1.00  0.00     0.032 A 
HETATM    7  C12 UNL     1      22.322   3.015  47.410  1.00  0.00     0.002 A 
HETATM    8  C13 UNL     1      22.107   1.749  47.845  1.00  0.00     0.001 A 
HETATM    9  C14 UNL     1      22.062   1.565  49.212  1.00  0.00     0.014 A 
HETATM   10  C15 UNL     1      22.228   2.620  50.119  1.00  0.00    -0.001 A 
HETATM   11  C16 UNL     1      22.079   1.937  51.435  1.00  0.00    -0.038 C 
HETATM   12  C17 UNL     1      21.091   1.063  51.403  1.00  0.00     0.015 C 
HETATM   13  C23 UNL     1      22.830   2.148  52.700  1.00  0.00     0.118 C 
ENDROOT
BRANCH   1  14
HETATM   14  N1  UNL     1      25.048   2.845  53.372  1.00  0.00    -0.346 N 
HETATM   15  H8  UNL     1      25.399   3.383  54.205  1.00  0.00     0.167 HD
BRANCH  14  16
HETATM   16  C7  UNL     1      25.919   1.756  53.096  1.00  0.00     0.035 C 
HETATM   17  C6  UNL     1      25.195   0.648  53.113  1.00  0.00     0.027 C 
HETATM   18  C5  UNL     1      25.549  -0.751  52.899  1.00  0.00     0.002 C 
HETATM   19  C4  UNL     1      26.673  -1.452  52.914  1.00  0.00     0.002 C 
HETATM   20  C3  UNL     1      28.076  -1.073  53.167  1.00  0.00     0.032 C 
HETATM   21  C2  UNL     1      28.719   0.059  53.406  1.00  0.00     0.043 C 
HETATM   22  C1  UNL     1      30.166  -0.236  53.578  1.00  0.00     0.076 C 
HETATM   23  O1  UNL     1      28.256   1.360  53.505  1.00  0.00    -0.350 OA
HETATM   24  C24 UNL     1      27.322   2.214  52.885  1.00  0.00     0.232 C 
ENDBRANCH  14  16
ENDBRANCH   1  14
BRANCH  12  25
HETATM   25  C18 UNL     1      20.477   0.116  52.330  1.00  0.00    -0.054 A 
HETATM   26  C19 UNL     1      21.095  -0.611  53.229  1.00  0.00     0.007 A 
HETATM   27  C20 UNL     1      20.192  -1.455  53.993  1.00  0.00    -0.003 A 
HETATM   28  C21 UNL     1      18.977  -1.226  53.533  1.00  0.00    -0.022 A 
HETATM   29  C22 UNL     1      19.040  -0.242  52.468  1.00  0.00     0.065 A 
ENDBRANCH  12  25
TORSDOF 3
ENDMDL
MODEL 7
REMARK VINA RESULT:      -9.2      2.301      5.106
REMARK  3 active torsions:
REMARK  status: ('A' for Active; 'I' for Inactive)
REMARK    1  A    between atoms: C7_7  and  N1_8 
REMARK    2  A    between atoms: N1_8  and  C8_9 
REMARK    3  A    between atoms: C17_20  and  C18_21 
ROOT
HETATM    1  C8  UNL     1      24.362   3.324  51.907  1.00  0.00     0.109 C 
HETATM    2  N2  UNL     1      25.432   3.667  51.223  1.00  0.00    -0.228 NA
HETATM    3  C9  UNL     1      26.467   2.838  50.646  1.00  0.00     0.235 C 
HETATM    4  N3  UNL     1      27.126   1.815  51.161  1.00  0.00    -0.241 NA
HETATM    5  C10 UNL     1      27.008   1.215  52.466  1.00  0.00     0.069 A 
HETATM    6  C11 UNL     1      28.239   0.879  53.027  1.00  0.00     0.032 A 
HETATM    7  C12 UNL     1      28.271   0.324  54.264  1.00  0.00     0.002 A 
HETATM    8  C13 UNL     1      27.176   0.064  55.021  1.00  0.00     0.001 A 
HETATM    9  C14 UNL     1      25.954   0.394  54.474  1.00  0.00     0.014 A 
HETATM   10  C15 UNL     1      25.829   0.969  53.202  1.00  0.00    -0.001 A 
HETATM   11  C16 UNL     1      24.352   1.113  53.059  1.00  0.00    -0.038 C 
HETATM   12  C17 UNL     1      23.729   0.042  53.512  1.00  0.00     0.015 C 
HETATM   13  C23 UNL     1      23.565   2.223  52.463  1.00  0.00     0.118 C 
ENDROOT
BRANCH   1  14
HETATM   14  N1  UNL     1      23.773   4.617  52.179  1.00  0.00    -0.346 N 
HETATM   15  H8  UNL     1      23.692   5.016  53.148  1.00  0.00     0.167 HD
BRANCH  14  16
HETATM   16  C7  UNL     1      23.228   5.529  51.233  1.00  0.00     0.035 C 
HETATM   17  C6  UNL     1      23.964   6.628  51.264  1.00  0.00     0.027 C 
HETATM   18  C5  UNL     1      23.877   7.881  50.521  1.00  0.00     0.002 C 
HETATM   19  C4  UNL     1      22.940   8.495  49.814  1.00  0.00     0.002 C 
HETATM   20  C3  UNL     1      21.548   8.134  49.487  1.00  0.00     0.032 C 
HETATM   21  C2  UNL     1      20.765   7.091  49.715  1.00  0.00     0.043 C 
HETATM   22  C1  UNL     1      19.432   7.347  49.106  1.00  0.00     0.076 C 
HETATM   23  O1  UNL     1      21.009   5.905  50.384  1.00  0.00    -0.350 OA
HETATM   24  C24 UNL     1      22.040   4.955  50.540  1.00  0.00     0.232 C 
ENDBRANCH  14  16
ENDBRANCH   1  14
BRANCH  12  25
HETATM   25  C18 UNL     1      22.346  -0.405  53.650  1.00  0.00    -0.054 A 
HETATM   26  C19 UNL     1      21.919  -1.423  54.359  1.00  0.00     0.007 A 
HETATM   27  C20 UNL     1      20.479  -1.601  54.284  1.00  0.00    -0.003 A 
HETATM   28  C21 UNL     1      20.019  -0.651  53.495  1.00  0.00    -0.022 A 
HETATM   29  C22 UNL     1      21.122   0.171  53.031  1.00  0.00     0.065 A 
ENDBRANCH  12  25
TORSDOF 3
ENDMDL
MODEL 8
REMARK VINA RESULT:      -9.2      3.052      7.321
REMARK  3 active torsions:
REMARK  status: ('A' for Active; 'I' for Inactive)
REMARK    1  A    between atoms: C7_7  and  N1_8 
REMARK    2  A    between atoms: N1_8  and  C8_9 
REMARK    3  A    between atoms: C17_20  and  C18_21 
ROOT
HETATM    1  C8  UNL     1      25.054   3.175  50.913  1.00  0.00     0.109 C 
HETATM    2  N2  UNL     1      23.964   2.446  50.814  1.00  0.00    -0.228 NA
HETATM    3  C9  UNL     1      23.094   2.231  49.678  1.00  0.00     0.235 C 
HETATM    4  N3  UNL     1      22.594   3.096  48.812  1.00  0.00    -0.241 NA
HETATM    5  C10 UNL     1      22.767   4.524  48.742  1.00  0.00     0.069 A 
HETATM    6  C11 UNL     1      21.591   5.204  48.432  1.00  0.00     0.032 A 
HETATM    7  C12 UNL     1      21.612   6.558  48.355  1.00  0.00     0.002 A 
HETATM    8  C13 UNL     1      22.711   7.325  48.560  1.00  0.00     0.001 A 
HETATM    9  C14 UNL     1      23.880   6.660  48.867  1.00  0.00     0.014 A 
HETATM   10  C15 UNL     1      23.949   5.264  48.966  1.00  0.00    -0.001 A 
HETATM   11  C16 UNL     1      25.386   5.036  49.286  1.00  0.00    -0.038 C 
HETATM   12  C17 UNL     1      26.160   5.820  48.561  1.00  0.00     0.015 C 
HETATM   13  C23 UNL     1      26.002   4.062  50.224  1.00  0.00     0.118 C 
ENDROOT
BRANCH   1  14
HETATM   14  N1  UNL     1      25.419   2.953  52.295  1.00  0.00    -0.346 N 
HETATM   15  H8  UNL     1      25.078   3.563  53.081  1.00  0.00     0.167 HD
BRANCH  14  16
HETATM   16  C7  UNL     1      26.259   1.926  52.807  1.00  0.00     0.035 C 
HETATM   17  C6  UNL     1      27.435   2.469  53.081  1.00  0.00     0.027 C 
HETATM   18  C5  UNL     1      28.667   1.902  53.622  1.00  0.00     0.002 C 
HETATM   19  C4  UNL     1      29.167   0.683  53.750  1.00  0.00     0.002 C 
HETATM   20  C3  UNL     1      28.650  -0.647  53.376  1.00  0.00     0.032 C 
HETATM   21  C2  UNL     1      27.525  -1.108  52.851  1.00  0.00     0.043 C 
HETATM   22  C1  UNL     1      27.626  -2.586  52.719  1.00  0.00     0.076 C 
HETATM   23  O1  UNL     1      26.377  -0.449  52.447  1.00  0.00    -0.350 OA
HETATM   24  C24 UNL     1      25.551   0.616  52.863  1.00  0.00     0.232 C 
ENDBRANCH  14  16
ENDBRANCH   1  14
BRANCH  12  25
HETATM   25  C18 UNL     1      27.593   6.067  48.421  1.00  0.00    -0.054 A 
HETATM   26  C19 UNL     1      28.188   7.235  48.404  1.00  0.00     0.007 A 
HETATM   27  C20 UNL     1      29.629   7.134  48.249  1.00  0.00    -0.003 A 
HETATM   28  C21 UNL     1      29.914   5.849  48.168  1.00  0.00    -0.022 A 
HETATM   29  C22 UNL     1      28.690   5.074  48.265  1.00  0.00     0.065 A 
ENDBRANCH  12  25
TORSDOF 3
ENDMDL
MODEL 9
REMARK VINA RESULT:      -9.1      2.497      7.861
REMARK  3 active torsions:
REMARK  status: ('A' for Active; 'I' for Inactive)
REMARK    1  A    between atoms: C7_7  and  N1_8 
REMARK    2  A    between atoms: N1_8  and  C8_9 
REMARK    3  A    between atoms: C17_20  and  C18_21 
ROOT
HETATM    1  C8  UNL     1      24.866   4.067  50.060  1.00  0.00     0.109 C 
HETATM    2  N2  UNL     1      23.659   3.637  49.761  1.00  0.00    -0.228 NA
HETATM    3  C9  UNL     1      22.899   3.787  48.540  1.00  0.00     0.235 C 
HETATM    4  N3  UNL     1      22.705   4.852  47.782  1.00  0.00    -0.241 NA
HETATM    5  C10 UNL     1      23.199   6.195  47.949  1.00  0.00     0.069 A 
HETATM    6  C11 UNL     1      22.246   7.169  47.656  1.00  0.00     0.032 A 
HETATM    7  C12 UNL     1      22.576   8.478  47.793  1.00  0.00     0.002 A 
HETATM    8  C13 UNL     1      23.788   8.929  48.203  1.00  0.00     0.001 A 
HETATM    9  C14 UNL     1      24.737   7.971  48.495  1.00  0.00     0.014 A 
HETATM   10  C15 UNL     1      24.482   6.598  48.380  1.00  0.00    -0.001 A 
HETATM   11  C16 UNL     1      25.786   5.996  48.775  1.00  0.00    -0.038 C 
HETATM   12  C17 UNL     1      26.793   6.664  48.246  1.00  0.00     0.015 C 
HETATM   13  C23 UNL     1      26.059   4.788  49.596  1.00  0.00     0.118 C 
ENDROOT
BRANCH   1  14
HETATM   14  N1  UNL     1      25.012   3.583  51.415  1.00  0.00    -0.346 N 
HETATM   15  H8  UNL     1      24.900   4.202  52.258  1.00  0.00     0.167 HD
BRANCH  14  16
HETATM   16  C7  UNL     1      25.316   2.256  51.825  1.00  0.00     0.035 C 
HETATM   17  C6  UNL     1      24.274   1.796  52.502  1.00  0.00     0.027 C 
HETATM   18  C5  UNL     1      24.024   0.514  53.152  1.00  0.00     0.002 C 
HETATM   19  C4  UNL     1      24.774  -0.497  53.564  1.00  0.00     0.002 C 
HETATM   20  C3  UNL     1      26.230  -0.732  53.528  1.00  0.00     0.032 C 
HETATM   21  C2  UNL     1      27.278  -0.084  53.044  1.00  0.00     0.043 C 
HETATM   22  C1  UNL     1      28.507  -0.868  53.339  1.00  0.00     0.076 C 
HETATM   23  O1  UNL     1      27.365   1.117  52.362  1.00  0.00    -0.350 OA
HETATM   24  C24 UNL     1      26.671   1.837  51.368  1.00  0.00     0.232 C 
ENDBRANCH  14  16
ENDBRANCH   1  14
BRANCH  12  25
HETATM   25  C18 UNL     1      28.251   6.581  48.261  1.00  0.00    -0.054 A 
HETATM   26  C19 UNL     1      29.090   7.580  48.391  1.00  0.00     0.007 A 
HETATM   27  C20 UNL     1      30.481   7.158  48.366  1.00  0.00    -0.003 A 
HETATM   28  C21 UNL     1      30.478   5.848  48.213  1.00  0.00    -0.022 A 
HETATM   29  C22 UNL     1      29.108   5.373  48.133  1.00  0.00     0.065 A 
ENDBRANCH  12  25
TORSDOF 3
ENDMDL
