MODEL 1
REMARK VINA RESULT:     -10.0      0.000      0.000
REMARK  6 active torsions:
REMARK  status: ('A' for Active; 'I' for Inactive)
REMARK    1  A    between atoms: C2_2  and  N1_3 
REMARK    2  A    between atoms: C2_2  and  C15_21 
REMARK    3  A    between atoms: N1_3  and  C3_4 
REMARK    4  A    between atoms: N4_9  and  C6_10 
REMARK    5  A    between atoms: C6_10  and  C7_11 
REMARK    6  A    between atoms: C10_14  and  O1_15 
ROOT
HETATM    1  C3  UNL     1      23.797   3.341  51.692  1.00  0.00     0.111 C 
HETATM    2  N2  UNL     1      22.992   3.822  52.546  1.00  0.00    -0.229 NA
HETATM    3  C4  UNL     1      21.663   4.113  52.195  1.00  0.00     0.230 C 
HETATM    4  N3  UNL     1      20.471   3.616  52.246  1.00  0.00    -0.264 NA
HETATM    5  C5  UNL     1      20.203   2.320  52.832  1.00  0.00     0.270 C 
HETATM    6  N4  UNL     1      20.865   1.314  52.064  1.00  0.00    -0.383 N 
HETATM    7  C13 UNL     1      20.922   1.475  50.686  1.00  0.00     0.193 C 
HETATM    8  S1  UNL     1      21.687   2.925  49.996  1.00  0.00    -0.142 SA
HETATM    9  C14 UNL     1      23.440   3.064  50.283  1.00  0.00     0.153 C 
ENDROOT
BRANCH   1  10
HETATM   10  N1  UNL     1      25.135   3.078  52.144  1.00  0.00    -0.369 N 
HETATM   11  H5  UNL     1      25.471   3.638  52.958  1.00  0.00     0.161 HD
BRANCH  10  12
HETATM   12  C2  UNL     1      25.941   2.057  51.451  1.00  0.00     0.113 C 
HETATM   13  C1  UNL     1      26.630   2.819  50.321  1.00  0.00     0.037 C 
BRANCH  12  14
HETATM   14  C15 UNL     1      27.036   1.579  52.304  1.00  0.00    -0.025 A 
HETATM   15  C16 UNL     1      27.798   2.565  52.945  1.00  0.00     0.010 A 
HETATM   16  C17 UNL     1      28.857   2.265  53.779  1.00  0.00     0.002 A 
HETATM   17  C18 UNL     1      29.194   0.940  54.002  1.00  0.00     0.012 A 
HETATM   18  C19 UNL     1      28.463  -0.052  53.384  1.00  0.00    -0.025 A 
HETATM   19  C20 UNL     1      28.733  -1.385  53.554  1.00  0.00     0.012 A 
HETATM   20  C24 UNL     1      27.394   0.280  52.545  1.00  0.00    -0.018 A 
HETATM   21  C21 UNL     1      27.996  -2.390  52.932  1.00  0.00     0.001 A 
HETATM   22  C22 UNL     1      26.936  -2.026  52.099  1.00  0.00     0.001 A 
HETATM   23  C23 UNL     1      26.662  -0.682  51.927  1.00  0.00     0.013 A 
ENDBRANCH  12  14
ENDBRANCH  10  12
ENDBRANCH   1  10
BRANCH   6  24
HETATM   24  C6  UNL     1      20.722  -0.008  52.571  1.00  0.00     0.158 C 
BRANCH  24  25
HETATM   25  C7  UNL     1      21.871  -0.372  53.424  1.00  0.00    -0.041 A 
HETATM   26  C8  UNL     1      21.553  -1.170  54.522  1.00  0.00     0.011 A 
HETATM   27  C9  UNL     1      22.544  -1.588  55.392  1.00  0.00     0.037 A 
HETATM   28  C10 UNL     1      23.853  -1.253  55.228  1.00  0.00     0.065 A 
HETATM   29  C11 UNL     1      24.172  -0.467  54.146  1.00  0.00     0.037 A 
HETATM   30  C12 UNL     1      23.215  -0.030  53.258  1.00  0.00     0.011 A 
BRANCH  28  31
HETATM   31  O1  UNL     1      24.858  -1.675  56.104  1.00  0.00    -0.361 OA
HETATM   32  H13 UNL     1      24.874  -2.647  56.408  1.00  0.00     0.217 HD
ENDBRANCH  28  31
ENDBRANCH  24  25
ENDBRANCH   6  24
TORSDOF 6
ENDMDL
MODEL 2
REMARK VINA RESULT:      -9.1      3.443      6.429
REMARK  6 active torsions:
REMARK  status: ('A' for Active; 'I' for Inactive)
REMARK    1  A    between atoms: C2_2  and  N1_3 
REMARK    2  A    between atoms: C2_2  and  C15_21 
REMARK    3  A    between atoms: N1_3  and  C3_4 
REMARK    4  A    between atoms: N4_9  and  C6_10 
REMARK    5  A    between atoms: C6_10  and  C7_11 
REMARK    6  A    between atoms: C10_14  and  O1_15 
ROOT
HETATM    1  C3  UNL     1      23.780   3.868  51.428  1.00  0.00     0.111 C 
HETATM    2  N2  UNL     1      23.424   3.482  50.273  1.00  0.00    -0.229 NA
HETATM    3  C4  UNL     1      22.308   4.053  49.639  1.00  0.00     0.230 C 
HETATM    4  N3  UNL     1      21.988   4.958  48.774  1.00  0.00    -0.264 NA
HETATM    5  C5  UNL     1      22.985   5.775  48.113  1.00  0.00     0.270 C 
HETATM    6  N4  UNL     1      23.651   6.579  49.087  1.00  0.00    -0.383 N 
HETATM    7  C13 UNL     1      22.901   7.083  50.143  1.00  0.00     0.193 C 
HETATM    8  S1  UNL     1      22.033   5.968  51.222  1.00  0.00    -0.142 SA
HETATM    9  C14 UNL     1      23.072   4.908  52.208  1.00  0.00     0.153 C 
ENDROOT
BRANCH   1  10
HETATM   10  N1  UNL     1      24.933   3.225  51.996  1.00  0.00    -0.369 N 
HETATM   11  H5  UNL     1      25.500   3.791  52.665  1.00  0.00     0.161 HD
BRANCH  10  12
HETATM   12  C2  UNL     1      25.243   1.835  51.614  1.00  0.00     0.113 C 
HETATM   13  C1  UNL     1      26.752   1.834  51.382  1.00  0.00     0.037 C 
BRANCH  12  14
HETATM   14  C15 UNL     1      25.035   0.919  52.742  1.00  0.00    -0.025 A 
HETATM   15  C16 UNL     1      26.149   0.674  53.555  1.00  0.00     0.010 A 
HETATM   16  C17 UNL     1      26.102  -0.165  54.652  1.00  0.00     0.002 A 
HETATM   17  C18 UNL     1      24.913  -0.797  54.975  1.00  0.00     0.012 A 
HETATM   18  C19 UNL     1      23.800  -0.576  54.192  1.00  0.00    -0.025 A 
HETATM   19  C20 UNL     1      22.589  -1.164  54.447  1.00  0.00     0.012 A 
HETATM   20  C24 UNL     1      23.876   0.278  53.087  1.00  0.00    -0.018 A 
HETATM   21  C21 UNL     1      21.462  -0.942  53.658  1.00  0.00     0.001 A 
HETATM   22  C22 UNL     1      21.569  -0.085  52.561  1.00  0.00     0.001 A 
HETATM   23  C23 UNL     1      22.792   0.509  52.304  1.00  0.00     0.013 A 
ENDBRANCH  12  14
ENDBRANCH  10  12
ENDBRANCH   1  10
BRANCH   6  24
HETATM   24  C6  UNL     1      24.696   7.393  48.569  1.00  0.00     0.158 C 
BRANCH  24  25
HETATM   25  C7  UNL     1      25.967   6.646  48.511  1.00  0.00    -0.041 A 
HETATM   26  C8  UNL     1      27.028   7.342  47.934  1.00  0.00     0.011 A 
HETATM   27  C9  UNL     1      28.276   6.754  47.831  1.00  0.00     0.037 A 
HETATM   28  C10 UNL     1      28.532   5.494  48.278  1.00  0.00     0.065 A 
HETATM   29  C11 UNL     1      27.490   4.804  48.849  1.00  0.00     0.037 A 
HETATM   30  C12 UNL     1      26.233   5.353  48.969  1.00  0.00     0.011 A 
BRANCH  28  31
HETATM   31  O1  UNL     1      29.792   4.897  48.178  1.00  0.00    -0.361 OA
HETATM   32  H13 UNL     1      29.948   4.183  47.468  1.00  0.00     0.217 HD
ENDBRANCH  28  31
ENDBRANCH  24  25
ENDBRANCH   6  24
TORSDOF 6
ENDMDL
MODEL 3
REMARK VINA RESULT:      -9.0      2.357      4.737
REMARK  6 active torsions:
REMARK  status: ('A' for Active; 'I' for Inactive)
REMARK    1  A    between atoms: C2_2  and  N1_3 
REMARK    2  A    between atoms: C2_2  and  C15_21 
REMARK    3  A    between atoms: N1_3  and  C3_4 
REMARK    4  A    between atoms: N4_9  and  C6_10 
REMARK    5  A    between atoms: C6_10  and  C7_11 
REMARK    6  A    between atoms: C10_14  and  O1_15 
ROOT
HETATM    1  C3  UNL     1      22.631   2.792  50.334  1.00  0.00     0.111 C 
HETATM    2  N2  UNL     1      22.304   3.344  51.429  1.00  0.00    -0.229 NA
HETATM    3  C4  UNL     1      20.951   3.509  51.772  1.00  0.00     0.230 C 
HETATM    4  N3  UNL     1      20.008   2.961  52.464  1.00  0.00    -0.264 NA
HETATM    5  C5  UNL     1      20.220   1.746  53.224  1.00  0.00     0.270 C 
HETATM    6  N4  UNL     1      20.528   0.680  52.325  1.00  0.00    -0.383 N 
HETATM    7  C13 UNL     1      19.877   0.650  51.098  1.00  0.00     0.193 C 
HETATM    8  S1  UNL     1      20.024   2.028  49.985  1.00  0.00    -0.142 SA
HETATM    9  C14 UNL     1      21.659   2.302  49.331  1.00  0.00     0.153 C 
ENDROOT
BRANCH   1  10
HETATM   10  N1  UNL     1      24.038   2.669  50.070  1.00  0.00    -0.369 N 
HETATM   11  H5  UNL     1      24.310   2.050  49.274  1.00  0.00     0.161 HD
BRANCH  10  12
HETATM   12  C2  UNL     1      24.997   3.404  50.914  1.00  0.00     0.113 C 
HETATM   13  C1  UNL     1      26.058   2.366  51.274  1.00  0.00     0.037 C 
BRANCH  12  14
HETATM   14  C15 UNL     1      25.714   4.422  50.137  1.00  0.00    -0.025 A 
HETATM   15  C16 UNL     1      26.808   3.971  49.387  1.00  0.00     0.010 A 
HETATM   16  C17 UNL     1      27.575   4.815  48.607  1.00  0.00     0.002 A 
HETATM   17  C18 UNL     1      27.263   6.163  48.552  1.00  0.00     0.012 A 
HETATM   18  C19 UNL     1      26.192   6.635  49.280  1.00  0.00    -0.025 A 
HETATM   19  C20 UNL     1      25.820   7.954  49.278  1.00  0.00     0.012 A 
HETATM   20  C24 UNL     1      25.432   5.759  50.062  1.00  0.00    -0.018 A 
HETATM   21  C21 UNL     1      24.737   8.434  50.012  1.00  0.00     0.001 A 
HETATM   22  C22 UNL     1      23.999   7.535  50.783  1.00  0.00     0.001 A 
HETATM   23  C23 UNL     1      24.373   6.203  50.786  1.00  0.00     0.013 A 
ENDBRANCH  12  14
ENDBRANCH  10  12
ENDBRANCH   1  10
BRANCH   6  24
HETATM   24  C6  UNL     1      20.812  -0.563  52.955  1.00  0.00     0.158 C 
BRANCH  24  25
HETATM   25  C7  UNL     1      22.177  -0.570  53.518  1.00  0.00    -0.041 A 
HETATM   26  C8  UNL     1      22.296  -1.208  54.752  1.00  0.00     0.011 A 
HETATM   27  C9  UNL     1      23.526  -1.291  55.379  1.00  0.00     0.037 A 
HETATM   28  C10 UNL     1      24.661  -0.769  54.839  1.00  0.00     0.065 A 
HETATM   29  C11 UNL     1      24.549  -0.140  53.621  1.00  0.00     0.037 A 
HETATM   30  C12 UNL     1      23.343  -0.036  52.965  1.00  0.00     0.011 A 
BRANCH  28  31
HETATM   31  O1  UNL     1      25.907  -0.852  55.467  1.00  0.00    -0.361 OA
HETATM   32  H13 UNL     1      26.005  -1.431  56.300  1.00  0.00     0.217 HD
ENDBRANCH  28  31
ENDBRANCH  24  25
ENDBRANCH   6  24
TORSDOF 6
ENDMDL
MODEL 4
REMARK VINA RESULT:      -8.8      3.227      6.036
REMARK  6 active torsions:
REMARK  status: ('A' for Active; 'I' for Inactive)
REMARK    1  A    between atoms: C2_2  and  N1_3 
REMARK    2  A    between atoms: C2_2  and  C15_21 
REMARK    3  A    between atoms: N1_3  and  C3_4 
REMARK    4  A    between atoms: N4_9  and  C6_10 
REMARK    5  A    between atoms: C6_10  and  C7_11 
REMARK    6  A    between atoms: C10_14  and  O1_15 
ROOT
HETATM    1  C3  UNL     1      26.286   2.158  52.093  1.00  0.00     0.111 C 
HETATM    2  N2  UNL     1      26.330   1.054  51.469  1.00  0.00    -0.229 NA
HETATM    3  C4  UNL     1      27.140   0.003  51.930  1.00  0.00     0.230 C 
HETATM    4  N3  UNL     1      27.088  -1.085  52.626  1.00  0.00    -0.264 NA
HETATM    5  C5  UNL     1      25.856  -1.556  53.223  1.00  0.00     0.270 C 
HETATM    6  N4  UNL     1      25.416  -0.609  54.198  1.00  0.00    -0.383 N 
HETATM    7  C13 UNL     1      26.380   0.034  54.964  1.00  0.00     0.193 C 
HETATM    8  S1  UNL     1      27.645   0.995  54.167  1.00  0.00    -0.142 SA
HETATM    9  C14 UNL     1      27.068   2.450  53.316  1.00  0.00     0.153 C 
ENDROOT
BRANCH   1  10
HETATM   10  N1  UNL     1      25.431   3.175  51.545  1.00  0.00    -0.369 N 
HETATM   11  H5  UNL     1      24.999   3.838  52.226  1.00  0.00     0.161 HD
BRANCH  10  12
HETATM   12  C2  UNL     1      25.215   3.225  50.088  1.00  0.00     0.113 C 
HETATM   13  C1  UNL     1      23.768   2.773  49.903  1.00  0.00     0.037 C 
BRANCH  12  14
HETATM   14  C15 UNL     1      25.242   4.609  49.598  1.00  0.00    -0.025 A 
HETATM   15  C16 UNL     1      24.051   5.335  49.727  1.00  0.00     0.010 A 
HETATM   16  C17 UNL     1      23.929   6.647  49.312  1.00  0.00     0.002 A 
HETATM   17  C18 UNL     1      25.019   7.285  48.742  1.00  0.00     0.012 A 
HETATM   18  C19 UNL     1      26.204   6.595  48.601  1.00  0.00    -0.025 A 
HETATM   19  C20 UNL     1      27.325   7.156  48.047  1.00  0.00     0.012 A 
HETATM   20  C24 UNL     1      26.299   5.267  49.030  1.00  0.00    -0.018 A 
HETATM   21  C21 UNL     1      28.524   6.460  47.904  1.00  0.00     0.001 A 
HETATM   22  C22 UNL     1      28.588   5.136  48.342  1.00  0.00     0.001 A 
HETATM   23  C23 UNL     1      27.457   4.570  48.900  1.00  0.00     0.013 A 
ENDBRANCH  12  14
ENDBRANCH  10  12
ENDBRANCH   1  10
BRANCH   6  24
HETATM   24  C6  UNL     1      24.180  -0.933  54.822  1.00  0.00     0.158 C 
BRANCH  24  25
HETATM   25  C7  UNL     1      23.048  -0.321  54.100  1.00  0.00    -0.041 A 
HETATM   26  C8  UNL     1      21.797  -0.556  54.668  1.00  0.00     0.011 A 
HETATM   27  C9  UNL     1      20.657  -0.027  54.091  1.00  0.00     0.037 A 
HETATM   28  C10 UNL     1      20.692   0.737  52.965  1.00  0.00     0.065 A 
HETATM   29  C11 UNL     1      21.923   0.973  52.401  1.00  0.00     0.037 A 
HETATM   30  C12 UNL     1      23.081   0.464  52.944  1.00  0.00     0.011 A 
BRANCH  28  31
HETATM   31  O1  UNL     1      19.542   1.276  52.379  1.00  0.00    -0.361 OA
HETATM   32  H13 UNL     1      19.560   2.238  52.045  1.00  0.00     0.217 HD
ENDBRANCH  28  31
ENDBRANCH  24  25
ENDBRANCH   6  24
TORSDOF 6
ENDMDL
MODEL 5
REMARK VINA RESULT:      -8.8      3.469      6.285
REMARK  6 active torsions:
REMARK  status: ('A' for Active; 'I' for Inactive)
REMARK    1  A    between atoms: C2_2  and  N1_3 
REMARK    2  A    between atoms: C2_2  and  C15_21 
REMARK    3  A    between atoms: N1_3  and  C3_4 
REMARK    4  A    between atoms: N4_9  and  C6_10 
REMARK    5  A    between atoms: C6_10  and  C7_11 
REMARK    6  A    between atoms: C10_14  and  O1_15 
ROOT
HETATM    1  C3  UNL     1      24.926   5.748  50.444  1.00  0.00     0.111 C 
HETATM    2  N2  UNL     1      24.446   6.772  51.019  1.00  0.00    -0.229 NA
HETATM    3  C4  UNL     1      24.287   7.979  50.317  1.00  0.00     0.230 C 
HETATM    4  N3  UNL     1      23.402   8.669  49.677  1.00  0.00    -0.264 NA
HETATM    5  C5  UNL     1      22.039   8.209  49.516  1.00  0.00     0.270 C 
HETATM    6  N4  UNL     1      22.038   7.010  48.739  1.00  0.00    -0.383 N 
HETATM    7  C13 UNL     1      22.954   6.904  47.700  1.00  0.00     0.193 C 
HETATM    8  S1  UNL     1      24.694   7.036  48.039  1.00  0.00    -0.142 SA
HETATM    9  C14 UNL     1      25.373   5.723  49.033  1.00  0.00     0.153 C 
ENDROOT
BRANCH   1  10
HETATM   10  N1  UNL     1      25.052   4.560  51.243  1.00  0.00    -0.369 N 
HETATM   11  H5  UNL     1      24.980   4.683  52.277  1.00  0.00     0.161 HD
BRANCH  10  12
HETATM   12  C2  UNL     1      25.270   3.263  50.575  1.00  0.00     0.113 C 
HETATM   13  C1  UNL     1      26.386   2.604  51.383  1.00  0.00     0.037 C 
BRANCH  12  14
HETATM   14  C15 UNL     1      24.110   2.380  50.746  1.00  0.00    -0.025 A 
HETATM   15  C16 UNL     1      24.051   1.659  51.946  1.00  0.00     0.010 A 
HETATM   16  C17 UNL     1      23.018   0.792  52.245  1.00  0.00     0.002 A 
HETATM   17  C18 UNL     1      21.991   0.615  51.332  1.00  0.00     0.012 A 
HETATM   18  C19 UNL     1      22.023   1.310  50.142  1.00  0.00    -0.025 A 
HETATM   19  C20 UNL     1      21.046   1.190  49.189  1.00  0.00     0.012 A 
HETATM   20  C24 UNL     1      23.081   2.183  49.865  1.00  0.00    -0.018 A 
HETATM   21  C21 UNL     1      21.075   1.891  47.986  1.00  0.00     0.001 A 
HETATM   22  C22 UNL     1      22.144   2.754  47.738  1.00  0.00     0.001 A 
HETATM   23  C23 UNL     1      23.130   2.876  48.700  1.00  0.00     0.013 A 
ENDBRANCH  12  14
ENDBRANCH  10  12
ENDBRANCH   1  10
BRANCH   6  24
HETATM   24  C6  UNL     1      20.754   6.425  48.554  1.00  0.00     0.158 C 
BRANCH  24  25
HETATM   25  C7  UNL     1      20.449   5.470  49.637  1.00  0.00    -0.041 A 
HETATM   26  C8  UNL     1      21.399   5.420  50.656  1.00  0.00     0.011 A 
HETATM   27  C9  UNL     1      21.222   4.571  51.734  1.00  0.00     0.037 A 
HETATM   28  C10 UNL     1      20.137   3.759  51.858  1.00  0.00     0.065 A 
HETATM   29  C11 UNL     1      19.197   3.805  50.856  1.00  0.00     0.037 A 
HETATM   30  C12 UNL     1      19.336   4.636  49.767  1.00  0.00     0.011 A 
BRANCH  28  31
HETATM   31  O1  UNL     1      19.954   2.901  52.946  1.00  0.00    -0.361 OA
HETATM   32  H13 UNL     1      20.771   2.521  53.422  1.00  0.00     0.217 HD
ENDBRANCH  28  31
ENDBRANCH  24  25
ENDBRANCH   6  24
TORSDOF 6
ENDMDL
MODEL 6
REMARK VINA RESULT:      -8.4      3.210      5.811
REMARK  6 active torsions:
REMARK  status: ('A' for Active; 'I' for Inactive)
REMARK    1  A    between atoms: C2_2  and  N1_3 
REMARK    2  A    between atoms: C2_2  and  C15_21 
REMARK    3  A    between atoms: N1_3  and  C3_4 
REMARK    4  A    between atoms: N4_9  and  C6_10 
REMARK    5  A    between atoms: C6_10  and  C7_11 
REMARK    6  A    between atoms: C10_14  and  O1_15 
ROOT
HETATM    1  C3  UNL     1      21.599   1.834  49.897  1.00  0.00     0.111 C 
HETATM    2  N2  UNL     1      22.121   1.784  48.742  1.00  0.00    -0.229 NA
HETATM    3  C4  UNL     1      21.482   2.377  47.641  1.00  0.00     0.230 C 
HETATM    4  N3  UNL     1      21.481   3.458  46.933  1.00  0.00    -0.264 NA
HETATM    5  C5  UNL     1      22.378   4.560  47.211  1.00  0.00     0.270 C 
HETATM    6  N4  UNL     1      22.071   5.099  48.498  1.00  0.00    -0.383 N 
HETATM    7  C13 UNL     1      20.738   5.149  48.885  1.00  0.00     0.193 C 
HETATM    8  S1  UNL     1      19.781   3.653  48.955  1.00  0.00    -0.142 SA
HETATM    9  C14 UNL     1      20.300   2.479  50.192  1.00  0.00     0.153 C 
ENDROOT
BRANCH   1  10
HETATM   10  N1  UNL     1      22.326   1.197  50.962  1.00  0.00    -0.369 N 
HETATM   11  H5  UNL     1      21.964   0.274  51.287  1.00  0.00     0.161 HD
BRANCH  10  12
HETATM   12  C2  UNL     1      23.515   1.866  51.522  1.00  0.00     0.113 C 
HETATM   13  C1  UNL     1      22.952   3.058  52.291  1.00  0.00     0.037 C 
BRANCH  12  14
HETATM   14  C15 UNL     1      24.159   1.030  52.542  1.00  0.00    -0.025 A 
HETATM   15  C16 UNL     1      23.335   0.103  53.195  1.00  0.00     0.010 A 
HETATM   16  C17 UNL     1      23.803  -0.750  54.175  1.00  0.00     0.002 A 
HETATM   17  C18 UNL     1      25.138  -0.701  54.540  1.00  0.00     0.012 A 
HETATM   18  C19 UNL     1      25.972   0.201  53.916  1.00  0.00    -0.025 A 
HETATM   19  C20 UNL     1      27.304   0.311  54.222  1.00  0.00     0.012 A 
HETATM   20  C24 UNL     1      25.472   1.054  52.926  1.00  0.00    -0.018 A 
HETATM   21  C21 UNL     1      28.150   1.221  53.592  1.00  0.00     0.001 A 
HETATM   22  C22 UNL     1      27.621   2.059  52.609  1.00  0.00     0.001 A 
HETATM   23  C23 UNL     1      26.277   1.949  52.300  1.00  0.00     0.013 A 
ENDBRANCH  12  14
ENDBRANCH  10  12
ENDBRANCH   1  10
BRANCH   6  24
HETATM   24  C6  UNL     1      22.923   6.160  48.914  1.00  0.00     0.158 C 
BRANCH  24  25
HETATM   25  C7  UNL     1      24.333   5.724  48.941  1.00  0.00    -0.041 A 
HETATM   26  C8  UNL     1      25.241   6.655  48.439  1.00  0.00     0.011 A 
HETATM   27  C9  UNL     1      26.595   6.370  48.419  1.00  0.00     0.037 A 
HETATM   28  C10 UNL     1      27.103   5.195  48.880  1.00  0.00     0.065 A 
HETATM   29  C11 UNL     1      26.212   4.274  49.379  1.00  0.00     0.037 A 
HETATM   30  C12 UNL     1      24.858   4.519  49.414  1.00  0.00     0.011 A 
BRANCH  28  31
HETATM   31  O1  UNL     1      28.471   4.904  48.865  1.00  0.00    -0.361 OA
HETATM   32  H13 UNL     1      28.821   4.200  48.216  1.00  0.00     0.217 HD
ENDBRANCH  28  31
ENDBRANCH  24  25
ENDBRANCH   6  24
TORSDOF 6
ENDMDL
MODEL 7
REMARK VINA RESULT:      -8.2      3.290      5.274
REMARK  6 active torsions:
REMARK  status: ('A' for Active; 'I' for Inactive)
REMARK    1  A    between atoms: C2_2  and  N1_3 
REMARK    2  A    between atoms: C2_2  and  C15_21 
REMARK    3  A    between atoms: N1_3  and  C3_4 
REMARK    4  A    between atoms: N4_9  and  C6_10 
REMARK    5  A    between atoms: C6_10  and  C7_11 
REMARK    6  A    between atoms: C10_14  and  O1_15 
ROOT
HETATM    1  C3  UNL     1      19.744   3.519  50.808  1.00  0.00     0.111 C 
HETATM    2  N2  UNL     1      18.906   3.542  51.760  1.00  0.00    -0.229 NA
HETATM    3  C4  UNL     1      17.630   4.102  51.579  1.00  0.00     0.230 C 
HETATM    4  N3  UNL     1      16.409   3.774  51.314  1.00  0.00    -0.264 NA
HETATM    5  C5  UNL     1      16.013   2.399  51.095  1.00  0.00     0.270 C 
HETATM    6  N4  UNL     1      16.669   1.904  49.926  1.00  0.00    -0.383 N 
HETATM    7  C13 UNL     1      16.846   2.774  48.858  1.00  0.00     0.193 C 
HETATM    8  S1  UNL     1      17.754   4.285  49.090  1.00  0.00    -0.142 SA
HETATM    9  C14 UNL     1      19.484   4.079  49.463  1.00  0.00     0.153 C 
ENDROOT
BRANCH   1  10
HETATM   10  N1  UNL     1      21.023   2.927  51.089  1.00  0.00    -0.369 N 
HETATM   11  H5  UNL     1      21.843   3.572  51.101  1.00  0.00     0.161 HD
BRANCH  10  12
HETATM   12  C2  UNL     1      21.106   1.476  51.337  1.00  0.00     0.113 C 
HETATM   13  C1  UNL     1      21.136   0.854  49.943  1.00  0.00     0.037 C 
BRANCH  12  14
HETATM   14  C15 UNL     1      22.396   1.116  51.938  1.00  0.00    -0.025 A 
HETATM   15  C16 UNL     1      23.534   1.673  51.341  1.00  0.00     0.010 A 
HETATM   16  C17 UNL     1      24.814   1.425  51.800  1.00  0.00     0.002 A 
HETATM   17  C18 UNL     1      24.996   0.594  52.892  1.00  0.00     0.012 A 
HETATM   18  C19 UNL     1      23.894   0.030  53.499  1.00  0.00    -0.025 A 
HETATM   19  C20 UNL     1      23.992  -0.802  54.584  1.00  0.00     0.012 A 
HETATM   20  C24 UNL     1      22.610   0.299  53.015  1.00  0.00    -0.018 A 
HETATM   21  C21 UNL     1      22.880  -1.372  55.200  1.00  0.00     0.001 A 
HETATM   22  C22 UNL     1      21.612  -1.085  54.693  1.00  0.00     0.001 A 
HETATM   23  C23 UNL     1      21.512  -0.246  53.598  1.00  0.00     0.013 A 
ENDBRANCH  12  14
ENDBRANCH  10  12
ENDBRANCH   1  10
BRANCH   6  24
HETATM   24  C6  UNL     1      16.403   0.538  49.631  1.00  0.00     0.158 C 
BRANCH  24  25
HETATM   25  C7  UNL     1      16.664  -0.316  50.806  1.00  0.00    -0.041 A 
HETATM   26  C8  UNL     1      17.923  -0.147  51.382  1.00  0.00     0.011 A 
HETATM   27  C9  UNL     1      18.285  -0.882  52.496  1.00  0.00     0.037 A 
HETATM   28  C10 UNL     1      17.453  -1.787  53.080  1.00  0.00     0.065 A 
HETATM   29  C11 UNL     1      16.210  -1.956  52.518  1.00  0.00     0.037 A 
HETATM   30  C12 UNL     1      15.812  -1.245  51.408  1.00  0.00     0.011 A 
BRANCH  28  31
HETATM   31  O1  UNL     1      17.815  -2.531  54.208  1.00  0.00    -0.361 OA
HETATM   32  H13 UNL     1      18.756  -2.433  54.585  1.00  0.00     0.217 HD
ENDBRANCH  28  31
ENDBRANCH  24  25
ENDBRANCH   6  24
TORSDOF 6
ENDMDL
MODEL 8
REMARK VINA RESULT:      -8.2      5.136      8.523
REMARK  6 active torsions:
REMARK  status: ('A' for Active; 'I' for Inactive)
REMARK    1  A    between atoms: C2_2  and  N1_3 
REMARK    2  A    between atoms: C2_2  and  C15_21 
REMARK    3  A    between atoms: N1_3  and  C3_4 
REMARK    4  A    between atoms: N4_9  and  C6_10 
REMARK    5  A    between atoms: C6_10  and  C7_11 
REMARK    6  A    between atoms: C10_14  and  O1_15 
ROOT
HETATM    1  C3  UNL     1      25.383   6.646  49.753  1.00  0.00     0.111 C 
HETATM    2  N2  UNL     1      24.661   6.642  48.710  1.00  0.00    -0.229 NA
HETATM    3  C4  UNL     1      24.252   7.849  48.117  1.00  0.00     0.230 C 
HETATM    4  N3  UNL     1      24.564   8.666  47.166  1.00  0.00    -0.264 NA
HETATM    5  C5  UNL     1      25.696   8.433  46.294  1.00  0.00     0.270 C 
HETATM    6  N4  UNL     1      26.897   8.472  47.066  1.00  0.00    -0.383 N 
HETATM    7  C13 UNL     1      26.975   9.388  48.108  1.00  0.00     0.193 C 
HETATM    8  S1  UNL     1      25.779   9.336  49.422  1.00  0.00    -0.142 SA
HETATM    9  C14 UNL     1      25.837   7.875  50.441  1.00  0.00     0.153 C 
ENDROOT
BRANCH   1  10
HETATM   10  N1  UNL     1      25.749   5.364  50.288  1.00  0.00    -0.369 N 
HETATM   11  H5  UNL     1      26.276   5.368  51.189  1.00  0.00     0.161 HD
BRANCH  10  12
HETATM   12  C2  UNL     1      25.372   4.142  49.554  1.00  0.00     0.113 C 
HETATM   13  C1  UNL     1      26.679   3.366  49.411  1.00  0.00     0.037 C 
BRANCH  12  14
HETATM   14  C15 UNL     1      24.509   3.280  50.371  1.00  0.00    -0.025 A 
HETATM   15  C16 UNL     1      24.816   3.213  51.736  1.00  0.00     0.010 A 
HETATM   16  C17 UNL     1      24.091   2.445  52.626  1.00  0.00     0.002 A 
HETATM   17  C18 UNL     1      23.014   1.704  52.167  1.00  0.00     0.012 A 
HETATM   18  C19 UNL     1      22.690   1.750  50.828  1.00  0.00    -0.025 A 
HETATM   19  C20 UNL     1      21.640   1.047  50.297  1.00  0.00     0.012 A 
HETATM   20  C24 UNL     1      23.441   2.537  49.949  1.00  0.00    -0.018 A 
HETATM   21  C21 UNL     1      21.309   1.091  48.945  1.00  0.00     0.001 A 
HETATM   22  C22 UNL     1      22.078   1.885  48.092  1.00  0.00     0.001 A 
HETATM   23  C23 UNL     1      23.137   2.595  48.627  1.00  0.00     0.013 A 
ENDBRANCH  12  14
ENDBRANCH  10  12
ENDBRANCH   1  10
BRANCH   6  24
HETATM   24  C6  UNL     1      28.084   8.203  46.329  1.00  0.00     0.158 C 
BRANCH  24  25
HETATM   25  C7  UNL     1      28.970   7.286  47.073  1.00  0.00    -0.041 A 
HETATM   26  C8  UNL     1      30.332   7.551  46.936  1.00  0.00     0.011 A 
HETATM   27  C9  UNL     1      31.265   6.769  47.593  1.00  0.00     0.037 A 
HETATM   28  C10 UNL     1      30.914   5.723  48.390  1.00  0.00     0.065 A 
HETATM   29  C11 UNL     1      29.573   5.458  48.530  1.00  0.00     0.037 A 
HETATM   30  C12 UNL     1      28.613   6.212  47.893  1.00  0.00     0.011 A 
BRANCH  28  31
HETATM   31  O1  UNL     1      31.854   4.931  49.057  1.00  0.00    -0.361 OA
HETATM   32  H13 UNL     1      31.736   4.755  50.054  1.00  0.00     0.217 HD
ENDBRANCH  28  31
ENDBRANCH  24  25
ENDBRANCH   6  24
TORSDOF 6
ENDMDL
MODEL 9
REMARK VINA RESULT:      -8.2      3.312      5.978
REMARK  6 active torsions:
REMARK  status: ('A' for Active; 'I' for Inactive)
REMARK    1  A    between atoms: C2_2  and  N1_3 
REMARK    2  A    between atoms: C2_2  and  C15_21 
REMARK    3  A    between atoms: N1_3  and  C3_4 
REMARK    4  A    between atoms: N4_9  and  C6_10 
REMARK    5  A    between atoms: C6_10  and  C7_11 
REMARK    6  A    between atoms: C10_14  and  O1_15 
ROOT
HETATM    1  C3  UNL     1      22.870   3.334  51.436  1.00  0.00     0.111 C 
HETATM    2  N2  UNL     1      22.387   2.606  50.516  1.00  0.00    -0.229 NA
HETATM    3  C4  UNL     1      21.098   2.850  50.012  1.00  0.00     0.230 C 
HETATM    4  N3  UNL     1      20.486   3.438  49.038  1.00  0.00    -0.264 NA
HETATM    5  C5  UNL     1      21.202   4.149  47.999  1.00  0.00     0.270 C 
HETATM    6  N4  UNL     1      21.885   5.261  48.580  1.00  0.00    -0.383 N 
HETATM    7  C13 UNL     1      21.257   5.948  49.612  1.00  0.00     0.193 C 
HETATM    8  S1  UNL     1      20.789   5.082  51.092  1.00  0.00    -0.142 SA
HETATM    9  C14 UNL     1      22.146   4.461  52.066  1.00  0.00     0.153 C 
ENDROOT
BRANCH   1  10
HETATM   10  N1  UNL     1      24.195   3.008  51.887  1.00  0.00    -0.369 N 
HETATM   11  H5  UNL     1      24.707   3.753  52.407  1.00  0.00     0.161 HD
BRANCH  10  12
HETATM   12  C2  UNL     1      24.745   1.671  51.599  1.00  0.00     0.113 C 
HETATM   13  C1  UNL     1      26.171   1.941  51.127  1.00  0.00     0.037 C 
BRANCH  12  14
HETATM   14  C15 UNL     1      24.899   0.886  52.831  1.00  0.00    -0.025 A 
HETATM   15  C16 UNL     1      26.146   0.965  53.463  1.00  0.00     0.010 A 
HETATM   16  C17 UNL     1      26.435   0.284  54.630  1.00  0.00     0.002 A 
HETATM   17  C18 UNL     1      25.464  -0.515  55.210  1.00  0.00     0.012 A 
HETATM   18  C19 UNL     1      24.227  -0.612  54.610  1.00  0.00    -0.025 A 
HETATM   19  C20 UNL     1      23.214  -1.380  55.123  1.00  0.00     0.012 A 
HETATM   20  C24 UNL     1      23.961   0.089  53.429  1.00  0.00    -0.018 A 
HETATM   21  C21 UNL     1      21.963  -1.481  54.518  1.00  0.00     0.001 A 
HETATM   22  C22 UNL     1      21.729  -0.769  53.340  1.00  0.00     0.001 A 
HETATM   23  C23 UNL     1      22.750   0.007  52.822  1.00  0.00     0.013 A 
ENDBRANCH  12  14
ENDBRANCH  10  12
ENDBRANCH   1  10
BRANCH   6  24
HETATM   24  C6  UNL     1      22.673   6.014  47.666  1.00  0.00     0.158 C 
BRANCH  24  25
HETATM   25  C7  UNL     1      24.077   6.088  48.116  1.00  0.00    -0.041 A 
HETATM   26  C8  UNL     1      24.746   7.256  47.753  1.00  0.00     0.011 A 
HETATM   27  C9  UNL     1      26.063   7.451  48.125  1.00  0.00     0.037 A 
HETATM   28  C10 UNL     1      26.763   6.536  48.850  1.00  0.00     0.065 A 
HETATM   29  C11 UNL     1      26.108   5.383  49.213  1.00  0.00     0.037 A 
HETATM   30  C12 UNL     1      24.797   5.152  48.862  1.00  0.00     0.011 A 
BRANCH  28  31
HETATM   31  O1  UNL     1      28.095   6.729  49.230  1.00  0.00    -0.361 OA
HETATM   32  H13 UNL     1      28.824   6.695  48.519  1.00  0.00     0.217 HD
ENDBRANCH  28  31
ENDBRANCH  24  25
ENDBRANCH   6  24
TORSDOF 6
ENDMDL
