MODEL 1
REMARK VINA RESULT:      -9.1      0.000      0.000
REMARK  2 active torsions:
REMARK  status: ('A' for Active; 'I' for Inactive)
REMARK    1  A    between atoms: C12_16  and  N3_17 
REMARK    2  A    between atoms: N3_17  and  C13_18 
ROOT
HETATM    1  C1  UNL     1      17.943  -0.076  50.812  1.00  0.00     0.079 C 
HETATM    2  C2  UNL     1      19.142   0.753  51.222  1.00  0.00     0.163 C 
HETATM    3  C3  UNL     1      18.501   2.204  51.292  1.00  0.00     0.079 C 
HETATM    4  O1  UNL     1      19.865   0.497  52.208  1.00  0.00    -0.353 OA
HETATM    5  C4  UNL     1      20.323   0.208  53.349  1.00  0.00     0.198 C 
HETATM    6  C5  UNL     1      21.694   0.554  53.852  1.00  0.00     0.202 C 
HETATM    7  O2  UNL     1      22.811   0.125  53.000  1.00  0.00    -0.348 OA
HETATM    8  C6  UNL     1      22.775   0.918  51.792  1.00  0.00     0.087 A 
HETATM    9  C7  UNL     1      21.690   0.988  50.988  1.00  0.00     0.074 A 
HETATM   10  C8  UNL     1      21.067   1.491  49.888  1.00  0.00     0.077 A 
HETATM   11  C9  UNL     1      22.092   2.269  49.449  1.00  0.00     0.069 A 
HETATM   12  C10 UNL     1      23.320   2.397  50.051  1.00  0.00     0.077 A 
HETATM   13  N1  UNL     1      24.227   3.229  49.457  1.00  0.00    -0.241 NA
HETATM   14  C11 UNL     1      25.427   3.312  50.105  1.00  0.00     0.236 A 
HETATM   15  N2  UNL     1      25.817   2.672  51.258  1.00  0.00    -0.223 NA
HETATM   16  C12 UNL     1      24.905   1.853  51.834  1.00  0.00     0.144 A 
HETATM   17  C19 UNL     1      23.688   1.747  51.204  1.00  0.00     0.072 A 
HETATM   18  O3  UNL     1      19.876   0.901  49.960  1.00  0.00    -0.315 OA
ENDROOT
BRANCH  16  19
HETATM   19  N3  UNL     1      25.216   1.160  53.020  1.00  0.00    -0.340 N 
HETATM   20  H14 UNL     1      24.776   0.815  53.876  1.00  0.00     0.167 HD
BRANCH  19  21
HETATM   21  C13 UNL     1      26.554   0.726  53.251  1.00  0.00     0.035 A 
HETATM   22  C14 UNL     1      27.651   1.448  53.742  1.00  0.00     0.032 A 
HETATM   23  C15 UNL     1      28.895   0.890  53.941  1.00  0.00     0.046 A 
HETATM   24  C16 UNL     1      29.126  -0.439  53.659  1.00  0.00     0.138 A 
HETATM   25  F1  UNL     1      30.367  -0.884  53.886  1.00  0.00    -0.204 F 
HETATM   26  C17 UNL     1      28.057  -1.190  53.167  1.00  0.00     0.074 A 
HETATM   27 CL1  UNL     1      28.492  -2.857  52.853  1.00  0.00    -0.081 Cl
HETATM   28  C18 UNL     1      26.822  -0.605  52.978  1.00  0.00     0.056 A 
ENDBRANCH  19  21
ENDBRANCH  16  19
TORSDOF 2
ENDMDL
MODEL 2
REMARK VINA RESULT:      -9.1      1.996      3.560
REMARK  2 active torsions:
REMARK  status: ('A' for Active; 'I' for Inactive)
REMARK    1  A    between atoms: C12_16  and  N3_17 
REMARK    2  A    between atoms: N3_17  and  C13_18 
ROOT
HETATM    1  C1  UNL     1      18.811   4.483  50.515  1.00  0.00     0.079 C 
HETATM    2  C2  UNL     1      19.673   3.257  50.735  1.00  0.00     0.163 C 
HETATM    3  C3  UNL     1      18.721   2.112  50.186  1.00  0.00     0.079 C 
HETATM    4  O1  UNL     1      20.847   3.146  50.327  1.00  0.00    -0.353 OA
HETATM    5  C4  UNL     1      21.913   3.139  49.648  1.00  0.00     0.198 C 
HETATM    6  C5  UNL     1      23.122   2.296  49.933  1.00  0.00     0.202 C 
HETATM    7  O2  UNL     1      23.671   2.409  51.291  1.00  0.00    -0.348 OA
HETATM    8  C6  UNL     1      22.723   1.809  52.201  1.00  0.00     0.087 A 
HETATM    9  C7  UNL     1      21.430   2.198  52.282  1.00  0.00     0.074 A 
HETATM   10  C8  UNL     1      20.186   2.057  52.815  1.00  0.00     0.077 A 
HETATM   11  C9  UNL     1      20.474   1.029  53.656  1.00  0.00     0.069 A 
HETATM   12  C10 UNL     1      21.701   0.427  53.803  1.00  0.00     0.077 A 
HETATM   13  N1  UNL     1      21.796  -0.594  54.705  1.00  0.00    -0.241 NA
HETATM   14  C11 UNL     1      23.041  -1.148  54.801  1.00  0.00     0.236 A 
HETATM   15  N2  UNL     1      24.181  -0.807  54.112  1.00  0.00    -0.223 NA
HETATM   16  C12 UNL     1      24.067   0.208  53.222  1.00  0.00     0.144 A 
HETATM   17  C19 UNL     1      22.827   0.787  53.102  1.00  0.00     0.072 A 
HETATM   18  O3  UNL     1      19.509   3.004  52.171  1.00  0.00    -0.315 OA
ENDROOT
BRANCH  16  19
HETATM   19  N3  UNL     1      25.182   0.623  52.467  1.00  0.00    -0.340 N 
HETATM   20  H14 UNL     1      25.421   1.187  51.648  1.00  0.00     0.167 HD
BRANCH  19  21
HETATM   21  C13 UNL     1      26.487   0.196  52.848  1.00  0.00     0.035 A 
HETATM   22  C14 UNL     1      27.094  -1.059  52.695  1.00  0.00     0.032 A 
HETATM   23  C15 UNL     1      28.386  -1.327  53.091  1.00  0.00     0.046 A 
HETATM   24  C16 UNL     1      29.163  -0.350  53.672  1.00  0.00     0.138 A 
HETATM   25  F1  UNL     1      30.403  -0.711  54.021  1.00  0.00    -0.204 F 
HETATM   26  C17 UNL     1      28.593   0.913  53.842  1.00  0.00     0.074 A 
HETATM   27 CL1  UNL     1      29.691   2.054  54.591  1.00  0.00    -0.081 Cl
HETATM   28  C18 UNL     1      27.297   1.154  53.435  1.00  0.00     0.056 A 
ENDBRANCH  19  21
ENDBRANCH  16  19
TORSDOF 2
ENDMDL
MODEL 3
REMARK VINA RESULT:      -9.0      4.683      7.899
REMARK  2 active torsions:
REMARK  status: ('A' for Active; 'I' for Inactive)
REMARK    1  A    between atoms: C12_16  and  N3_17 
REMARK    2  A    between atoms: N3_17  and  C13_18 
ROOT
HETATM    1  C1  UNL     1      26.793   0.339  54.858  1.00  0.00     0.079 C 
HETATM    2  C2  UNL     1      25.574  -0.129  54.091  1.00  0.00     0.163 C 
HETATM    3  C3  UNL     1      26.242  -1.066  52.998  1.00  0.00     0.079 C 
HETATM    4  O1  UNL     1      24.571  -0.648  54.623  1.00  0.00    -0.353 OA
HETATM    5  C4  UNL     1      23.768  -1.344  55.307  1.00  0.00     0.198 C 
HETATM    6  C5  UNL     1      22.330  -1.606  54.965  1.00  0.00     0.202 C 
HETATM    7  O2  UNL     1      21.508  -0.414  54.720  1.00  0.00    -0.348 OA
HETATM    8  C6  UNL     1      21.957   0.186  53.484  1.00  0.00     0.087 A 
HETATM    9  C7  UNL     1      23.239   0.560  53.270  1.00  0.00     0.074 A 
HETATM   10  C8  UNL     1      24.197   1.075  52.453  1.00  0.00     0.077 A 
HETATM   11  C9  UNL     1      23.402   1.297  51.373  1.00  0.00     0.069 A 
HETATM   12  C10 UNL     1      22.057   1.027  51.293  1.00  0.00     0.077 A 
HETATM   13  N1  UNL     1      21.425   1.323  50.119  1.00  0.00    -0.241 NA
HETATM   14  C11 UNL     1      20.091   1.030  50.106  1.00  0.00     0.236 A 
HETATM   15  N2  UNL     1      19.329   0.484  51.113  1.00  0.00    -0.223 NA
HETATM   16  C12 UNL     1      19.973   0.196  52.269  1.00  0.00     0.144 A 
HETATM   17  C19 UNL     1      21.317   0.481  52.314  1.00  0.00     0.072 A 
HETATM   18  O3  UNL     1      25.273   1.023  53.234  1.00  0.00    -0.315 OA
ENDROOT
BRANCH  16  19
HETATM   19  N3  UNL     1      19.274  -0.371  53.353  1.00  0.00    -0.340 N 
HETATM   20  H14 UNL     1      19.326  -0.462  54.370  1.00  0.00     0.167 HD
BRANCH  19  21
HETATM   21  C13 UNL     1      18.068  -1.091  53.113  1.00  0.00     0.035 A 
HETATM   22  C14 UNL     1      16.870  -0.652  52.532  1.00  0.00     0.032 A 
HETATM   23  C15 UNL     1      15.780  -1.471  52.336  1.00  0.00     0.046 A 
HETATM   24  C16 UNL     1      15.817  -2.796  52.713  1.00  0.00     0.138 A 
HETATM   25  F1  UNL     1      14.707  -3.507  52.480  1.00  0.00    -0.204 F 
HETATM   26  C17 UNL     1      16.993  -3.270  53.296  1.00  0.00     0.074 A 
HETATM   27 CL1  UNL     1      16.899  -4.966  53.724  1.00  0.00    -0.081 Cl
HETATM   28  C18 UNL     1      18.069  -2.427  53.479  1.00  0.00     0.056 A 
ENDBRANCH  19  21
ENDBRANCH  16  19
TORSDOF 2
ENDMDL
MODEL 4
REMARK VINA RESULT:      -8.7      4.357      7.516
REMARK  2 active torsions:
REMARK  status: ('A' for Active; 'I' for Inactive)
REMARK    1  A    between atoms: C12_16  and  N3_17 
REMARK    2  A    between atoms: N3_17  and  C13_18 
ROOT
HETATM    1  C1  UNL     1      28.911  -0.888  53.454  1.00  0.00     0.079 C 
HETATM    2  C2  UNL     1      27.624  -0.104  53.602  1.00  0.00     0.163 C 
HETATM    3  C3  UNL     1      27.849   0.590  55.012  1.00  0.00     0.079 C 
HETATM    4  O1  UNL     1      27.183   0.685  52.741  1.00  0.00    -0.353 OA
HETATM    5  C4  UNL     1      27.029   1.588  51.872  1.00  0.00     0.198 C 
HETATM    6  C5  UNL     1      25.726   2.242  51.516  1.00  0.00     0.202 C 
HETATM    7  O2  UNL     1      24.636   1.329  51.148  1.00  0.00    -0.348 OA
HETATM    8  C6  UNL     1      24.242   0.610  52.338  1.00  0.00     0.087 A 
HETATM    9  C7  UNL     1      25.108  -0.115  53.081  1.00  0.00     0.074 A 
HETATM   10  C8  UNL     1      25.367  -0.891  54.168  1.00  0.00     0.077 A 
HETATM   11  C9  UNL     1      24.110  -0.893  54.684  1.00  0.00     0.069 A 
HETATM   12  C10 UNL     1      23.018  -0.255  54.147  1.00  0.00     0.077 A 
HETATM   13  N1  UNL     1      21.830  -0.375  54.810  1.00  0.00    -0.241 NA
HETATM   14  C11 UNL     1      20.786   0.284  54.225  1.00  0.00     0.236 A 
HETATM   15  N2  UNL     1      20.793   1.037  53.074  1.00  0.00    -0.223 NA
HETATM   16  C12 UNL     1      21.979   1.146  52.430  1.00  0.00     0.144 A 
HETATM   17  C19 UNL     1      23.049   0.493  52.994  1.00  0.00     0.072 A 
HETATM   18  O3  UNL     1      26.667  -1.136  54.020  1.00  0.00    -0.315 OA
ENDROOT
BRANCH  16  19
HETATM   19  N3  UNL     1      22.082   1.902  51.246  1.00  0.00    -0.340 N 
HETATM   20  H14 UNL     1      22.222   1.786  50.240  1.00  0.00     0.167 HD
BRANCH  19  21
HETATM   21  C13 UNL     1      21.973   3.322  51.307  1.00  0.00     0.035 A 
HETATM   22  C14 UNL     1      22.756   4.245  52.016  1.00  0.00     0.032 A 
HETATM   23  C15 UNL     1      22.552   5.607  51.963  1.00  0.00     0.046 A 
HETATM   24  C16 UNL     1      21.542   6.140  51.191  1.00  0.00     0.138 A 
HETATM   25  F1  UNL     1      21.427   7.472  51.207  1.00  0.00    -0.204 F 
HETATM   26  C17 UNL     1      20.742   5.251  50.471  1.00  0.00     0.074 A 
HETATM   27 CL1  UNL     1      19.502   6.064  49.537  1.00  0.00    -0.081 Cl
HETATM   28  C18 UNL     1      20.969   3.892  50.542  1.00  0.00     0.056 A 
ENDBRANCH  19  21
ENDBRANCH  16  19
TORSDOF 2
ENDMDL
MODEL 5
REMARK VINA RESULT:      -8.6      4.398      7.719
REMARK  2 active torsions:
REMARK  status: ('A' for Active; 'I' for Inactive)
REMARK    1  A    between atoms: C12_16  and  N3_17 
REMARK    2  A    between atoms: N3_17  and  C13_18 
ROOT
HETATM    1  C1  UNL     1      28.849  -1.000  53.255  1.00  0.00     0.079 C 
HETATM    2  C2  UNL     1      27.613  -0.173  53.542  1.00  0.00     0.163 C 
HETATM    3  C3  UNL     1      27.803   0.135  55.088  1.00  0.00     0.079 C 
HETATM    4  O1  UNL     1      27.281   0.837  52.887  1.00  0.00    -0.353 OA
HETATM    5  C4  UNL     1      27.242   1.936  52.264  1.00  0.00     0.198 C 
HETATM    6  C5  UNL     1      26.011   2.762  52.030  1.00  0.00     0.202 C 
HETATM    7  O2  UNL     1      24.883   2.060  51.404  1.00  0.00    -0.348 OA
HETATM    8  C6  UNL     1      24.370   1.106  52.361  1.00  0.00     0.087 A 
HETATM    9  C7  UNL     1      25.138   0.153  52.935  1.00  0.00     0.074 A 
HETATM   10  C8  UNL     1      25.278  -0.884  53.804  1.00  0.00     0.077 A 
HETATM   11  C9  UNL     1      23.995  -0.909  54.252  1.00  0.00     0.069 A 
HETATM   12  C10 UNL     1      22.984  -0.070  53.848  1.00  0.00     0.077 A 
HETATM   13  N1  UNL     1      21.753  -0.251  54.413  1.00  0.00    -0.241 NA
HETATM   14  C11 UNL     1      20.795   0.615  53.968  1.00  0.00     0.236 A 
HETATM   15  N2  UNL     1      20.922   1.624  53.042  1.00  0.00    -0.223 NA
HETATM   16  C12 UNL     1      22.150   1.789  52.494  1.00  0.00     0.144 A 
HETATM   17  C19 UNL     1      23.136   0.931  52.920  1.00  0.00     0.072 A 
HETATM   18  O3  UNL     1      26.564  -1.192  53.651  1.00  0.00    -0.315 OA
ENDROOT
BRANCH  16  19
HETATM   19  N3  UNL     1      22.375   2.800  51.540  1.00  0.00    -0.340 N 
HETATM   20  H14 UNL     1      22.901   3.668  51.411  1.00  0.00     0.167 HD
BRANCH  19  21
HETATM   21  C13 UNL     1      21.719   2.733  50.276  1.00  0.00     0.035 A 
HETATM   22  C14 UNL     1      21.880   1.803  49.238  1.00  0.00     0.032 A 
HETATM   23  C15 UNL     1      21.155   1.845  48.068  1.00  0.00     0.046 A 
HETATM   24  C16 UNL     1      20.213   2.828  47.855  1.00  0.00     0.138 A 
HETATM   25  F1  UNL     1      19.563   2.780  46.687  1.00  0.00    -0.204 F 
HETATM   26  C17 UNL     1      20.026   3.772  48.866  1.00  0.00     0.074 A 
HETATM   27 CL1  UNL     1      18.802   4.959  48.462  1.00  0.00    -0.081 Cl
HETATM   28  C18 UNL     1      20.766   3.706  50.028  1.00  0.00     0.056 A 
ENDBRANCH  19  21
ENDBRANCH  16  19
TORSDOF 2
ENDMDL
MODEL 6
REMARK VINA RESULT:      -8.4      2.686      3.990
REMARK  2 active torsions:
REMARK  status: ('A' for Active; 'I' for Inactive)
REMARK    1  A    between atoms: C12_16  and  N3_17 
REMARK    2  A    between atoms: N3_17  and  C13_18 
ROOT
HETATM    1  C1  UNL     1      21.155   7.489  49.992  1.00  0.00     0.079 C 
HETATM    2  C2  UNL     1      21.580   6.035  50.006  1.00  0.00     0.163 C 
HETATM    3  C3  UNL     1      20.455   5.379  49.098  1.00  0.00     0.079 C 
HETATM    4  O1  UNL     1      22.727   5.640  49.713  1.00  0.00    -0.353 OA
HETATM    5  C4  UNL     1      23.850   5.428  49.173  1.00  0.00     0.198 C 
HETATM    6  C5  UNL     1      24.699   4.208  49.378  1.00  0.00     0.202 C 
HETATM    7  O2  UNL     1      25.009   3.876  50.774  1.00  0.00    -0.348 OA
HETATM    8  C6  UNL     1      23.784   3.442  51.407  1.00  0.00     0.087 A 
HETATM    9  C7  UNL     1      22.662   4.196  51.437  1.00  0.00     0.074 A 
HETATM   10  C8  UNL     1      21.356   4.355  51.782  1.00  0.00     0.077 A 
HETATM   11  C9  UNL     1      21.186   3.146  52.379  1.00  0.00     0.069 A 
HETATM   12  C10 UNL     1      22.146   2.171  52.511  1.00  0.00     0.077 A 
HETATM   13  N1  UNL     1      21.786   1.016  53.147  1.00  0.00    -0.241 NA
HETATM   14  C11 UNL     1      22.785   0.090  53.244  1.00  0.00     0.236 A 
HETATM   15  N2  UNL     1      24.078   0.181  52.785  1.00  0.00    -0.223 NA
HETATM   16  C12 UNL     1      24.416   1.331  52.155  1.00  0.00     0.144 A 
HETATM   17  C19 UNL     1      23.433   2.285  52.043  1.00  0.00     0.072 A 
HETATM   18  O3  UNL     1      21.100   5.574  51.313  1.00  0.00    -0.315 OA
ENDROOT
BRANCH  16  19
HETATM   19  N3  UNL     1      25.718   1.511  51.648  1.00  0.00    -0.340 N 
HETATM   20  H14 UNL     1      26.210   1.925  50.853  1.00  0.00     0.167 HD
BRANCH  19  21
HETATM   21  C13 UNL     1      26.833   1.000  52.374  1.00  0.00     0.035 A 
HETATM   22  C14 UNL     1      27.761   1.680  53.175  1.00  0.00     0.032 A 
HETATM   23  C15 UNL     1      28.786   1.050  53.846  1.00  0.00     0.046 A 
HETATM   24  C16 UNL     1      28.952  -0.315  53.759  1.00  0.00     0.138 A 
HETATM   25  F1  UNL     1      29.977  -0.830  54.447  1.00  0.00    -0.204 F 
HETATM   26  C17 UNL     1      28.047  -1.027  52.970  1.00  0.00     0.074 A 
HETATM   27 CL1  UNL     1      28.376  -2.748  52.950  1.00  0.00    -0.081 Cl
HETATM   28  C18 UNL     1      27.030  -0.370  52.309  1.00  0.00     0.056 A 
ENDBRANCH  19  21
ENDBRANCH  16  19
TORSDOF 2
ENDMDL
MODEL 7
REMARK VINA RESULT:      -8.4      2.914      3.670
REMARK  2 active torsions:
REMARK  status: ('A' for Active; 'I' for Inactive)
REMARK    1  A    between atoms: C12_16  and  N3_17 
REMARK    2  A    between atoms: N3_17  and  C13_18 
ROOT
HETATM    1  C1  UNL     1      19.324   6.523  49.329  1.00  0.00     0.079 C 
HETATM    2  C2  UNL     1      20.706   6.253  49.887  1.00  0.00     0.163 C 
HETATM    3  C3  UNL     1      21.086   7.681  50.468  1.00  0.00     0.079 C 
HETATM    4  O1  UNL     1      20.970   5.325  50.679  1.00  0.00    -0.353 OA
HETATM    5  C4  UNL     1      20.987   4.491  51.629  1.00  0.00     0.198 C 
HETATM    6  C5  UNL     1      22.194   3.737  52.106  1.00  0.00     0.202 C 
HETATM    7  O2  UNL     1      22.921   2.983  51.076  1.00  0.00    -0.348 OA
HETATM    8  C6  UNL     1      23.551   3.937  50.192  1.00  0.00     0.087 A 
HETATM    9  C7  UNL     1      22.865   4.903  49.541  1.00  0.00     0.074 A 
HETATM   10  C8  UNL     1      22.844   5.982  48.712  1.00  0.00     0.077 A 
HETATM   11  C9  UNL     1      24.180   6.036  48.466  1.00  0.00     0.069 A 
HETATM   12  C10 UNL     1      25.129   5.184  48.978  1.00  0.00     0.077 A 
HETATM   13  N1  UNL     1      26.428   5.396  48.612  1.00  0.00    -0.241 NA
HETATM   14  C11 UNL     1      27.319   4.515  49.156  1.00  0.00     0.236 A 
HETATM   15  N2  UNL     1      27.067   3.467  50.010  1.00  0.00    -0.223 NA
HETATM   16  C12 UNL     1      25.774   3.272  50.363  1.00  0.00     0.144 A 
HETATM   17  C19 UNL     1      24.852   4.142  49.830  1.00  0.00     0.072 A 
HETATM   18  O3  UNL     1      21.547   6.277  48.686  1.00  0.00    -0.315 OA
ENDROOT
BRANCH  16  19
HETATM   19  N3  UNL     1      25.423   2.226  51.237  1.00  0.00    -0.340 N 
HETATM   20  H14 UNL     1      24.605   1.707  51.567  1.00  0.00     0.167 HD
BRANCH  19  21
HETATM   21  C13 UNL     1      26.439   1.564  51.986  1.00  0.00     0.035 A 
HETATM   22  C14 UNL     1      27.458   2.110  52.779  1.00  0.00     0.032 A 
HETATM   23  C15 UNL     1      28.367   1.343  53.475  1.00  0.00     0.046 A 
HETATM   24  C16 UNL     1      28.316  -0.033  53.423  1.00  0.00     0.138 A 
HETATM   25  F1  UNL     1      29.243  -0.685  54.133  1.00  0.00    -0.204 F 
HETATM   26  C17 UNL     1      27.315  -0.613  52.642  1.00  0.00     0.074 A 
HETATM   27 CL1  UNL     1      27.369  -2.364  52.667  1.00  0.00    -0.081 Cl
HETATM   28  C18 UNL     1      26.418   0.179  51.956  1.00  0.00     0.056 A 
ENDBRANCH  19  21
ENDBRANCH  16  19
TORSDOF 2
ENDMDL
MODEL 8
REMARK VINA RESULT:      -8.3      4.202      6.676
REMARK  2 active torsions:
REMARK  status: ('A' for Active; 'I' for Inactive)
REMARK    1  A    between atoms: C12_16  and  N3_17 
REMARK    2  A    between atoms: N3_17  and  C13_18 
ROOT
HETATM    1  C1  UNL     1      25.137   7.475  47.743  1.00  0.00     0.079 C 
HETATM    2  C2  UNL     1      25.146   6.672  49.028  1.00  0.00     0.163 C 
HETATM    3  C3  UNL     1      26.308   7.395  49.832  1.00  0.00     0.079 C 
HETATM    4  O1  UNL     1      24.133   6.463  49.727  1.00  0.00    -0.353 OA
HETATM    5  C4  UNL     1      23.066   6.555  50.398  1.00  0.00     0.198 C 
HETATM    6  C5  UNL     1      22.625   5.601  51.469  1.00  0.00     0.202 C 
HETATM    7  O2  UNL     1      22.572   4.186  51.079  1.00  0.00    -0.348 OA
HETATM    8  C6  UNL     1      23.929   3.733  50.879  1.00  0.00     0.087 A 
HETATM    9  C7  UNL     1      24.788   4.330  50.022  1.00  0.00     0.074 A 
HETATM   10  C8  UNL     1      26.025   4.421  49.462  1.00  0.00     0.077 A 
HETATM   11  C9  UNL     1      26.592   3.380  50.126  1.00  0.00     0.069 A 
HETATM   12  C10 UNL     1      25.968   2.579  51.052  1.00  0.00     0.077 A 
HETATM   13  N1  UNL     1      26.706   1.576  51.614  1.00  0.00    -0.241 NA
HETATM   14  C11 UNL     1      26.027   0.818  52.526  1.00  0.00     0.236 A 
HETATM   15  N2  UNL     1      24.720   0.946  52.935  1.00  0.00    -0.223 NA
HETATM   16  C12 UNL     1      24.005   1.946  52.368  1.00  0.00     0.144 A 
HETATM   17  C19 UNL     1      24.660   2.726  51.445  1.00  0.00     0.072 A 
HETATM   18  O3  UNL     1      25.873   5.458  48.642  1.00  0.00    -0.315 OA
ENDROOT
BRANCH  16  19
HETATM   19  N3  UNL     1      22.659   2.155  52.729  1.00  0.00    -0.340 N 
HETATM   20  H14 UNL     1      21.978   2.908  52.851  1.00  0.00     0.167 HD
BRANCH  19  21
HETATM   21  C13 UNL     1      21.840   1.039  53.066  1.00  0.00     0.035 A 
HETATM   22  C14 UNL     1      22.027   0.065  54.058  1.00  0.00     0.032 A 
HETATM   23  C15 UNL     1      21.132  -0.956  54.292  1.00  0.00     0.046 A 
HETATM   24  C16 UNL     1      19.981  -1.072  53.543  1.00  0.00     0.138 A 
HETATM   25  F1  UNL     1      19.178  -2.097  53.850  1.00  0.00    -0.204 F 
HETATM   26  C17 UNL     1      19.761  -0.121  52.546  1.00  0.00     0.074 A 
HETATM   27 CL1  UNL     1      18.265  -0.389  51.675  1.00  0.00    -0.081 Cl
HETATM   28  C18 UNL     1      20.674   0.891  52.333  1.00  0.00     0.056 A 
ENDBRANCH  19  21
ENDBRANCH  16  19
TORSDOF 2
ENDMDL
MODEL 9
REMARK VINA RESULT:      -8.3      3.438      5.154
REMARK  2 active torsions:
REMARK  status: ('A' for Active; 'I' for Inactive)
REMARK    1  A    between atoms: C12_16  and  N3_17 
REMARK    2  A    between atoms: N3_17  and  C13_18 
ROOT
HETATM    1  C1  UNL     1      24.147   8.864  49.702  1.00  0.00     0.079 C 
HETATM    2  C2  UNL     1      23.951   7.364  49.635  1.00  0.00     0.163 C 
HETATM    3  C3  UNL     1      22.724   7.261  48.633  1.00  0.00     0.079 C 
HETATM    4  O1  UNL     1      24.861   6.552  49.367  1.00  0.00    -0.353 OA
HETATM    5  C4  UNL     1      25.839   5.928  48.865  1.00  0.00     0.198 C 
HETATM    6  C5  UNL     1      26.110   4.461  49.024  1.00  0.00     0.202 C 
HETATM    7  O2  UNL     1      26.162   3.969  50.407  1.00  0.00    -0.348 OA
HETATM    8  C6  UNL     1      24.825   4.040  50.951  1.00  0.00     0.087 A 
HETATM    9  C7  UNL     1      24.101   5.181  50.982  1.00  0.00     0.074 A 
HETATM   10  C8  UNL     1      22.948   5.840  51.277  1.00  0.00     0.077 A 
HETATM   11  C9  UNL     1      22.266   4.777  51.781  1.00  0.00     0.069 A 
HETATM   12  C10 UNL     1      22.742   3.492  51.888  1.00  0.00     0.077 A 
HETATM   13  N1  UNL     1      21.906   2.555  52.426  1.00  0.00    -0.241 NA
HETATM   14  C11 UNL     1      22.440   1.300  52.503  1.00  0.00     0.236 A 
HETATM   15  N2  UNL     1      23.689   0.880  52.111  1.00  0.00    -0.223 NA
HETATM   16  C12 UNL     1      24.504   1.822  51.579  1.00  0.00     0.144 A 
HETATM   17  C19 UNL     1      23.996   3.097  51.489  1.00  0.00     0.072 A 
HETATM   18  O3  UNL     1      23.236   7.078  50.883  1.00  0.00    -0.315 OA
ENDROOT
BRANCH  16  19
HETATM   19  N3  UNL     1      25.800   1.483  51.145  1.00  0.00    -0.340 N 
HETATM   20  H14 UNL     1      26.401   1.539  50.320  1.00  0.00     0.167 HD
BRANCH  19  21
HETATM   21  C13 UNL     1      26.697   0.838  52.046  1.00  0.00     0.035 A 
HETATM   22  C14 UNL     1      26.859  -0.528  52.315  1.00  0.00     0.032 A 
HETATM   23  C15 UNL     1      27.792  -1.018  53.202  1.00  0.00     0.046 A 
HETATM   24  C16 UNL     1      28.633  -0.166  53.885  1.00  0.00     0.138 A 
HETATM   25  F1  UNL     1      29.503  -0.741  54.723  1.00  0.00    -0.204 F 
HETATM   26  C17 UNL     1      28.500   1.202  53.643  1.00  0.00     0.074 A 
HETATM   27 CL1  UNL     1      29.629   2.164  54.577  1.00  0.00    -0.081 Cl
HETATM   28  C18 UNL     1      27.557   1.665  52.749  1.00  0.00     0.056 A 
ENDBRANCH  19  21
ENDBRANCH  16  19
TORSDOF 2
ENDMDL
