MODEL 1
REMARK VINA RESULT:      -7.5      0.000      0.000
REMARK  5 active torsions:
REMARK  status: ('A' for Active; 'I' for Inactive)
REMARK    1  A    between atoms: N1_2  and  C3_4 
REMARK    2  A    between atoms: C3_4  and  C4_5 
REMARK    3  A    between atoms: C5_6  and  N2_7 
REMARK    4  A    between atoms: N2_7  and  O1_8 
REMARK    5  A    between atoms: N2_7  and  C6_9 
ROOT
HETATM    1  C6  UNL     1      25.753   3.302  49.827  1.00  0.00     0.042 C 
HETATM    2  C7  UNL     1      26.900   3.999  49.690  1.00  0.00     0.060 C 
HETATM    3  C8  UNL     1      27.296   5.183  48.889  1.00  0.00     0.068 A 
HETATM    4  N3  UNL     1      28.611   5.065  48.602  1.00  0.00    -0.259 NA
HETATM    5  C9  UNL     1      29.179   6.018  47.867  1.00  0.00     0.140 A 
HETATM    6  C10 UNL     1      28.442   7.085  47.420  1.00  0.00     0.063 A 
HETATM    7  C11 UNL     1      29.164   8.042  46.633  1.00  0.00     0.101 C 
HETATM    8  N4  UNL     1      29.763   8.806  45.990  1.00  0.00    -0.191 NA
HETATM    9  C12 UNL     1      27.100   7.250  47.686  1.00  0.00     0.038 A 
HETATM   10  C13 UNL     1      26.531   6.271  48.438  1.00  0.00    -0.006 A 
HETATM   11  C14 UNL     1      25.109   6.648  48.596  1.00  0.00     0.010 C 
HETATM   12  C15 UNL     1      24.088   5.939  49.063  1.00  0.00    -0.025 C 
HETATM   13  C16 UNL     1      23.646   4.648  49.619  1.00  0.00     0.033 C 
HETATM   14  C17 UNL     1      24.431   3.460  49.198  1.00  0.00     0.063 C 
ENDROOT
BRANCH   1  15
HETATM   15  N2  UNL     1      26.123   2.335  50.735  1.00  0.00    -0.240 N 
BRANCH  15  16
HETATM   16  C5  UNL     1      26.510   1.368  51.655  1.00  0.00     0.120 C 
HETATM   17  C4  UNL     1      26.667   0.156  52.065  1.00  0.00     0.023 C 
BRANCH  17  18
HETATM   18  C3  UNL     1      27.260  -0.003  53.409  1.00  0.00     0.300 C 
BRANCH  18  19
HETATM   19  N1  UNL     1      28.705   0.145  53.426  1.00  0.00     0.083 N 
HETATM   20  C1  UNL     1      29.406  -1.105  53.534  1.00  0.00     0.309 C 
HETATM   21  C2  UNL     1      29.087   1.033  54.488  1.00  0.00     0.309 C 
ENDBRANCH  18  19
ENDBRANCH  17  18
ENDBRANCH  15  16
BRANCH  15  22
HETATM   22  O1  UNL     1      27.132   3.222  51.077  1.00  0.00    -0.283 OA
HETATM   23  H11 UNL     1      26.753   4.145  51.174  1.00  0.00     0.245 HD
ENDBRANCH  15  22
ENDBRANCH   1  15
TORSDOF 5
ENDMDL
MODEL 2
REMARK VINA RESULT:      -7.5      2.079      7.094
REMARK  5 active torsions:
REMARK  status: ('A' for Active; 'I' for Inactive)
REMARK    1  A    between atoms: N1_2  and  C3_4 
REMARK    2  A    between atoms: C3_4  and  C4_5 
REMARK    3  A    between atoms: C5_6  and  N2_7 
REMARK    4  A    between atoms: N2_7  and  O1_8 
REMARK    5  A    between atoms: N2_7  and  C6_9 
ROOT
HETATM    1  C6  UNL     1      25.992   4.238  49.855  1.00  0.00     0.042 C 
HETATM    2  C7  UNL     1      26.537   3.226  50.561  1.00  0.00     0.060 C 
HETATM    3  C8  UNL     1      25.993   2.217  51.503  1.00  0.00     0.068 A 
HETATM    4  N3  UNL     1      26.968   1.912  52.388  1.00  0.00    -0.259 NA
HETATM    5  C9  UNL     1      26.690   1.031  53.345  1.00  0.00     0.140 A 
HETATM    6  C10 UNL     1      25.447   0.455  53.423  1.00  0.00     0.063 A 
HETATM    7  C11 UNL     1      25.268  -0.473  54.501  1.00  0.00     0.101 C 
HETATM    8  N4  UNL     1      25.137  -1.220  55.386  1.00  0.00    -0.191 NA
HETATM    9  C12 UNL     1      24.422   0.732  52.545  1.00  0.00     0.038 A 
HETATM   10  C13 UNL     1      24.718   1.633  51.571  1.00  0.00    -0.006 A 
HETATM   11  C14 UNL     1      23.490   1.777  50.758  1.00  0.00     0.010 C 
HETATM   12  C15 UNL     1      23.188   2.672  49.824  1.00  0.00    -0.025 C 
HETATM   13  C16 UNL     1      23.639   3.854  49.069  1.00  0.00     0.033 C 
HETATM   14  C17 UNL     1      24.608   4.736  49.768  1.00  0.00     0.063 C 
ENDROOT
BRANCH   1  15
HETATM   15  N2  UNL     1      27.092   4.745  49.202  1.00  0.00    -0.240 N 
BRANCH  15  16
HETATM   16  C5  UNL     1      28.199   5.273  48.547  1.00  0.00     0.120 C 
HETATM   17  C4  UNL     1      28.825   6.178  47.875  1.00  0.00     0.023 C 
BRANCH  17  18
HETATM   18  C3  UNL     1      30.230   5.876  47.532  1.00  0.00     0.300 C 
BRANCH  18  19
HETATM   19  N1  UNL     1      31.104   5.799  48.689  1.00  0.00     0.083 N 
HETATM   20  C1  UNL     1      31.465   7.084  49.221  1.00  0.00     0.309 C 
HETATM   21  C2  UNL     1      32.279   5.041  48.358  1.00  0.00     0.309 C 
ENDBRANCH  18  19
ENDBRANCH  17  18
ENDBRANCH  15  16
BRANCH  15  22
HETATM   22  O1  UNL     1      26.682   5.962  49.722  1.00  0.00    -0.283 OA
HETATM   23  H11 UNL     1      25.797   6.218  49.329  1.00  0.00     0.245 HD
ENDBRANCH  15  22
ENDBRANCH   1  15
TORSDOF 5
ENDMDL
MODEL 3
REMARK VINA RESULT:      -7.5      4.438      7.692
REMARK  5 active torsions:
REMARK  status: ('A' for Active; 'I' for Inactive)
REMARK    1  A    between atoms: N1_2  and  C3_4 
REMARK    2  A    between atoms: C3_4  and  C4_5 
REMARK    3  A    between atoms: C5_6  and  N2_7 
REMARK    4  A    between atoms: N2_7  and  O1_8 
REMARK    5  A    between atoms: N2_7  and  C6_9 
ROOT
HETATM    1  C6  UNL     1      24.337   2.187  51.639  1.00  0.00     0.042 C 
HETATM    2  C7  UNL     1      23.685   1.205  52.295  1.00  0.00     0.060 C 
HETATM    3  C8  UNL     1      22.281   0.725  52.298  1.00  0.00     0.068 A 
HETATM    4  N3  UNL     1      22.018   0.228  53.527  1.00  0.00    -0.259 NA
HETATM    5  C9  UNL     1      20.798  -0.246  53.761  1.00  0.00     0.140 A 
HETATM    6  C10 UNL     1      19.841  -0.227  52.778  1.00  0.00     0.063 A 
HETATM    7  C11 UNL     1      18.564  -0.759  53.154  1.00  0.00     0.101 C 
HETATM    8  N4  UNL     1      17.531  -1.189  53.477  1.00  0.00    -0.191 NA
HETATM    9  C12 UNL     1      20.061   0.268  51.511  1.00  0.00     0.038 A 
HETATM   10  C13 UNL     1      21.311   0.749  51.282  1.00  0.00    -0.006 A 
HETATM   11  C14 UNL     1      21.320   1.222  49.880  1.00  0.00     0.010 C 
HETATM   12  C15 UNL     1      22.221   1.953  49.235  1.00  0.00    -0.025 C 
HETATM   13  C16 UNL     1      23.509   2.664  49.319  1.00  0.00     0.033 C 
HETATM   14  C17 UNL     1      23.874   3.186  50.661  1.00  0.00     0.063 C 
ENDROOT
BRANCH   1  15
HETATM   15  N2  UNL     1      25.615   2.049  52.134  1.00  0.00    -0.240 N 
BRANCH  15  16
HETATM   16  C5  UNL     1      26.902   1.924  52.643  1.00  0.00     0.120 C 
HETATM   17  C4  UNL     1      27.945   2.348  53.271  1.00  0.00     0.023 C 
BRANCH  17  18
HETATM   18  C3  UNL     1      29.071   1.397  53.374  1.00  0.00     0.300 C 
BRANCH  18  19
HETATM   19  N1  UNL     1      28.667   0.065  53.792  1.00  0.00     0.083 N 
HETATM   20  C1  UNL     1      28.280  -0.007  55.173  1.00  0.00     0.309 C 
HETATM   21  C2  UNL     1      29.722  -0.869  53.513  1.00  0.00     0.309 C 
ENDBRANCH  18  19
ENDBRANCH  17  18
ENDBRANCH  15  16
BRANCH  15  22
HETATM   22  O1  UNL     1      25.289   3.140  52.925  1.00  0.00    -0.283 OA
HETATM   23  H11 UNL     1      25.165   3.951  52.350  1.00  0.00     0.245 HD
ENDBRANCH  15  22
ENDBRANCH   1  15
TORSDOF 5
ENDMDL
MODEL 4
REMARK VINA RESULT:      -7.3      3.079      6.587
REMARK  5 active torsions:
REMARK  status: ('A' for Active; 'I' for Inactive)
REMARK    1  A    between atoms: N1_2  and  C3_4 
REMARK    2  A    between atoms: C3_4  and  C4_5 
REMARK    3  A    between atoms: C5_6  and  N2_7 
REMARK    4  A    between atoms: N2_7  and  O1_8 
REMARK    5  A    between atoms: N2_7  and  C6_9 
ROOT
HETATM    1  C6  UNL     1      28.662   6.114  48.303  1.00  0.00     0.042 C 
HETATM    2  C7  UNL     1      28.050   4.957  48.629  1.00  0.00     0.060 C 
HETATM    3  C8  UNL     1      26.710   4.616  49.168  1.00  0.00     0.068 A 
HETATM    4  N3  UNL     1      26.837   3.489  49.904  1.00  0.00    -0.259 NA
HETATM    5  C9  UNL     1      25.751   3.009  50.503  1.00  0.00     0.140 A 
HETATM    6  C10 UNL     1      24.542   3.645  50.370  1.00  0.00     0.063 A 
HETATM    7  C11 UNL     1      23.449   3.034  51.067  1.00  0.00     0.101 C 
HETATM    8  N4  UNL     1      22.572   2.529  51.645  1.00  0.00    -0.191 NA
HETATM    9  C12 UNL     1      24.362   4.793  49.630  1.00  0.00     0.038 A 
HETATM   10  C13 UNL     1      25.478   5.275  49.023  1.00  0.00    -0.006 A 
HETATM   11  C14 UNL     1      25.058   6.493  48.296  1.00  0.00     0.010 C 
HETATM   12  C15 UNL     1      25.794   7.437  47.720  1.00  0.00    -0.025 C 
HETATM   13  C16 UNL     1      27.154   7.913  47.415  1.00  0.00     0.033 C 
HETATM   14  C17 UNL     1      28.211   7.514  48.380  1.00  0.00     0.063 C 
ENDROOT
BRANCH   1  15
HETATM   15  N2  UNL     1      29.889   5.667  47.870  1.00  0.00    -0.240 N 
BRANCH  15  16
HETATM   16  C5  UNL     1      31.134   5.214  47.449  1.00  0.00     0.120 C 
HETATM   17  C4  UNL     1      32.319   4.742  47.638  1.00  0.00     0.023 C 
BRANCH  17  18
HETATM   18  C3  UNL     1      33.125   4.509  46.422  1.00  0.00     0.300 C 
BRANCH  18  19
HETATM   19  N1  UNL     1      34.156   3.501  46.595  1.00  0.00     0.083 N 
HETATM   20  C1  UNL     1      34.772   3.530  47.893  1.00  0.00     0.309 C 
HETATM   21  C2  UNL     1      35.146   3.639  45.563  1.00  0.00     0.309 C 
ENDBRANCH  18  19
ENDBRANCH  17  18
ENDBRANCH  15  16
BRANCH  15  22
HETATM   22  O1  UNL     1      30.167   5.512  49.220  1.00  0.00    -0.283 OA
HETATM   23  H11 UNL     1      29.926   6.351  49.714  1.00  0.00     0.245 HD
ENDBRANCH  15  22
ENDBRANCH   1  15
TORSDOF 5
ENDMDL
MODEL 5
REMARK VINA RESULT:      -7.3      3.337      8.515
REMARK  5 active torsions:
REMARK  status: ('A' for Active; 'I' for Inactive)
REMARK    1  A    between atoms: N1_2  and  C3_4 
REMARK    2  A    between atoms: C3_4  and  C4_5 
REMARK    3  A    between atoms: C5_6  and  N2_7 
REMARK    4  A    between atoms: N2_7  and  O1_8 
REMARK    5  A    between atoms: N2_7  and  C6_9 
ROOT
HETATM    1  C6  UNL     1      26.071   1.415  51.377  1.00  0.00     0.042 C 
HETATM    2  C7  UNL     1      24.744   1.636  51.482  1.00  0.00     0.060 C 
HETATM    3  C8  UNL     1      23.633   0.929  52.165  1.00  0.00     0.068 A 
HETATM    4  N3  UNL     1      22.507   1.142  51.448  1.00  0.00    -0.259 NA
HETATM    5  C9  UNL     1      21.380   0.578  51.873  1.00  0.00     0.140 A 
HETATM    6  C10 UNL     1      21.370  -0.193  53.008  1.00  0.00     0.063 A 
HETATM    7  C11 UNL     1      20.097  -0.750  53.360  1.00  0.00     0.101 C 
HETATM    8  N4  UNL     1      19.057  -1.200  53.629  1.00  0.00    -0.191 NA
HETATM    9  C12 UNL     1      22.490  -0.437  53.773  1.00  0.00     0.038 A 
HETATM   10  C13 UNL     1      23.636   0.144  53.329  1.00  0.00    -0.006 A 
HETATM   11  C14 UNL     1      24.693  -0.248  54.287  1.00  0.00     0.010 C 
HETATM   12  C15 UNL     1      26.012  -0.117  54.199  1.00  0.00    -0.025 C 
HETATM   13  C16 UNL     1      27.144   0.354  53.382  1.00  0.00     0.033 C 
HETATM   14  C17 UNL     1      26.929   0.344  51.912  1.00  0.00     0.063 C 
ENDROOT
BRANCH   1  15
HETATM   15  N2  UNL     1      26.468   2.474  50.593  1.00  0.00    -0.240 N 
BRANCH  15  16
HETATM   16  C5  UNL     1      26.877   3.551  49.815  1.00  0.00     0.120 C 
HETATM   17  C4  UNL     1      26.685   4.641  49.153  1.00  0.00     0.023 C 
BRANCH  17  18
HETATM   18  C3  UNL     1      27.881   5.236  48.523  1.00  0.00     0.300 C 
BRANCH  18  19
HETATM   19  N1  UNL     1      27.810   6.681  48.397  1.00  0.00     0.083 N 
HETATM   20  C1  UNL     1      26.512   7.158  48.006  1.00  0.00     0.309 C 
HETATM   21  C2  UNL     1      28.814   7.136  47.475  1.00  0.00     0.309 C 
ENDBRANCH  18  19
ENDBRANCH  17  18
ENDBRANCH  15  16
BRANCH  15  22
HETATM   22  O1  UNL     1      27.132   2.904  51.731  1.00  0.00    -0.283 OA
HETATM   23  H11 UNL     1      28.034   3.264  51.482  1.00  0.00     0.245 HD
ENDBRANCH  15  22
ENDBRANCH   1  15
TORSDOF 5
ENDMDL
MODEL 6
REMARK VINA RESULT:      -7.1      2.753      7.587
REMARK  5 active torsions:
REMARK  status: ('A' for Active; 'I' for Inactive)
REMARK    1  A    between atoms: N1_2  and  C3_4 
REMARK    2  A    between atoms: C3_4  and  C4_5 
REMARK    3  A    between atoms: C5_6  and  N2_7 
REMARK    4  A    between atoms: N2_7  and  O1_8 
REMARK    5  A    between atoms: N2_7  and  C6_9 
ROOT
HETATM    1  C6  UNL     1      23.682   4.868  51.754  1.00  0.00     0.042 C 
HETATM    2  C7  UNL     1      24.665   4.003  51.432  1.00  0.00     0.060 C 
HETATM    3  C8  UNL     1      24.963   2.597  51.803  1.00  0.00     0.068 A 
HETATM    4  N3  UNL     1      26.305   2.439  51.774  1.00  0.00    -0.259 NA
HETATM    5  C9  UNL     1      26.801   1.247  52.095  1.00  0.00     0.140 A 
HETATM    6  C10 UNL     1      25.966   0.215  52.443  1.00  0.00     0.063 A 
HETATM    7  C11 UNL     1      26.620  -1.017  52.774  1.00  0.00     0.101 C 
HETATM    8  N4  UNL     1      27.166  -2.009  53.047  1.00  0.00    -0.191 NA
HETATM    9  C12 UNL     1      24.593   0.327  52.487  1.00  0.00     0.038 A 
HETATM   10  C13 UNL     1      24.098   1.548  52.156  1.00  0.00    -0.006 A 
HETATM   11  C14 UNL     1      22.627   1.440  52.270  1.00  0.00     0.010 C 
HETATM   12  C15 UNL     1      21.700   2.391  52.254  1.00  0.00    -0.025 C 
HETATM   13  C16 UNL     1      21.429   3.836  52.150  1.00  0.00     0.033 C 
HETATM   14  C17 UNL     1      22.510   4.733  52.635  1.00  0.00     0.063 C 
ENDROOT
BRANCH   1  15
HETATM   15  N2  UNL     1      24.052   5.986  51.041  1.00  0.00    -0.240 N 
BRANCH  15  16
HETATM   16  C5  UNL     1      24.430   7.123  50.337  1.00  0.00     0.120 C 
HETATM   17  C4  UNL     1      24.261   8.325  49.900  1.00  0.00     0.023 C 
BRANCH  17  18
HETATM   18  C3  UNL     1      25.353   8.872  49.070  1.00  0.00     0.300 C 
BRANCH  18  19
HETATM   19  N1  UNL     1      26.668   8.382  49.445  1.00  0.00     0.083 N 
HETATM   20  C1  UNL     1      27.423   9.318  50.232  1.00  0.00     0.309 C 
HETATM   21  C2  UNL     1      27.399   8.007  48.267  1.00  0.00     0.309 C 
ENDBRANCH  18  19
ENDBRANCH  17  18
ENDBRANCH  15  16
BRANCH  15  22
HETATM   22  O1  UNL     1      24.368   6.517  52.282  1.00  0.00    -0.283 OA
HETATM   23  H11 UNL     1      25.205   7.064  52.214  1.00  0.00     0.245 HD
ENDBRANCH  15  22
ENDBRANCH   1  15
TORSDOF 5
ENDMDL
MODEL 7
REMARK VINA RESULT:      -7.1      6.059      9.303
REMARK  5 active torsions:
REMARK  status: ('A' for Active; 'I' for Inactive)
REMARK    1  A    between atoms: N1_2  and  C3_4 
REMARK    2  A    between atoms: C3_4  and  C4_5 
REMARK    3  A    between atoms: C5_6  and  N2_7 
REMARK    4  A    between atoms: N2_7  and  O1_8 
REMARK    5  A    between atoms: N2_7  and  C6_9 
ROOT
HETATM    1  C6  UNL     1      20.989   0.458  50.987  1.00  0.00     0.042 C 
HETATM    2  C7  UNL     1      21.609   0.261  52.169  1.00  0.00     0.060 C 
HETATM    3  C8  UNL     1      23.018   0.370  52.624  1.00  0.00     0.068 A 
HETATM    4  N3  UNL     1      23.199  -0.525  53.620  1.00  0.00    -0.259 NA
HETATM    5  C9  UNL     1      24.407  -0.613  54.169  1.00  0.00     0.140 A 
HETATM    6  C10 UNL     1      25.432   0.187  53.730  1.00  0.00     0.063 A 
HETATM    7  C11 UNL     1      26.687  -0.005  54.395  1.00  0.00     0.101 C 
HETATM    8  N4  UNL     1      27.702  -0.178  54.941  1.00  0.00    -0.191 NA
HETATM    9  C12 UNL     1      25.297   1.114  52.719  1.00  0.00     0.038 A 
HETATM   10  C13 UNL     1      24.058   1.196  52.167  1.00  0.00    -0.006 A 
HETATM   11  C14 UNL     1      24.143   2.238  51.120  1.00  0.00     0.010 C 
HETATM   12  C15 UNL     1      23.278   2.555  50.162  1.00  0.00    -0.025 C 
HETATM   13  C16 UNL     1      21.975   2.258  49.542  1.00  0.00     0.033 C 
HETATM   14  C17 UNL     1      21.504   0.854  49.665  1.00  0.00     0.063 C 
ENDROOT
BRANCH   1  15
HETATM   15  N2  UNL     1      19.682   0.171  51.309  1.00  0.00    -0.240 N 
BRANCH  15  16
HETATM   16  C5  UNL     1      18.362  -0.106  51.646  1.00  0.00     0.120 C 
HETATM   17  C4  UNL     1      17.438  -0.606  52.393  1.00  0.00     0.023 C 
BRANCH  17  18
HETATM   18  C3  UNL     1      16.049  -0.406  51.929  1.00  0.00     0.300 C 
BRANCH  18  19
HETATM   19  N1  UNL     1      15.272   0.471  52.788  1.00  0.00     0.083 N 
HETATM   20  C1  UNL     1      13.951  -0.023  53.062  1.00  0.00     0.309 C 
HETATM   21  C2  UNL     1      15.212   1.785  52.211  1.00  0.00     0.309 C 
ENDBRANCH  18  19
ENDBRANCH  17  18
ENDBRANCH  15  16
BRANCH  15  22
HETATM   22  O1  UNL     1      19.784   1.262  52.158  1.00  0.00    -0.283 OA
HETATM   23  H11 UNL     1      20.090   0.960  53.063  1.00  0.00     0.245 HD
ENDBRANCH  15  22
ENDBRANCH   1  15
TORSDOF 5
ENDMDL
MODEL 8
REMARK VINA RESULT:      -7.0      4.847      8.706
REMARK  5 active torsions:
REMARK  status: ('A' for Active; 'I' for Inactive)
REMARK    1  A    between atoms: N1_2  and  C3_4 
REMARK    2  A    between atoms: C3_4  and  C4_5 
REMARK    3  A    between atoms: C5_6  and  N2_7 
REMARK    4  A    between atoms: N2_7  and  O1_8 
REMARK    5  A    between atoms: N2_7  and  C6_9 
ROOT
HETATM    1  C6  UNL     1      21.389   2.092  52.485  1.00  0.00     0.042 C 
HETATM    2  C7  UNL     1      22.729   2.178  52.360  1.00  0.00     0.060 C 
HETATM    3  C8  UNL     1      23.870   1.445  52.964  1.00  0.00     0.068 A 
HETATM    4  N3  UNL     1      24.915   2.298  53.038  1.00  0.00    -0.259 NA
HETATM    5  C9  UNL     1      26.049   1.852  53.570  1.00  0.00     0.140 A 
HETATM    6  C10 UNL     1      26.145   0.561  54.027  1.00  0.00     0.063 A 
HETATM    7  C11 UNL     1      27.416   0.202  54.584  1.00  0.00     0.101 C 
HETATM    8  N4  UNL     1      28.452  -0.073  55.040  1.00  0.00    -0.191 NA
HETATM    9  C12 UNL     1      25.109  -0.345  53.972  1.00  0.00     0.038 A 
HETATM   10  C13 UNL     1      23.955   0.121  53.426  1.00  0.00    -0.006 A 
HETATM   11  C14 UNL     1      22.995  -1.003  53.470  1.00  0.00     0.010 C 
HETATM   12  C15 UNL     1      21.685  -1.013  53.252  1.00  0.00    -0.025 C 
HETATM   13  C16 UNL     1      20.495  -0.215  52.907  1.00  0.00     0.033 C 
HETATM   14  C17 UNL     1      20.537   1.215  53.307  1.00  0.00     0.063 C 
ENDROOT
BRANCH   1  15
HETATM   15  N2  UNL     1      20.966   3.083  51.628  1.00  0.00    -0.240 N 
BRANCH  15  16
HETATM   16  C5  UNL     1      20.527   4.089  50.775  1.00  0.00     0.120 C 
HETATM   17  C4  UNL     1      19.836   4.553  49.791  1.00  0.00     0.023 C 
BRANCH  17  18
HETATM   18  C3  UNL     1      19.987   5.996  49.515  1.00  0.00     0.300 C 
BRANCH  18  19
HETATM   19  N1  UNL     1      21.335   6.490  49.738  1.00  0.00     0.083 N 
HETATM   20  C1  UNL     1      21.378   7.709  50.497  1.00  0.00     0.309 C 
HETATM   21  C2  UNL     1      22.005   6.654  48.479  1.00  0.00     0.309 C 
ENDBRANCH  18  19
ENDBRANCH  17  18
ENDBRANCH  15  16
BRANCH  15  22
HETATM   22  O1  UNL     1      20.070   3.398  52.638  1.00  0.00    -0.283 OA
HETATM   23  H11 UNL     1      20.446   4.131  53.209  1.00  0.00     0.245 HD
ENDBRANCH  15  22
ENDBRANCH   1  15
TORSDOF 5
ENDMDL
MODEL 9
REMARK VINA RESULT:      -6.9      5.481      8.983
REMARK  5 active torsions:
REMARK  status: ('A' for Active; 'I' for Inactive)
REMARK    1  A    between atoms: N1_2  and  C3_4 
REMARK    2  A    between atoms: C3_4  and  C4_5 
REMARK    3  A    between atoms: C5_6  and  N2_7 
REMARK    4  A    between atoms: N2_7  and  O1_8 
REMARK    5  A    between atoms: N2_7  and  C6_9 
ROOT
HETATM    1  C6  UNL     1      21.471   1.243  52.124  1.00  0.00     0.042 C 
HETATM    2  C7  UNL     1      22.782   1.053  51.872  1.00  0.00     0.060 C 
HETATM    3  C8  UNL     1      23.933   0.598  52.692  1.00  0.00     0.068 A 
HETATM    4  N3  UNL     1      25.045   1.196  52.208  1.00  0.00    -0.259 NA
HETATM    5  C9  UNL     1      26.203   0.942  52.812  1.00  0.00     0.140 A 
HETATM    6  C10 UNL     1      26.256   0.097  53.891  1.00  0.00     0.063 A 
HETATM    7  C11 UNL     1      27.560  -0.091  54.458  1.00  0.00     0.101 C 
HETATM    8  N4  UNL     1      28.625  -0.228  54.911  1.00  0.00    -0.191 NA
HETATM    9  C12 UNL     1      25.153  -0.536  54.419  1.00  0.00     0.038 A 
HETATM   10  C13 UNL     1      23.975  -0.270  53.795  1.00  0.00    -0.006 A 
HETATM   11  C14 UNL     1      22.942  -1.044  54.519  1.00  0.00     0.010 C 
HETATM   12  C15 UNL     1      21.618  -0.977  54.440  1.00  0.00    -0.025 C 
HETATM   13  C16 UNL     1      20.461  -0.322  53.805  1.00  0.00     0.033 C 
HETATM   14  C17 UNL     1      20.676   1.076  53.353  1.00  0.00     0.063 C 
ENDROOT
BRANCH   1  15
HETATM   15  N2  UNL     1      21.013   1.674  50.899  1.00  0.00    -0.240 N 
BRANCH  15  16
HETATM   16  C5  UNL     1      20.554   2.093  49.656  1.00  0.00     0.120 C 
HETATM   17  C4  UNL     1      20.601   2.171  48.370  1.00  0.00     0.023 C 
BRANCH  17  18
HETATM   18  C3  UNL     1      19.526   2.954  47.728  1.00  0.00     0.300 C 
BRANCH  18  19
HETATM   19  N1  UNL     1      19.995   3.806  46.649  1.00  0.00     0.083 N 
HETATM   20  C1  UNL     1      19.236   3.663  45.437  1.00  0.00     0.309 C 
HETATM   21  C2  UNL     1      21.388   3.555  46.406  1.00  0.00     0.309 C 
ENDBRANCH  18  19
ENDBRANCH  17  18
ENDBRANCH  15  16
BRANCH  15  22
HETATM   22  O1  UNL     1      21.200   0.357  50.509  1.00  0.00    -0.283 OA
HETATM   23  H11 UNL     1      22.161   0.100  50.630  1.00  0.00     0.245 HD
ENDBRANCH  15  22
ENDBRANCH   1  15
TORSDOF 5
ENDMDL
