MODEL 1
REMARK VINA RESULT:      -6.1      0.000      0.000
REMARK  9 active torsions:
REMARK  status: ('A' for Active; 'I' for Inactive)
REMARK    1  A    between atoms: C2_2  and  N1_3 
REMARK    2  A    between atoms: N1_3  and  O1_4 
REMARK    3  A    between atoms: N1_3  and  C6_8 
REMARK    4  A    between atoms: O1_4  and  C3_5 
REMARK    5  A    between atoms: C3_5  and  C4_6 
REMARK    6  A    between atoms: C10_13  and  N2_14 
REMARK    7  A    between atoms: N2_14  and  C11_15 
REMARK    8  A    between atoms: C11_15  and  C12_16 
REMARK    9  A    between atoms: C12_16  and  N3_17 
ROOT
HETATM    1  C6  UNL     1      22.197   1.701  51.863  1.00  0.00     0.271 C 
HETATM    2  C7  UNL     1      22.400   1.848  50.404  1.00  0.00     0.258 C 
HETATM    3  O2  UNL     1      21.871   2.931  49.741  1.00  0.00    -0.357 OA
HETATM    4  C8  UNL     1      22.274   4.268  49.544  1.00  0.00     0.133 C 
HETATM    5  C9  UNL     1      22.888   5.205  50.289  1.00  0.00     0.030 C 
HETATM    6  C10 UNL     1      23.002   5.230  51.768  1.00  0.00     0.175 C 
HETATM    7  C13 UNL     1      23.037   3.889  52.351  1.00  0.00     0.126 C 
HETATM    8  N4  UNL     1      22.070   3.001  52.480  1.00  0.00    -0.216 NA
HETATM    9  N5  UNL     1      24.374   3.677  52.775  1.00  0.00    -0.372 N 
HETATM   10  C14 UNL     1      24.947   2.471  53.292  1.00  0.00     0.167 C 
HETATM   11  C15 UNL     1      24.502   1.230  52.659  1.00  0.00     0.108 C 
HETATM   12  N6  UNL     1      23.291   0.943  52.387  1.00  0.00    -0.247 NA
HETATM   13  H21 UNL     1      24.903   4.561  52.650  1.00  0.00     0.161 HD
ENDROOT
BRANCH   1  14
HETATM   14  N1  UNL     1      20.998   0.961  52.232  1.00  0.00    -0.219 N 
BRANCH  14  15
HETATM   15  C2  UNL     1      20.185   0.364  51.227  1.00  0.00     0.095 C 
HETATM   16  C1  UNL     1      18.868   0.212  51.114  1.00  0.00     0.052 C 
ENDBRANCH  14  15
BRANCH  14  17
HETATM   17  O1  UNL     1      20.172   0.508  53.202  1.00  0.00    -0.275 OA
BRANCH  17  18
HETATM   18  C3  UNL     1      20.810   0.213  54.383  1.00  0.00     0.201 C 
BRANCH  18  19
HETATM   19  C4  UNL     1      21.257  -1.230  54.476  1.00  0.00     0.024 C 
HETATM   20  C5  UNL     1      22.625  -1.265  55.123  1.00  0.00     0.007 C 
ENDBRANCH  18  19
ENDBRANCH  17  18
ENDBRANCH  14  17
ENDBRANCH   1  14
BRANCH   6  21
HETATM   21  N2  UNL     1      24.130   6.024  52.209  1.00  0.00    -0.383 N 
HETATM   22  H16 UNL     1      24.952   6.583  52.597  1.00  0.00     0.160 HD
BRANCH  21  23
HETATM   23  C11 UNL     1      24.595   6.720  51.027  1.00  0.00     0.100 C 
BRANCH  23  24
HETATM   24  C12 UNL     1      25.596   7.419  50.463  1.00  0.00     0.097 C 
BRANCH  24  25
HETATM   25  N3  UNL     1      26.780   8.197  50.337  1.00  0.00    -0.407 N 
HETATM   26  H19 UNL     1      27.205   8.428  51.264  1.00  0.00     0.155 HD
HETATM   27  H20 UNL     1      26.824   8.277  49.299  1.00  0.00     0.155 HD
ENDBRANCH  24  25
ENDBRANCH  23  24
ENDBRANCH  21  23
ENDBRANCH   6  21
TORSDOF 9
ENDMDL
MODEL 2
REMARK VINA RESULT:      -6.1      2.297      4.191
REMARK  9 active torsions:
REMARK  status: ('A' for Active; 'I' for Inactive)
REMARK    1  A    between atoms: C2_2  and  N1_3 
REMARK    2  A    between atoms: N1_3  and  O1_4 
REMARK    3  A    between atoms: N1_3  and  C6_8 
REMARK    4  A    between atoms: O1_4  and  C3_5 
REMARK    5  A    between atoms: C3_5  and  C4_6 
REMARK    6  A    between atoms: C10_13  and  N2_14 
REMARK    7  A    between atoms: N2_14  and  C11_15 
REMARK    8  A    between atoms: C11_15  and  C12_16 
REMARK    9  A    between atoms: C12_16  and  N3_17 
ROOT
HETATM    1  C6  UNL     1      22.198   1.765  51.813  1.00  0.00     0.271 C 
HETATM    2  C7  UNL     1      22.439   1.084  53.106  1.00  0.00     0.258 C 
HETATM    3  O2  UNL     1      23.364   0.069  53.187  1.00  0.00    -0.357 OA
HETATM    4  C8  UNL     1      24.765   0.014  53.335  1.00  0.00     0.133 C 
HETATM    5  C9  UNL     1      25.807   0.735  52.883  1.00  0.00     0.030 C 
HETATM    6  C10 UNL     1      25.816   1.647  51.714  1.00  0.00     0.175 C 
HETATM    7  C13 UNL     1      24.515   2.272  51.480  1.00  0.00     0.126 C 
HETATM    8  N4  UNL     1      23.400   1.745  51.011  1.00  0.00    -0.216 NA
HETATM    9  N5  UNL     1      24.649   3.627  51.876  1.00  0.00    -0.372 N 
HETATM   10  C14 UNL     1      23.621   4.620  51.960  1.00  0.00     0.167 C 
HETATM   11  C15 UNL     1      22.327   4.159  52.461  1.00  0.00     0.108 C 
HETATM   12  N6  UNL     1      21.739   3.091  52.091  1.00  0.00    -0.247 NA
HETATM   13  H21 UNL     1      25.644   3.805  52.110  1.00  0.00     0.161 HD
ENDROOT
BRANCH   1  14
HETATM   14  N1  UNL     1      21.158   1.156  50.996  1.00  0.00    -0.219 N 
BRANCH  14  15
HETATM   15  C2  UNL     1      21.387   0.904  49.613  1.00  0.00     0.095 C 
HETATM   16  C1  UNL     1      21.053   1.575  48.513  1.00  0.00     0.052 C 
ENDBRANCH  14  15
BRANCH  14  17
HETATM   17  O1  UNL     1      19.910   0.646  50.906  1.00  0.00    -0.275 OA
BRANCH  17  18
HETATM   18  C3  UNL     1      19.404   0.196  52.102  1.00  0.00     0.201 C 
BRANCH  18  19
HETATM   19  C4  UNL     1      18.070  -0.504  51.961  1.00  0.00     0.024 C 
HETATM   20  C5  UNL     1      17.920  -1.480  53.109  1.00  0.00     0.007 C 
ENDBRANCH  18  19
ENDBRANCH  17  18
ENDBRANCH  14  17
ENDBRANCH   1  14
BRANCH   6  21
HETATM   21  N2  UNL     1      26.865   2.641  51.813  1.00  0.00    -0.383 N 
HETATM   22  H16 UNL     1      27.602   3.412  51.841  1.00  0.00     0.160 HD
BRANCH  21  23
HETATM   23  C11 UNL     1      27.814   2.104  52.766  1.00  0.00     0.100 C 
BRANCH  23  24
HETATM   24  C12 UNL     1      28.722   2.384  53.718  1.00  0.00     0.097 C 
BRANCH  24  25
HETATM   25  N3  UNL     1      29.697   2.194  54.736  1.00  0.00    -0.407 N 
HETATM   26  H19 UNL     1      30.049   1.210  54.770  1.00  0.00     0.155 HD
HETATM   27  H20 UNL     1      29.731   3.160  55.125  1.00  0.00     0.155 HD
ENDBRANCH  24  25
ENDBRANCH  23  24
ENDBRANCH  21  23
ENDBRANCH   6  21
TORSDOF 9
ENDMDL
MODEL 3
REMARK VINA RESULT:      -6.0      0.730      1.956
REMARK  9 active torsions:
REMARK  status: ('A' for Active; 'I' for Inactive)
REMARK    1  A    between atoms: C2_2  and  N1_3 
REMARK    2  A    between atoms: N1_3  and  O1_4 
REMARK    3  A    between atoms: N1_3  and  C6_8 
REMARK    4  A    between atoms: O1_4  and  C3_5 
REMARK    5  A    between atoms: C3_5  and  C4_6 
REMARK    6  A    between atoms: C10_13  and  N2_14 
REMARK    7  A    between atoms: N2_14  and  C11_15 
REMARK    8  A    between atoms: C11_15  and  C12_16 
REMARK    9  A    between atoms: C12_16  and  N3_17 
ROOT
HETATM    1  C6  UNL     1      22.524   1.489  51.959  1.00  0.00     0.271 C 
HETATM    2  C7  UNL     1      22.694   1.639  50.495  1.00  0.00     0.258 C 
HETATM    3  O2  UNL     1      22.063   2.664  49.831  1.00  0.00    -0.357 OA
HETATM    4  C8  UNL     1      22.345   4.029  49.616  1.00  0.00     0.133 C 
HETATM    5  C9  UNL     1      22.885   5.024  50.344  1.00  0.00     0.030 C 
HETATM    6  C10 UNL     1      23.017   5.074  51.821  1.00  0.00     0.175 C 
HETATM    7  C13 UNL     1      23.177   3.747  52.415  1.00  0.00     0.126 C 
HETATM    8  N4  UNL     1      22.292   2.779  52.566  1.00  0.00    -0.216 NA
HETATM    9  N5  UNL     1      24.533   3.655  52.822  1.00  0.00    -0.372 N 
HETATM   10  C14 UNL     1      25.216   2.509  53.341  1.00  0.00     0.167 C 
HETATM   11  C15 UNL     1      24.872   1.228  52.725  1.00  0.00     0.108 C 
HETATM   12  N6  UNL     1      23.686   0.833  52.474  1.00  0.00    -0.247 NA
HETATM   13  H21 UNL     1      24.982   4.580  52.682  1.00  0.00     0.161 HD
ENDROOT
BRANCH   1  14
HETATM   14  N1  UNL     1      21.399   0.651  52.351  1.00  0.00    -0.219 N 
BRANCH  14  15
HETATM   15  C2  UNL     1      21.099   0.452  53.730  1.00  0.00     0.095 C 
HETATM   16  C1  UNL     1      21.171  -0.620  54.516  1.00  0.00     0.052 C 
ENDBRANCH  14  15
BRANCH  14  17
HETATM   17  O1  UNL     1      20.362  -0.136  51.988  1.00  0.00    -0.275 OA
BRANCH  17  18
HETATM   18  C3  UNL     1      19.223   0.559  51.661  1.00  0.00     0.201 C 
BRANCH  18  19
HETATM   19  C4  UNL     1      18.006  -0.326  51.505  1.00  0.00     0.024 C 
HETATM   20  C5  UNL     1      17.738  -1.007  52.830  1.00  0.00     0.007 C 
ENDBRANCH  18  19
ENDBRANCH  17  18
ENDBRANCH  14  17
ENDBRANCH   1  14
BRANCH   6  21
HETATM   21  N2  UNL     1      24.078   5.967  52.238  1.00  0.00    -0.383 N 
HETATM   22  H16 UNL     1      24.853   6.599  52.610  1.00  0.00     0.160 HD
BRANCH  21  23
HETATM   23  C11 UNL     1      24.469   6.683  51.042  1.00  0.00     0.100 C 
BRANCH  23  24
HETATM   24  C12 UNL     1      25.487   7.214  50.340  1.00  0.00     0.097 C 
BRANCH  24  25
HETATM   25  N3  UNL     1      26.806   7.610  49.986  1.00  0.00    -0.407 N 
HETATM   26  H19 UNL     1      27.365   6.820  49.588  1.00  0.00     0.155 HD
HETATM   27  H20 UNL     1      26.764   8.614  50.260  1.00  0.00     0.155 HD
ENDBRANCH  24  25
ENDBRANCH  23  24
ENDBRANCH  21  23
ENDBRANCH   6  21
TORSDOF 9
ENDMDL
MODEL 4
REMARK VINA RESULT:      -6.0      2.605      5.345
REMARK  9 active torsions:
REMARK  status: ('A' for Active; 'I' for Inactive)
REMARK    1  A    between atoms: C2_2  and  N1_3 
REMARK    2  A    between atoms: N1_3  and  O1_4 
REMARK    3  A    between atoms: N1_3  and  C6_8 
REMARK    4  A    between atoms: O1_4  and  C3_5 
REMARK    5  A    between atoms: C3_5  and  C4_6 
REMARK    6  A    between atoms: C10_13  and  N2_14 
REMARK    7  A    between atoms: N2_14  and  C11_15 
REMARK    8  A    between atoms: C11_15  and  C12_16 
REMARK    9  A    between atoms: C12_16  and  N3_17 
ROOT
HETATM    1  C6  UNL     1      23.004   2.273  52.081  1.00  0.00     0.271 C 
HETATM    2  C7  UNL     1      23.681   2.174  50.767  1.00  0.00     0.258 C 
HETATM    3  O2  UNL     1      24.976   2.613  50.626  1.00  0.00    -0.357 OA
HETATM    4  C8  UNL     1      26.246   2.060  50.890  1.00  0.00     0.133 C 
HETATM    5  C9  UNL     1      26.769   1.271  51.847  1.00  0.00     0.030 C 
HETATM    6  C10 UNL     1      26.216   1.033  53.203  1.00  0.00     0.175 C 
HETATM    7  C13 UNL     1      24.756   1.121  53.237  1.00  0.00     0.126 C 
HETATM    8  N4  UNL     1      23.975   2.181  53.147  1.00  0.00    -0.216 NA
HETATM    9  N5  UNL     1      24.282  -0.207  53.381  1.00  0.00    -0.372 N 
HETATM   10  C14 UNL     1      22.925  -0.662  53.337  1.00  0.00     0.167 C 
HETATM   11  C15 UNL     1      22.065  -0.011  52.350  1.00  0.00     0.108 C 
HETATM   12  N6  UNL     1      22.010   1.246  52.145  1.00  0.00    -0.247 NA
HETATM   13  H21 UNL     1      25.096  -0.834  53.528  1.00  0.00     0.161 HD
ENDROOT
BRANCH   1  14
HETATM   14  N1  UNL     1      22.287   3.522  52.296  1.00  0.00    -0.219 N 
BRANCH  14  15
HETATM   15  C2  UNL     1      20.864   3.550  52.252  1.00  0.00     0.095 C 
HETATM   16  C1  UNL     1      20.005   4.039  51.360  1.00  0.00     0.052 C 
ENDBRANCH  14  15
BRANCH  14  17
HETATM   17  O1  UNL     1      22.328   4.848  52.552  1.00  0.00    -0.275 OA
BRANCH  17  18
HETATM   18  C3  UNL     1      23.356   5.506  51.920  1.00  0.00     0.201 C 
BRANCH  18  19
HETATM   19  C4  UNL     1      22.895   6.359  50.758  1.00  0.00     0.024 C 
HETATM   20  C5  UNL     1      23.319   5.682  49.472  1.00  0.00     0.007 C 
ENDBRANCH  18  19
ENDBRANCH  17  18
ENDBRANCH  14  17
ENDBRANCH   1  14
BRANCH   6  21
HETATM   21  N2  UNL     1      26.679  -0.221  53.761  1.00  0.00    -0.383 N 
HETATM   22  H16 UNL     1      26.966  -1.176  54.142  1.00  0.00     0.160 HD
BRANCH  21  23
HETATM   23  C11 UNL     1      27.885   0.107  54.492  1.00  0.00     0.100 C 
BRANCH  23  24
HETATM   24  C12 UNL     1      28.929   0.948  54.607  1.00  0.00     0.097 C 
BRANCH  24  25
HETATM   25  N3  UNL     1      29.672   2.159  54.664  1.00  0.00    -0.407 N 
HETATM   26  H19 UNL     1      29.077   2.979  54.924  1.00  0.00     0.155 HD
HETATM   27  H20 UNL     1      30.615   1.795  54.411  1.00  0.00     0.155 HD
ENDBRANCH  24  25
ENDBRANCH  23  24
ENDBRANCH  21  23
ENDBRANCH   6  21
TORSDOF 9
ENDMDL
MODEL 5
REMARK VINA RESULT:      -6.0      2.237      4.793
REMARK  9 active torsions:
REMARK  status: ('A' for Active; 'I' for Inactive)
REMARK    1  A    between atoms: C2_2  and  N1_3 
REMARK    2  A    between atoms: N1_3  and  O1_4 
REMARK    3  A    between atoms: N1_3  and  C6_8 
REMARK    4  A    between atoms: O1_4  and  C3_5 
REMARK    5  A    between atoms: C3_5  and  C4_6 
REMARK    6  A    between atoms: C10_13  and  N2_14 
REMARK    7  A    between atoms: N2_14  and  C11_15 
REMARK    8  A    between atoms: C11_15  and  C12_16 
REMARK    9  A    between atoms: C12_16  and  N3_17 
ROOT
HETATM    1  C6  UNL     1      22.131   1.778  51.499  1.00  0.00     0.271 C 
HETATM    2  C7  UNL     1      22.135   1.100  52.816  1.00  0.00     0.258 C 
HETATM    3  O2  UNL     1      23.016   0.072  53.058  1.00  0.00    -0.357 OA
HETATM    4  C8  UNL     1      24.370  -0.004  53.445  1.00  0.00     0.133 C 
HETATM    5  C9  UNL     1      25.486   0.699  53.177  1.00  0.00     0.030 C 
HETATM    6  C10 UNL     1      25.710   1.605  52.024  1.00  0.00     0.175 C 
HETATM    7  C13 UNL     1      24.478   2.248  51.568  1.00  0.00     0.126 C 
HETATM    8  N4  UNL     1      23.452   1.736  50.916  1.00  0.00    -0.216 NA
HETATM    9  N5  UNL     1      24.563   3.603  51.979  1.00  0.00    -0.372 N 
HETATM   10  C14 UNL     1      23.552   4.612  51.882  1.00  0.00     0.167 C 
HETATM   11  C15 UNL     1      22.184   4.174  52.155  1.00  0.00     0.108 C 
HETATM   12  N6  UNL     1      21.652   3.112  51.691  1.00  0.00    -0.247 NA
HETATM   13  H21 UNL     1      25.506   3.767  52.380  1.00  0.00     0.161 HD
ENDROOT
BRANCH   1  14
HETATM   14  N1  UNL     1      21.238   1.181  50.518  1.00  0.00    -0.219 N 
BRANCH  14  15
HETATM   15  C2  UNL     1      20.049   0.517  50.938  1.00  0.00     0.095 C 
HETATM   16  C1  UNL     1      18.831   0.964  51.232  1.00  0.00     0.052 C 
ENDBRANCH  14  15
BRANCH  14  17
HETATM   17  O1  UNL     1      20.955   0.916  49.223  1.00  0.00    -0.275 OA
BRANCH  17  18
HETATM   18  C3  UNL     1      20.865   2.036  48.432  1.00  0.00     0.201 C 
BRANCH  18  19
HETATM   19  C4  UNL     1      22.155   2.366  47.713  1.00  0.00     0.024 C 
HETATM   20  C5  UNL     1      22.575   3.767  48.105  1.00  0.00     0.007 C 
ENDBRANCH  18  19
ENDBRANCH  17  18
ENDBRANCH  14  17
ENDBRANCH   1  14
BRANCH   6  21
HETATM   21  N2  UNL     1      26.742   2.583  52.300  1.00  0.00    -0.383 N 
HETATM   22  H16 UNL     1      27.464   3.351  52.469  1.00  0.00     0.160 HD
BRANCH  21  23
HETATM   23  C11 UNL     1      27.750   1.874  53.059  1.00  0.00     0.100 C 
BRANCH  23  24
HETATM   24  C12 UNL     1      28.903   1.968  53.747  1.00  0.00     0.097 C 
BRANCH  24  25
HETATM   25  N3  UNL     1      29.819   2.284  54.787  1.00  0.00    -0.407 N 
HETATM   26  H19 UNL     1      29.342   2.669  55.634  1.00  0.00     0.155 HD
HETATM   27  H20 UNL     1      30.710   2.006  54.323  1.00  0.00     0.155 HD
ENDBRANCH  24  25
ENDBRANCH  23  24
ENDBRANCH  21  23
ENDBRANCH   6  21
TORSDOF 9
ENDMDL
MODEL 6
REMARK VINA RESULT:      -5.9      3.784      6.828
REMARK  9 active torsions:
REMARK  status: ('A' for Active; 'I' for Inactive)
REMARK    1  A    between atoms: C2_2  and  N1_3 
REMARK    2  A    between atoms: N1_3  and  O1_4 
REMARK    3  A    between atoms: N1_3  and  C6_8 
REMARK    4  A    between atoms: O1_4  and  C3_5 
REMARK    5  A    between atoms: C3_5  and  C4_6 
REMARK    6  A    between atoms: C10_13  and  N2_14 
REMARK    7  A    between atoms: N2_14  and  C11_15 
REMARK    8  A    between atoms: C11_15  and  C12_16 
REMARK    9  A    between atoms: C12_16  and  N3_17 
ROOT
HETATM    1  C6  UNL     1      25.273  -0.002  53.612  1.00  0.00     0.271 C 
HETATM    2  C7  UNL     1      24.985   1.440  53.790  1.00  0.00     0.258 C 
HETATM    3  O2  UNL     1      24.212   2.107  52.868  1.00  0.00    -0.357 OA
HETATM    4  C8  UNL     1      22.826   2.250  52.653  1.00  0.00     0.133 C 
HETATM    5  C9  UNL     1      21.750   1.449  52.764  1.00  0.00     0.030 C 
HETATM    6  C10 UNL     1      21.745  -0.034  52.795  1.00  0.00     0.175 C 
HETATM    7  C13 UNL     1      22.962  -0.587  53.389  1.00  0.00     0.126 C 
HETATM    8  N4  UNL     1      24.187  -0.640  52.903  1.00  0.00    -0.216 NA
HETATM    9  N5  UNL     1      22.590  -1.081  54.665  1.00  0.00    -0.372 N 
HETATM   10  C14 UNL     1      23.448  -1.602  55.687  1.00  0.00     0.167 C 
HETATM   11  C15 UNL     1      24.728  -0.916  55.856  1.00  0.00     0.108 C 
HETATM   12  N6  UNL     1      25.502  -0.570  54.904  1.00  0.00    -0.247 NA
HETATM   13  H21 UNL     1      21.559  -1.007  54.760  1.00  0.00     0.161 HD
ENDROOT
BRANCH   1  14
HETATM   14  N1  UNL     1      26.476  -0.285  52.843  1.00  0.00    -0.219 N 
BRANCH  14  15
HETATM   15  C2  UNL     1      26.663  -1.565  52.247  1.00  0.00     0.095 C 
HETATM   16  C1  UNL     1      27.419  -2.608  52.585  1.00  0.00     0.052 C 
ENDBRANCH  14  15
BRANCH  14  17
HETATM   17  O1  UNL     1      27.664   0.140  52.358  1.00  0.00    -0.275 OA
BRANCH  17  18
HETATM   18  C3  UNL     1      28.348   0.974  53.210  1.00  0.00     0.201 C 
BRANCH  18  19
HETATM   19  C4  UNL     1      29.090   0.235  54.302  1.00  0.00     0.024 C 
HETATM   20  C5  UNL     1      30.165  -0.614  53.658  1.00  0.00     0.007 C 
ENDBRANCH  18  19
ENDBRANCH  17  18
ENDBRANCH  14  17
ENDBRANCH   1  14
BRANCH   6  21
HETATM   21  N2  UNL     1      20.560  -0.556  53.443  1.00  0.00    -0.383 N 
HETATM   22  H16 UNL     1      19.727  -0.961  53.974  1.00  0.00     0.160 HD
BRANCH  21  23
HETATM   23  C11 UNL     1      19.466  -0.257  52.543  1.00  0.00     0.100 C 
BRANCH  23  24
HETATM   24  C12 UNL     1      18.155  -0.417  52.285  1.00  0.00     0.097 C 
BRANCH  24  25
HETATM   25  N3  UNL     1      16.746  -0.432  52.475  1.00  0.00    -0.407 N 
HETATM   26  H19 UNL     1      16.453  -1.101  53.223  1.00  0.00     0.155 HD
HETATM   27  H20 UNL     1      16.468   0.272  51.759  1.00  0.00     0.155 HD
ENDBRANCH  24  25
ENDBRANCH  23  24
ENDBRANCH  21  23
ENDBRANCH   6  21
TORSDOF 9
ENDMDL
MODEL 7
REMARK VINA RESULT:      -5.9      2.528      3.222
REMARK  9 active torsions:
REMARK  status: ('A' for Active; 'I' for Inactive)
REMARK    1  A    between atoms: C2_2  and  N1_3 
REMARK    2  A    between atoms: N1_3  and  O1_4 
REMARK    3  A    between atoms: N1_3  and  C6_8 
REMARK    4  A    between atoms: O1_4  and  C3_5 
REMARK    5  A    between atoms: C3_5  and  C4_6 
REMARK    6  A    between atoms: C10_13  and  N2_14 
REMARK    7  A    between atoms: N2_14  and  C11_15 
REMARK    8  A    between atoms: C11_15  and  C12_16 
REMARK    9  A    between atoms: C12_16  and  N3_17 
ROOT
HETATM    1  C6  UNL     1      22.999   2.162  51.476  1.00  0.00     0.271 C 
HETATM    2  C7  UNL     1      24.026   1.744  52.458  1.00  0.00     0.258 C 
HETATM    3  O2  UNL     1      25.228   1.237  52.022  1.00  0.00    -0.357 OA
HETATM    4  C8  UNL     1      26.439   1.803  51.573  1.00  0.00     0.133 C 
HETATM    5  C9  UNL     1      26.782   2.870  50.828  1.00  0.00     0.030 C 
HETATM    6  C10 UNL     1      25.910   3.613  49.885  1.00  0.00     0.175 C 
HETATM    7  C13 UNL     1      24.504   3.595  50.288  1.00  0.00     0.126 C 
HETATM    8  N4  UNL     1      23.631   2.606  50.256  1.00  0.00    -0.216 NA
HETATM    9  N5  UNL     1      24.212   4.899  50.763  1.00  0.00    -0.372 N 
HETATM   10  C14 UNL     1      23.007   5.354  51.388  1.00  0.00     0.167 C 
HETATM   11  C15 UNL     1      22.374   4.415  52.314  1.00  0.00     0.108 C 
HETATM   12  N6  UNL     1      22.193   3.175  52.085  1.00  0.00    -0.247 NA
HETATM   13  H21 UNL     1      25.036   5.506  50.588  1.00  0.00     0.161 HD
ENDROOT
BRANCH   1  14
HETATM   14  N1  UNL     1      22.072   1.107  51.089  1.00  0.00    -0.219 N 
BRANCH  14  15
HETATM   15  C2  UNL     1      21.467   1.121  49.800  1.00  0.00     0.095 C 
HETATM   16  C1  UNL     1      20.213   1.326  49.402  1.00  0.00     0.052 C 
ENDBRANCH  14  15
BRANCH  14  17
HETATM   17  O1  UNL     1      21.421  -0.033  51.408  1.00  0.00    -0.275 OA
BRANCH  17  18
HETATM   18  C3  UNL     1      21.127  -0.152  52.745  1.00  0.00     0.201 C 
BRANCH  18  19
HETATM   19  C4  UNL     1      21.984  -1.176  53.457  1.00  0.00     0.024 C 
HETATM   20  C5  UNL     1      22.019  -0.828  54.930  1.00  0.00     0.007 C 
ENDBRANCH  18  19
ENDBRANCH  17  18
ENDBRANCH  14  17
ENDBRANCH   1  14
BRANCH   6  21
HETATM   21  N2  UNL     1      26.378   4.966  49.670  1.00  0.00    -0.383 N 
HETATM   22  H16 UNL     1      26.672   5.986  49.554  1.00  0.00     0.160 HD
BRANCH  21  23
HETATM   23  C11 UNL     1      27.507   4.844  48.771  1.00  0.00     0.100 C 
BRANCH  23  24
HETATM   24  C12 UNL     1      28.612   5.433  48.280  1.00  0.00     0.097 C 
BRANCH  24  25
HETATM   25  N3  UNL     1      29.985   5.710  48.036  1.00  0.00    -0.407 N 
HETATM   26  H19 UNL     1      30.395   6.351  48.753  1.00  0.00     0.155 HD
HETATM   27  H20 UNL     1      30.125   5.144  47.172  1.00  0.00     0.155 HD
ENDBRANCH  24  25
ENDBRANCH  23  24
ENDBRANCH  21  23
ENDBRANCH   6  21
TORSDOF 9
ENDMDL
MODEL 8
REMARK VINA RESULT:      -5.8      7.183     10.827
REMARK  9 active torsions:
REMARK  status: ('A' for Active; 'I' for Inactive)
REMARK    1  A    between atoms: C2_2  and  N1_3 
REMARK    2  A    between atoms: N1_3  and  O1_4 
REMARK    3  A    between atoms: N1_3  and  C6_8 
REMARK    4  A    between atoms: O1_4  and  C3_5 
REMARK    5  A    between atoms: C3_5  and  C4_6 
REMARK    6  A    between atoms: C10_13  and  N2_14 
REMARK    7  A    between atoms: N2_14  and  C11_15 
REMARK    8  A    between atoms: C11_15  and  C12_16 
REMARK    9  A    between atoms: C12_16  and  N3_17 
ROOT
HETATM    1  C6  UNL     1      31.802   6.575  46.955  1.00  0.00     0.271 C 
HETATM    2  C7  UNL     1      31.389   7.593  45.961  1.00  0.00     0.258 C 
HETATM    3  O2  UNL     1      30.109   7.584  45.458  1.00  0.00    -0.357 OA
HETATM    4  C8  UNL     1      28.864   8.072  45.905  1.00  0.00     0.133 C 
HETATM    5  C9  UNL     1      28.243   8.171  47.095  1.00  0.00     0.030 C 
HETATM    6  C10 UNL     1      28.555   7.407  48.327  1.00  0.00     0.175 C 
HETATM    7  C13 UNL     1      29.971   7.051  48.423  1.00  0.00     0.126 C 
HETATM    8  N4  UNL     1      30.663   6.159  47.740  1.00  0.00    -0.216 NA
HETATM    9  N5  UNL     1      30.522   7.886  49.429  1.00  0.00    -0.372 N 
HETATM   10  C14 UNL     1      31.898   8.011  49.805  1.00  0.00     0.167 C 
HETATM   11  C15 UNL     1      32.866   7.974  48.711  1.00  0.00     0.108 C 
HETATM   12  N6  UNL     1      32.850   7.135  47.750  1.00  0.00    -0.247 NA
HETATM   13  H21 UNL     1      29.751   8.420  49.873  1.00  0.00     0.161 HD
ENDROOT
BRANCH   1  14
HETATM   14  N1  UNL     1      32.358   5.361  46.376  1.00  0.00    -0.219 N 
BRANCH  14  15
HETATM   15  C2  UNL     1      33.175   5.429  45.211  1.00  0.00     0.095 C 
HETATM   16  C1  UNL     1      33.077   4.853  44.015  1.00  0.00     0.052 C 
ENDBRANCH  14  15
BRANCH  14  17
HETATM   17  O1  UNL     1      32.490   4.016  46.418  1.00  0.00    -0.275 OA
BRANCH  17  18
HETATM   18  C3  UNL     1      33.416   3.576  47.333  1.00  0.00     0.201 C 
BRANCH  18  19
HETATM   19  C4  UNL     1      33.140   2.175  47.836  1.00  0.00     0.024 C 
HETATM   20  C5  UNL     1      32.406   1.415  46.752  1.00  0.00     0.007 C 
ENDBRANCH  18  19
ENDBRANCH  17  18
ENDBRANCH  14  17
ENDBRANCH   1  14
BRANCH   6  21
HETATM   21  N2  UNL     1      28.106   8.097  49.518  1.00  0.00    -0.383 N 
HETATM   22  H16 UNL     1      27.841   8.623  50.408  1.00  0.00     0.160 HD
BRANCH  21  23
HETATM   23  C11 UNL     1      26.671   7.909  49.552  1.00  0.00     0.100 C 
BRANCH  23  24
HETATM   24  C12 UNL     1      25.620   7.450  50.256  1.00  0.00     0.097 C 
BRANCH  24  25
HETATM   25  N3  UNL     1      24.851   6.959  51.347  1.00  0.00    -0.407 N 
HETATM   26  H19 UNL     1      23.897   6.647  51.052  1.00  0.00     0.155 HD
HETATM   27  H20 UNL     1      25.543   7.083  52.116  1.00  0.00     0.155 HD
ENDBRANCH  24  25
ENDBRANCH  23  24
ENDBRANCH  21  23
ENDBRANCH   6  21
TORSDOF 9
ENDMDL
MODEL 9
REMARK VINA RESULT:      -5.8      8.257     11.956
REMARK  9 active torsions:
REMARK  status: ('A' for Active; 'I' for Inactive)
REMARK    1  A    between atoms: C2_2  and  N1_3 
REMARK    2  A    between atoms: N1_3  and  O1_4 
REMARK    3  A    between atoms: N1_3  and  C6_8 
REMARK    4  A    between atoms: O1_4  and  C3_5 
REMARK    5  A    between atoms: C3_5  and  C4_6 
REMARK    6  A    between atoms: C10_13  and  N2_14 
REMARK    7  A    between atoms: N2_14  and  C11_15 
REMARK    8  A    between atoms: C11_15  and  C12_16 
REMARK    9  A    between atoms: C12_16  and  N3_17 
ROOT
HETATM    1  C6  UNL     1      31.937   6.615  48.200  1.00  0.00     0.271 C 
HETATM    2  C7  UNL     1      32.315   5.347  48.866  1.00  0.00     0.258 C 
HETATM    3  O2  UNL     1      32.116   4.147  48.225  1.00  0.00    -0.357 OA
HETATM    4  C8  UNL     1      32.830   3.407  47.261  1.00  0.00     0.133 C 
HETATM    5  C9  UNL     1      33.563   3.704  46.172  1.00  0.00     0.030 C 
HETATM    6  C10 UNL     1      33.530   4.968  45.396  1.00  0.00     0.175 C 
HETATM    7  C13 UNL     1      33.200   6.127  46.225  1.00  0.00     0.126 C 
HETATM    8  N4  UNL     1      32.048   6.474  46.767  1.00  0.00    -0.216 NA
HETATM    9  N5  UNL     1      34.403   6.862  46.375  1.00  0.00    -0.372 N 
HETATM   10  C14 UNL     1      34.631   8.008  47.202  1.00  0.00     0.167 C 
HETATM   11  C15 UNL     1      33.982   7.990  48.512  1.00  0.00     0.108 C 
HETATM   12  N6  UNL     1      32.770   7.654  48.722  1.00  0.00    -0.247 NA
HETATM   13  H21 UNL     1      35.130   6.431  45.773  1.00  0.00     0.161 HD
ENDROOT
BRANCH   1  14
HETATM   14  N1  UNL     1      30.570   7.046  48.458  1.00  0.00    -0.219 N 
BRANCH  14  15
HETATM   15  C2  UNL     1      30.313   8.347  48.978  1.00  0.00     0.095 C 
HETATM   16  C1  UNL     1      29.522   9.335  48.567  1.00  0.00     0.052 C 
ENDBRANCH  14  15
BRANCH  14  17
HETATM   17  O1  UNL     1      29.248   6.768  48.440  1.00  0.00    -0.275 OA
BRANCH  17  18
HETATM   18  C3  UNL     1      28.961   5.439  48.235  1.00  0.00     0.201 C 
BRANCH  18  19
HETATM   19  C4  UNL     1      27.542   5.069  48.607  1.00  0.00     0.024 C 
HETATM   20  C5  UNL     1      26.698   6.326  48.580  1.00  0.00     0.007 C 
ENDBRANCH  18  19
ENDBRANCH  17  18
ENDBRANCH  14  17
ENDBRANCH   1  14
BRANCH   6  21
HETATM   21  N2  UNL     1      34.759   5.182  44.661  1.00  0.00    -0.383 N 
HETATM   22  H16 UNL     1      35.699   5.334  44.179  1.00  0.00     0.160 HD
BRANCH  21  23
HETATM   23  C11 UNL     1      34.359   5.316  43.276  1.00  0.00     0.100 C 
BRANCH  23  24
HETATM   24  C12 UNL     1      33.728   4.746  42.234  1.00  0.00     0.097 C 
BRANCH  24  25
HETATM   25  N3  UNL     1      32.894   3.863  41.495  1.00  0.00    -0.407 N 
HETATM   26  H19 UNL     1      32.131   4.368  40.987  1.00  0.00     0.155 HD
HETATM   27  H20 UNL     1      33.354   2.957  41.725  1.00  0.00     0.155 HD
ENDBRANCH  24  25
ENDBRANCH  23  24
ENDBRANCH  21  23
ENDBRANCH   6  21
TORSDOF 9
ENDMDL
