MODEL 1
REMARK VINA RESULT:      -8.3      0.000      0.000
REMARK  0 active torsions:
REMARK  status: ('A' for Active; 'I' for Inactive)
ROOT
HETATM    1  C1  UNL     1      23.752   5.297  52.034  1.00  0.00     0.044 C 
HETATM    2  C2  UNL     1      22.524   4.505  52.170  1.00  0.00     0.148 C 
HETATM    3  C3  UNL     1      22.747   3.098  52.679  1.00  0.00     0.038 C 
HETATM    4  C4  UNL     1      22.248   2.084  51.912  1.00  0.00     0.064 C 
HETATM    5  O1  UNL     1      20.861   1.819  52.263  1.00  0.00    -0.329 OA
HETATM    6  C5  UNL     1      19.633   2.474  51.923  1.00  0.00     0.350 C 
HETATM    7  O2  UNL     1      19.884   3.421  50.794  1.00  0.00    -0.305 OA
HETATM    8  C6  UNL     1      21.236   3.336  50.224  1.00  0.00     0.385 A 
HETATM    9  C7  UNL     1      20.972   2.278  49.425  1.00  0.00     0.332 A 
HETATM   10  C8  UNL     1      21.853   1.543  48.539  1.00  0.00     0.279 A 
HETATM   11  N1  UNL     1      22.166   2.334  49.479  1.00  0.00     0.059 N 
HETATM   12  C9  UNL     1      23.473   2.642  49.876  1.00  0.00     0.226 C 
HETATM   13  N2  UNL     1      24.297   3.409  49.325  1.00  0.00    -0.249 NA
HETATM   14  C10 UNL     1      25.606   3.774  49.641  1.00  0.00     0.272 C 
HETATM   15  N3  UNL     1      26.213   3.309  50.832  1.00  0.00    -0.371 N 
HETATM   16  C11 UNL     1      25.915   2.326  51.813  1.00  0.00     0.038 A 
HETATM   17  C12 UNL     1      26.967   2.111  52.662  1.00  0.00     0.030 A 
HETATM   18  C13 UNL     1      26.803   1.167  53.656  1.00  0.00     0.004 A 
HETATM   19  C14 UNL     1      25.597   0.503  53.734  1.00  0.00     0.023 A 
HETATM   20  C15 UNL     1      24.543   0.751  52.847  1.00  0.00     0.054 A 
HETATM   21  C16 UNL     1      23.369  -0.040  53.067  1.00  0.00     0.100 C 
HETATM   22  N4  UNL     1      22.428  -0.691  53.233  1.00  0.00    -0.191 NA
HETATM   23  C17 UNL     1      24.688   1.693  51.843  1.00  0.00     0.007 A 
HETATM   24  C18 UNL     1      23.452   1.758  51.063  1.00  0.00     0.157 C 
HETATM   25  O3  UNL     1      21.823   4.421  50.920  1.00  0.00    -0.321 OA
HETATM   26  H12 UNL     1      27.101   3.854  50.988  1.00  0.00     0.161 HD
ENDROOT
TORSDOF 0
ENDMDL
MODEL 2
REMARK VINA RESULT:      -8.1      2.055      4.399
REMARK  0 active torsions:
REMARK  status: ('A' for Active; 'I' for Inactive)
ROOT
HETATM    1  C1  UNL     1      20.856   1.625  49.238  1.00  0.00     0.044 C 
HETATM    2  C2  UNL     1      22.276   1.992  49.272  1.00  0.00     0.148 C 
HETATM    3  C3  UNL     1      23.031   1.434  50.457  1.00  0.00     0.038 C 
HETATM    4  C4  UNL     1      23.704   2.335  51.232  1.00  0.00     0.064 C 
HETATM    5  O1  UNL     1      25.037   2.569  50.697  1.00  0.00    -0.329 OA
HETATM    6  C5  UNL     1      25.519   3.373  49.613  1.00  0.00     0.350 C 
HETATM    7  O2  UNL     1      24.436   4.309  49.183  1.00  0.00    -0.305 OA
HETATM    8  C6  UNL     1      23.244   4.289  50.044  1.00  0.00     0.385 A 
HETATM    9  C7  UNL     1      23.748   5.125  50.980  1.00  0.00     0.332 A 
HETATM   10  C8  UNL     1      23.163   5.583  52.225  1.00  0.00     0.279 A 
HETATM   11  N1  UNL     1      22.813   4.598  51.508  1.00  0.00     0.059 N 
HETATM   12  C9  UNL     1      21.771   3.711  51.806  1.00  0.00     0.226 C 
HETATM   13  N2  UNL     1      20.537   3.887  51.684  1.00  0.00    -0.249 NA
HETATM   14  C10 UNL     1      19.435   3.073  51.953  1.00  0.00     0.272 C 
HETATM   15  N3  UNL     1      19.617   1.738  52.386  1.00  0.00    -0.371 N 
HETATM   16  C11 UNL     1      20.708   0.957  52.855  1.00  0.00     0.038 A 
HETATM   17  C12 UNL     1      20.296  -0.242  53.370  1.00  0.00     0.030 A 
HETATM   18  C13 UNL     1      21.266  -1.089  53.869  1.00  0.00     0.004 A 
HETATM   19  C14 UNL     1      22.581  -0.678  53.819  1.00  0.00     0.023 A 
HETATM   20  C15 UNL     1      22.963   0.557  53.284  1.00  0.00     0.054 A 
HETATM   21  C16 UNL     1      24.370   0.825  53.325  1.00  0.00     0.100 C 
HETATM   22  N4  UNL     1      25.503   1.049  53.375  1.00  0.00    -0.191 NA
HETATM   23  C17 UNL     1      22.006   1.420  52.778  1.00  0.00     0.007 A 
HETATM   24  C18 UNL     1      22.664   2.630  52.284  1.00  0.00     0.157 C 
HETATM   25  O3  UNL     1      22.442   3.417  49.268  1.00  0.00    -0.321 OA
HETATM   26  H12 UNL     1      18.691   1.240  52.329  1.00  0.00     0.161 HD
ENDROOT
TORSDOF 0
ENDMDL
MODEL 3
REMARK VINA RESULT:      -8.1      1.566      2.201
REMARK  0 active torsions:
REMARK  status: ('A' for Active; 'I' for Inactive)
ROOT
HETATM    1  C1  UNL     1      23.621   4.710  52.804  1.00  0.00     0.044 C 
HETATM    2  C2  UNL     1      22.274   4.699  52.224  1.00  0.00     0.148 C 
HETATM    3  C3  UNL     1      21.622   3.335  52.198  1.00  0.00     0.038 C 
HETATM    4  C4  UNL     1      21.174   2.894  50.986  1.00  0.00     0.064 C 
HETATM    5  O1  UNL     1      19.820   3.369  50.742  1.00  0.00    -0.329 OA
HETATM    6  C5  UNL     1      19.298   4.630  50.305  1.00  0.00     0.350 C 
HETATM    7  O2  UNL     1      20.420   5.460  49.769  1.00  0.00    -0.305 OA
HETATM    8  C6  UNL     1      21.705   4.752  49.677  1.00  0.00     0.385 A 
HETATM    9  C7  UNL     1      21.437   4.152  48.496  1.00  0.00     0.332 A 
HETATM   10  C8  UNL     1      22.234   3.215  47.729  1.00  0.00     0.279 A 
HETATM   11  N1  UNL     1      22.363   3.544  48.947  1.00  0.00     0.059 N 
HETATM   12  C9  UNL     1      23.319   3.026  49.828  1.00  0.00     0.226 C 
HETATM   13  N2  UNL     1      24.538   3.303  49.909  1.00  0.00    -0.249 NA
HETATM   14  C10 UNL     1      25.559   2.843  50.743  1.00  0.00     0.272 C 
HETATM   15  N3  UNL     1      25.275   1.936  51.792  1.00  0.00    -0.371 N 
HETATM   16  C11 UNL     1      24.170   1.125  52.170  1.00  0.00     0.038 A 
HETATM   17  C12 UNL     1      24.498   0.240  53.160  1.00  0.00     0.030 A 
HETATM   18  C13 UNL     1      23.508  -0.613  53.608  1.00  0.00     0.004 A 
HETATM   19  C14 UNL     1      22.258  -0.521  53.034  1.00  0.00     0.023 A 
HETATM   20  C15 UNL     1      21.961   0.399  52.021  1.00  0.00     0.054 A 
HETATM   21  C16 UNL     1      20.616   0.346  51.532  1.00  0.00     0.100 C 
HETATM   22  N4  UNL     1      19.535   0.291  51.124  1.00  0.00    -0.191 NA
HETATM   23  C17 UNL     1      22.940   1.263  51.559  1.00  0.00     0.007 A 
HETATM   24  C18 UNL     1      22.374   2.113  50.512  1.00  0.00     0.157 C 
HETATM   25  O3  UNL     1      22.284   5.214  50.884  1.00  0.00    -0.321 OA
HETATM   26  H12 UNL     1      26.118   1.879  52.421  1.00  0.00     0.161 HD
ENDROOT
TORSDOF 0
ENDMDL
MODEL 4
REMARK VINA RESULT:      -7.9      2.051      4.184
REMARK  0 active torsions:
REMARK  status: ('A' for Active; 'I' for Inactive)
ROOT
HETATM    1  C1  UNL     1      21.879   6.341  51.215  1.00  0.00     0.044 C 
HETATM    2  C2  UNL     1      22.370   5.106  51.837  1.00  0.00     0.148 C 
HETATM    3  C3  UNL     1      23.756   4.697  51.392  1.00  0.00     0.038 C 
HETATM    4  C4  UNL     1      23.889   3.434  50.889  1.00  0.00     0.064 C 
HETATM    5  O1  UNL     1      24.127   2.482  51.964  1.00  0.00    -0.329 OA
HETATM    6  C5  UNL     1      23.257   1.849  52.909  1.00  0.00     0.350 C 
HETATM    7  O2  UNL     1      21.840   2.047  52.473  1.00  0.00    -0.305 OA
HETATM    8  C6  UNL     1      21.697   2.679  51.153  1.00  0.00     0.385 A 
HETATM    9  C7  UNL     1      21.873   1.539  50.447  1.00  0.00     0.332 A 
HETATM   10  C8  UNL     1      21.914   1.335  49.012  1.00  0.00     0.279 A 
HETATM   11  N1  UNL     1      22.033   2.421  49.655  1.00  0.00     0.059 N 
HETATM   12  C9  UNL     1      22.265   3.678  49.083  1.00  0.00     0.226 C 
HETATM   13  N2  UNL     1      21.452   4.432  48.499  1.00  0.00    -0.249 NA
HETATM   14  C10 UNL     1      21.588   5.687  47.902  1.00  0.00     0.272 C 
HETATM   15  N3  UNL     1      22.820   6.382  47.964  1.00  0.00    -0.371 N 
HETATM   16  C11 UNL     1      24.154   6.063  48.334  1.00  0.00     0.038 A 
HETATM   17  C12 UNL     1      25.034   7.053  47.986  1.00  0.00     0.030 A 
HETATM   18  C13 UNL     1      26.367   6.855  48.285  1.00  0.00     0.004 A 
HETATM   19  C14 UNL     1      26.730   5.681  48.911  1.00  0.00     0.023 A 
HETATM   20  C15 UNL     1      25.800   4.691  49.250  1.00  0.00     0.054 A 
HETATM   21  C16 UNL     1      26.355   3.532  49.883  1.00  0.00     0.100 C 
HETATM   22  N4  UNL     1      26.805   2.589  50.377  1.00  0.00    -0.191 NA
HETATM   23  C17 UNL     1      24.459   4.871  48.960  1.00  0.00     0.007 A 
HETATM   24  C18 UNL     1      23.708   3.700  49.415  1.00  0.00     0.157 C 
HETATM   25  O3  UNL     1      21.478   4.010  51.582  1.00  0.00    -0.321 OA
HETATM   26  H12 UNL     1      22.658   7.374  47.649  1.00  0.00     0.161 HD
ENDROOT
TORSDOF 0
ENDMDL
MODEL 5
REMARK VINA RESULT:      -7.8      1.740      3.989
REMARK  0 active torsions:
REMARK  status: ('A' for Active; 'I' for Inactive)
ROOT
HETATM    1  C1  UNL     1      20.488   0.661  50.126  1.00  0.00     0.044 C 
HETATM    2  C2  UNL     1      21.236   1.656  49.349  1.00  0.00     0.148 C 
HETATM    3  C3  UNL     1      22.679   1.813  49.770  1.00  0.00     0.038 C 
HETATM    4  C4  UNL     1      23.088   3.076  50.092  1.00  0.00     0.064 C 
HETATM    5  O1  UNL     1      23.527   3.786  48.899  1.00  0.00    -0.329 OA
HETATM    6  C5  UNL     1      22.813   4.450  47.849  1.00  0.00     0.350 C 
HETATM    7  O2  UNL     1      21.389   4.630  48.268  1.00  0.00    -0.305 OA
HETATM    8  C6  UNL     1      21.115   4.244  49.660  1.00  0.00     0.385 A 
HETATM    9  C7  UNL     1      21.539   5.408  50.201  1.00  0.00     0.332 A 
HETATM   10  C8  UNL     1      21.629   5.805  51.593  1.00  0.00     0.279 A 
HETATM   11  N1  UNL     1      21.505   4.637  51.115  1.00  0.00     0.059 N 
HETATM   12  C9  UNL     1      21.456   3.457  51.866  1.00  0.00     0.226 C 
HETATM   13  N2  UNL     1      20.500   2.991  52.529  1.00  0.00    -0.249 NA
HETATM   14  C10 UNL     1      20.359   1.837  53.302  1.00  0.00     0.272 C 
HETATM   15  N3  UNL     1      21.407   0.889  53.375  1.00  0.00    -0.371 N 
HETATM   16  C11 UNL     1      22.778   0.852  53.002  1.00  0.00     0.038 A 
HETATM   17  C12 UNL     1      23.420  -0.244  53.512  1.00  0.00     0.030 A 
HETATM   18  C13 UNL     1      24.763  -0.387  53.227  1.00  0.00     0.004 A 
HETATM   19  C14 UNL     1      25.372   0.576  52.451  1.00  0.00     0.023 A 
HETATM   20  C15 UNL     1      24.682   1.684  51.947  1.00  0.00     0.054 A 
HETATM   21  C16 UNL     1      25.476   2.590  51.172  1.00  0.00     0.100 C 
HETATM   22  N4  UNL     1      26.121   3.331  50.562  1.00  0.00    -0.191 NA
HETATM   23  C17 UNL     1      23.335   1.846  52.222  1.00  0.00     0.007 A 
HETATM   24  C18 UNL     1      22.858   3.073  51.583  1.00  0.00     0.157 C 
HETATM   25  O3  UNL     1      20.608   2.944  49.419  1.00  0.00    -0.321 OA
HETATM   26  H12 UNL     1      21.033   0.013  53.823  1.00  0.00     0.161 HD
ENDROOT
TORSDOF 0
ENDMDL
MODEL 6
REMARK VINA RESULT:      -7.8      2.494      5.218
REMARK  0 active torsions:
REMARK  status: ('A' for Active; 'I' for Inactive)
ROOT
HETATM    1  C1  UNL     1      22.938   4.729  52.573  1.00  0.00     0.044 C 
HETATM    2  C2  UNL     1      23.051   5.748  51.524  1.00  0.00     0.148 C 
HETATM    3  C3  UNL     1      22.566   5.295  50.165  1.00  0.00     0.038 C 
HETATM    4  C4  UNL     1      23.447   5.417  49.129  1.00  0.00     0.064 C 
HETATM    5  O1  UNL     1      23.356   6.745  48.540  1.00  0.00    -0.329 OA
HETATM    6  C5  UNL     1      23.881   8.018  48.935  1.00  0.00     0.350 C 
HETATM    7  O2  UNL     1      24.911   7.811  49.998  1.00  0.00    -0.305 OA
HETATM    8  C6  UNL     1      25.237   6.400  50.256  1.00  0.00     0.385 A 
HETATM    9  C7  UNL     1      26.110   6.281  49.230  1.00  0.00     0.332 A 
HETATM   10  C8  UNL     1      26.856   5.123  48.778  1.00  0.00     0.279 A 
HETATM   11  N1  UNL     1      25.846   5.157  49.543  1.00  0.00     0.059 N 
HETATM   12  C9  UNL     1      25.213   4.038  50.098  1.00  0.00     0.226 C 
HETATM   13  N2  UNL     1      25.581   3.334  51.067  1.00  0.00    -0.249 NA
HETATM   14  C10 UNL     1      25.025   2.211  51.684  1.00  0.00     0.272 C 
HETATM   15  N3  UNL     1      23.764   1.716  51.272  1.00  0.00    -0.371 N 
HETATM   16  C11 UNL     1      22.890   1.937  50.174  1.00  0.00     0.038 A 
HETATM   17  C12 UNL     1      21.879   1.016  50.130  1.00  0.00     0.030 A 
HETATM   18  C13 UNL     1      20.966   1.119  49.099  1.00  0.00     0.004 A 
HETATM   19  C14 UNL     1      21.127   2.137  48.183  1.00  0.00     0.023 A 
HETATM   20  C15 UNL     1      22.176   3.061  48.262  1.00  0.00     0.054 A 
HETATM   21  C16 UNL     1      22.196   4.042  47.219  1.00  0.00     0.100 C 
HETATM   22  N4  UNL     1      22.224   4.823  46.366  1.00  0.00    -0.191 NA
HETATM   23  C17 UNL     1      23.101   2.974  49.288  1.00  0.00     0.007 A 
HETATM   24  C18 UNL     1      24.083   4.049  49.141  1.00  0.00     0.157 C 
HETATM   25  O3  UNL     1      24.407   6.198  51.385  1.00  0.00    -0.321 OA
HETATM   26  H12 UNL     1      23.434   1.015  51.985  1.00  0.00     0.161 HD
ENDROOT
TORSDOF 0
ENDMDL
MODEL 7
REMARK VINA RESULT:      -7.5      7.618     10.269
REMARK  0 active torsions:
REMARK  status: ('A' for Active; 'I' for Inactive)
ROOT
HETATM    1  C1  UNL     1      31.652   8.461  49.742  1.00  0.00     0.044 C 
HETATM    2  C2  UNL     1      30.762   9.626  49.678  1.00  0.00     0.148 C 
HETATM    3  C3  UNL     1      29.315   9.285  49.399  1.00  0.00     0.038 C 
HETATM    4  C4  UNL     1      28.734   9.909  48.333  1.00  0.00     0.064 C 
HETATM    5  O1  UNL     1      28.186  11.196  48.735  1.00  0.00    -0.329 OA
HETATM    6  C5  UNL     1      28.787  12.477  48.962  1.00  0.00     0.350 C 
HETATM    7  O2  UNL     1      30.175  12.468  48.406  1.00  0.00    -0.305 OA
HETATM    8  C6  UNL     1      30.516  11.253  47.652  1.00  0.00     0.385 A 
HETATM    9  C7  UNL     1      29.936  11.652  46.498  1.00  0.00     0.332 A 
HETATM   10  C8  UNL     1      29.806  10.951  45.235  1.00  0.00     0.279 A 
HETATM   11  N1  UNL     1      30.090  10.472  46.374  1.00  0.00     0.059 N 
HETATM   12  C9  UNL     1      30.315   9.118  46.649  1.00  0.00     0.226 C 
HETATM   13  N2  UNL     1      31.335   8.431  46.410  1.00  0.00    -0.249 NA
HETATM   14  C10 UNL     1      31.647   7.090  46.642  1.00  0.00     0.272 C 
HETATM   15  N3  UNL     1      30.745   6.253  47.342  1.00  0.00    -0.371 N 
HETATM   16  C11 UNL     1      29.390   6.338  47.760  1.00  0.00     0.038 A 
HETATM   17  C12 UNL     1      28.916   5.136  48.213  1.00  0.00     0.030 A 
HETATM   18  C13 UNL     1      27.604   5.087  48.639  1.00  0.00     0.004 A 
HETATM   19  C14 UNL     1      26.855   6.243  48.584  1.00  0.00     0.023 A 
HETATM   20  C15 UNL     1      27.375   7.455  48.114  1.00  0.00     0.054 A 
HETATM   21  C16 UNL     1      26.452   8.550  48.115  1.00  0.00     0.100 C 
HETATM   22  N4  UNL     1      25.702   9.430  48.098  1.00  0.00    -0.191 NA
HETATM   23  C17 UNL     1      28.689   7.525  47.682  1.00  0.00     0.007 A 
HETATM   24  C18 UNL     1      28.979   8.891  47.247  1.00  0.00     0.157 C 
HETATM   25  O3  UNL     1      31.201  10.557  48.678  1.00  0.00    -0.321 OA
HETATM   26  H12 UNL     1      31.245   5.361  47.593  1.00  0.00     0.161 HD
ENDROOT
TORSDOF 0
ENDMDL
MODEL 8
REMARK VINA RESULT:      -7.4      6.901      9.793
REMARK  0 active torsions:
REMARK  status: ('A' for Active; 'I' for Inactive)
ROOT
HETATM    1  C1  UNL     1      26.624   9.350  45.969  1.00  0.00     0.044 C 
HETATM    2  C2  UNL     1      28.040   9.077  45.694  1.00  0.00     0.148 C 
HETATM    3  C3  UNL     1      28.553   7.795  46.310  1.00  0.00     0.038 C 
HETATM    4  C4  UNL     1      29.656   7.899  47.109  1.00  0.00     0.064 C 
HETATM    5  O1  UNL     1      30.870   7.814  46.311  1.00  0.00    -0.329 OA
HETATM    6  C5  UNL     1      31.562   8.766  45.494  1.00  0.00     0.350 C 
HETATM    7  O2  UNL     1      31.026  10.132  45.781  1.00  0.00    -0.305 OA
HETATM    8  C6  UNL     1      30.072  10.185  46.899  1.00  0.00     0.385 A 
HETATM    9  C7  UNL     1      31.014  10.229  47.868  1.00  0.00     0.332 A 
HETATM   10  C8  UNL     1      30.860  10.252  49.309  1.00  0.00     0.279 A 
HETATM   11  N1  UNL     1      30.004   9.928  48.433  1.00  0.00     0.059 N 
HETATM   12  C9  UNL     1      28.702   9.487  48.699  1.00  0.00     0.226 C 
HETATM   13  N2  UNL     1      27.701  10.162  49.033  1.00  0.00    -0.249 NA
HETATM   14  C10 UNL     1      26.379   9.816  49.317  1.00  0.00     0.272 C 
HETATM   15  N3  UNL     1      25.939   8.479  49.167  1.00  0.00    -0.371 N 
HETATM   16  C11 UNL     1      26.559   7.216  48.968  1.00  0.00     0.038 A 
HETATM   17  C12 UNL     1      25.678   6.181  49.122  1.00  0.00     0.030 A 
HETATM   18  C13 UNL     1      26.165   4.899  48.963  1.00  0.00     0.004 A 
HETATM   19  C14 UNL     1      27.501   4.740  48.662  1.00  0.00     0.023 A 
HETATM   20  C15 UNL     1      28.372   5.825  48.513  1.00  0.00     0.054 A 
HETATM   21  C16 UNL     1      29.729   5.474  48.213  1.00  0.00     0.100 C 
HETATM   22  N4  UNL     1      30.827   5.191  47.990  1.00  0.00    -0.191 NA
HETATM   23  C17 UNL     1      27.903   7.118  48.668  1.00  0.00     0.007 A 
HETATM   24  C18 UNL     1      29.006   8.057  48.461  1.00  0.00     0.157 C 
HETATM   25  O3  UNL     1      28.871  10.154  46.149  1.00  0.00    -0.321 OA
HETATM   26  H12 UNL     1      24.887   8.466  49.224  1.00  0.00     0.161 HD
ENDROOT
TORSDOF 0
ENDMDL
MODEL 9
REMARK VINA RESULT:      -7.1      7.094      9.180
REMARK  0 active torsions:
REMARK  status: ('A' for Active; 'I' for Inactive)
ROOT
HETATM    1  C1  UNL     1      30.594  10.613  48.897  1.00  0.00     0.044 C 
HETATM    2  C2  UNL     1      29.294  10.128  49.376  1.00  0.00     0.148 C 
HETATM    3  C3  UNL     1      29.098   8.636  49.231  1.00  0.00     0.038 C 
HETATM    4  C4  UNL     1      27.989   8.228  48.548  1.00  0.00     0.064 C 
HETATM    5  O1  UNL     1      26.848   8.129  49.446  1.00  0.00    -0.329 OA
HETATM    6  C5  UNL     1      25.960   9.109  49.997  1.00  0.00     0.350 C 
HETATM    7  O2  UNL     1      26.140  10.397  49.260  1.00  0.00    -0.305 OA
HETATM    8  C6  UNL     1      27.029  10.306  48.093  1.00  0.00     0.385 A 
HETATM    9  C7  UNL     1      26.087   9.826  47.251  1.00  0.00     0.332 A 
HETATM   10  C8  UNL     1      26.202   9.423  45.863  1.00  0.00     0.279 A 
HETATM   11  N1  UNL     1      27.129   9.598  46.710  1.00  0.00     0.059 N 
HETATM   12  C9  UNL     1      28.494   9.401  46.467  1.00  0.00     0.226 C 
HETATM   13  N2  UNL     1      29.292  10.143  45.849  1.00  0.00    -0.249 NA
HETATM   14  C10 UNL     1      30.653  10.033  45.558  1.00  0.00     0.272 C 
HETATM   15  N3  UNL     1      31.410   8.949  46.065  1.00  0.00    -0.371 N 
HETATM   16  C11 UNL     1      31.121   7.709  46.696  1.00  0.00     0.038 A 
HETATM   17  C12 UNL     1      32.227   6.907  46.781  1.00  0.00     0.030 A 
HETATM   18  C13 UNL     1      32.071   5.666  47.367  1.00  0.00     0.004 A 
HETATM   19  C14 UNL     1      30.821   5.314  47.829  1.00  0.00     0.023 A 
HETATM   20  C15 UNL     1      29.713   6.163  47.724  1.00  0.00     0.054 A 
HETATM   21  C16 UNL     1      28.490   5.629  48.244  1.00  0.00     0.100 C 
HETATM   22  N4  UNL     1      27.499   5.190  48.647  1.00  0.00    -0.191 NA
HETATM   23  C17 UNL     1      29.848   7.410  47.139  1.00  0.00     0.007 A 
HETATM   24  C18 UNL     1      28.553   8.091  47.155  1.00  0.00     0.157 C 
HETATM   25  O3  UNL     1      28.216  10.788  48.698  1.00  0.00    -0.321 OA
HETATM   26  H12 UNL     1      32.431   9.157  45.914  1.00  0.00     0.161 HD
ENDROOT
TORSDOF 0
ENDMDL
