MODEL 1
REMARK VINA RESULT:      -8.3      0.000      0.000
REMARK  1 active torsions:
REMARK  status: ('A' for Active; 'I' for Inactive)
REMARK    1  A    between atoms: C15_18  and  O2_20 
ROOT
HETATM    1  C1  UNL     1      24.577   5.653  48.588  1.00  0.00     0.010 C 
HETATM    2  C2  UNL     1      24.497   4.391  49.542  1.00  0.00    -0.013 C 
HETATM    3  C3  UNL     1      25.963   4.065  49.805  1.00  0.00     0.031 C 
HETATM    4  C4  UNL     1      26.204   2.850  50.607  1.00  0.00    -0.024 C 
HETATM    5  C5  UNL     1      26.490   1.709  51.255  1.00  0.00     0.027 C 
HETATM    6  C6  UNL     1      25.726   1.790  52.448  1.00  0.00     0.057 C 
HETATM    7  N1  UNL     1      24.993   2.290  53.319  1.00  0.00    -0.242 NA
HETATM    8  C7  UNL     1      24.469   3.625  53.306  1.00  0.00     0.234 C 
HETATM    9  N2  UNL     1      23.349   4.184  52.944  1.00  0.00    -0.243 NA
HETATM   10  C8  UNL     1      22.280   3.399  52.405  1.00  0.00     0.069 C 
HETATM   11  C9  UNL     1      20.943   3.244  52.334  1.00  0.00     0.030 C 
HETATM   12  C10 UNL     1      20.848   1.746  52.499  1.00  0.00     0.011 C 
HETATM   13  C11 UNL     1      22.108   1.201  52.641  1.00  0.00    -0.009 C 
HETATM   14  C12 UNL     1      22.657   2.200  51.611  1.00  0.00     0.205 C 
HETATM   15  O1  UNL     1      22.150   2.068  50.355  1.00  0.00    -0.375 OA
HETATM   16  C13 UNL     1      23.015   2.231  49.327  1.00  0.00     0.169 C 
HETATM   17  C14 UNL     1      23.609   3.477  48.876  1.00  0.00     0.031 C 
HETATM   18  C15 UNL     1      22.378   0.086  53.578  1.00  0.00     0.114 C 
HETATM   19  C16 UNL     1      22.048  -1.177  52.799  1.00  0.00     0.054 C 
HETATM   20  C17 UNL     1      23.745   0.013  54.205  1.00  0.00     0.231 C 
HETATM   21  F1  UNL     1      23.658  -1.050  55.123  1.00  0.00    -0.242 F 
HETATM   22  C18 UNL     1      24.798  -0.355  53.230  1.00  0.00     0.015 C 
HETATM   23  C19 UNL     1      25.688   0.284  52.428  1.00  0.00     0.030 C 
ENDROOT
BRANCH  18  24
HETATM   24  O2  UNL     1      21.491   0.066  54.647  1.00  0.00    -0.382 OA
HETATM   25  H20 UNL     1      20.583   0.183  54.271  1.00  0.00     0.211 HD
ENDBRANCH  18  24
TORSDOF 1
ENDMDL
MODEL 2
REMARK VINA RESULT:      -8.1      3.404      6.320
REMARK  1 active torsions:
REMARK  status: ('A' for Active; 'I' for Inactive)
REMARK    1  A    between atoms: C15_18  and  O2_20 
ROOT
HETATM    1  C1  UNL     1      21.192   0.228  50.856  1.00  0.00     0.010 C 
HETATM    2  C2  UNL     1      21.709   1.708  50.632  1.00  0.00    -0.013 C 
HETATM    3  C3  UNL     1      20.568   2.557  51.180  1.00  0.00     0.031 C 
HETATM    4  C4  UNL     1      20.731   4.014  51.016  1.00  0.00    -0.024 C 
HETATM    5  C5  UNL     1      20.781   5.342  50.819  1.00  0.00     0.027 C 
HETATM    6  C6  UNL     1      22.044   5.722  51.342  1.00  0.00     0.057 C 
HETATM    7  N1  UNL     1      23.128   5.608  51.939  1.00  0.00    -0.242 NA
HETATM    8  C7  UNL     1      23.610   4.420  52.581  1.00  0.00     0.234 C 
HETATM    9  N2  UNL     1      24.409   3.442  52.256  1.00  0.00    -0.243 NA
HETATM   10  C8  UNL     1      25.039   3.408  50.971  1.00  0.00     0.069 C 
HETATM   11  C9  UNL     1      26.154   3.075  50.290  1.00  0.00     0.030 C 
HETATM   12  C10 UNL     1      26.279   4.285  49.394  1.00  0.00     0.011 C 
HETATM   13  C11 UNL     1      25.248   5.169  49.640  1.00  0.00    -0.009 C 
HETATM   14  C12 UNL     1      24.282   3.990  49.832  1.00  0.00     0.205 C 
HETATM   15  O1  UNL     1      24.083   3.223  48.726  1.00  0.00    -0.375 OA
HETATM   16  C13 UNL     1      22.823   2.782  48.507  1.00  0.00     0.169 C 
HETATM   17  C14 UNL     1      22.115   1.757  49.254  1.00  0.00     0.031 C 
HETATM   18  C15 UNL     1      25.458   6.636  49.641  1.00  0.00     0.114 C 
HETATM   19  C16 UNL     1      25.317   7.057  48.187  1.00  0.00     0.054 C 
HETATM   20  C17 UNL     1      24.592   7.467  50.549  1.00  0.00     0.231 C 
HETATM   21  F1  UNL     1      25.102   8.772  50.428  1.00  0.00    -0.242 F 
HETATM   22  C18 UNL     1      23.182   7.519  50.098  1.00  0.00     0.015 C 
HETATM   23  C19 UNL     1      22.026   6.849  50.343  1.00  0.00     0.030 C 
ENDROOT
BRANCH  18  24
HETATM   24  O2  UNL     1      26.762   6.984  49.969  1.00  0.00    -0.382 OA
HETATM   25  H20 UNL     1      27.357   6.331  49.521  1.00  0.00     0.211 HD
ENDBRANCH  18  24
TORSDOF 1
ENDMDL
MODEL 3
REMARK VINA RESULT:      -7.8      2.276      4.336
REMARK  1 active torsions:
REMARK  status: ('A' for Active; 'I' for Inactive)
REMARK    1  A    between atoms: C15_18  and  O2_20 
ROOT
HETATM    1  C1  UNL     1      19.760   5.961  49.680  1.00  0.00     0.010 C 
HETATM    2  C2  UNL     1      20.611   4.871  50.451  1.00  0.00    -0.013 C 
HETATM    3  C3  UNL     1      19.544   3.959  51.047  1.00  0.00     0.031 C 
HETATM    4  C4  UNL     1      20.051   2.881  51.917  1.00  0.00    -0.024 C 
HETATM    5  C5  UNL     1      20.442   1.936  52.788  1.00  0.00     0.027 C 
HETATM    6  C6  UNL     1      21.445   1.217  52.088  1.00  0.00     0.057 C 
HETATM    7  N1  UNL     1      22.159   0.862  51.133  1.00  0.00    -0.242 NA
HETATM    8  C7  UNL     1      22.097   1.388  49.801  1.00  0.00     0.234 C 
HETATM    9  N2  UNL     1      22.743   2.297  49.125  1.00  0.00    -0.243 NA
HETATM   10  C8  UNL     1      23.808   3.039  49.729  1.00  0.00     0.069 C 
HETATM   11  C9  UNL     1      25.008   3.620  49.530  1.00  0.00     0.030 C 
HETATM   12  C10 UNL     1      25.718   3.180  50.789  1.00  0.00     0.011 C 
HETATM   13  C11 UNL     1      24.877   2.412  51.567  1.00  0.00    -0.009 C 
HETATM   14  C12 UNL     1      23.696   3.317  51.185  1.00  0.00     0.205 C 
HETATM   15  O1  UNL     1      23.798   4.606  51.609  1.00  0.00    -0.375 OA
HETATM   16  C13 UNL     1      22.665   5.192  52.060  1.00  0.00     0.169 C 
HETATM   17  C14 UNL     1      21.528   5.622  51.265  1.00  0.00     0.031 C 
HETATM   18  C15 UNL     1      25.362   1.224  52.308  1.00  0.00     0.114 C 
HETATM   19  C16 UNL     1      25.894   1.767  53.625  1.00  0.00     0.054 C 
HETATM   20  C17 UNL     1      24.396   0.089  52.523  1.00  0.00     0.231 C 
HETATM   21  F1  UNL     1      25.166  -0.922  53.126  1.00  0.00    -0.242 F 
HETATM   22  C18 UNL     1      23.320   0.433  53.482  1.00  0.00     0.015 C 
HETATM   23  C19 UNL     1      22.052   0.915  53.433  1.00  0.00     0.030 C 
ENDROOT
BRANCH  18  24
HETATM   24  O2  UNL     1      26.472   0.643  51.708  1.00  0.00    -0.382 OA
HETATM   25  H20 UNL     1      26.510   0.983  50.779  1.00  0.00     0.211 HD
ENDBRANCH  18  24
TORSDOF 1
ENDMDL
MODEL 4
REMARK VINA RESULT:      -7.5      3.037      5.921
REMARK  1 active torsions:
REMARK  status: ('A' for Active; 'I' for Inactive)
REMARK    1  A    between atoms: C15_18  and  O2_20 
ROOT
HETATM    1  C1  UNL     1      21.180  -0.140  54.559  1.00  0.00     0.010 C 
HETATM    2  C2  UNL     1      21.564   0.658  53.247  1.00  0.00    -0.013 C 
HETATM    3  C3  UNL     1      20.830  -0.107  52.151  1.00  0.00     0.031 C 
HETATM    4  C4  UNL     1      21.083   0.364  50.776  1.00  0.00    -0.024 C 
HETATM    5  C5  UNL     1      21.341   0.688  49.498  1.00  0.00     0.027 C 
HETATM    6  C6  UNL     1      21.102   2.085  49.442  1.00  0.00     0.057 C 
HETATM    7  N1  UNL     1      20.734   3.211  49.822  1.00  0.00    -0.242 NA
HETATM    8  C7  UNL     1      20.155   3.515  51.098  1.00  0.00     0.234 C 
HETATM    9  N2  UNL     1      20.596   3.972  52.238  1.00  0.00    -0.243 NA
HETATM   10  C8  UNL     1      21.979   4.295  52.411  1.00  0.00     0.069 C 
HETATM   11  C9  UNL     1      22.859   5.131  52.998  1.00  0.00     0.030 C 
HETATM   12  C10 UNL     1      23.810   5.354  51.846  1.00  0.00     0.011 C 
HETATM   13  C11 UNL     1      23.396   4.640  50.740  1.00  0.00    -0.009 C 
HETATM   14  C12 UNL     1      22.964   3.480  51.651  1.00  0.00     0.205 C 
HETATM   15  O1  UNL     1      23.974   2.879  52.335  1.00  0.00    -0.375 OA
HETATM   16  C13 UNL     1      23.913   1.532  52.455  1.00  0.00     0.169 C 
HETATM   17  C14 UNL     1      22.997   0.770  53.285  1.00  0.00     0.031 C 
HETATM   18  C15 UNL     1      23.498   5.191  49.369  1.00  0.00     0.114 C 
HETATM   19  C16 UNL     1      24.909   4.857  48.911  1.00  0.00     0.054 C 
HETATM   20  C17 UNL     1      22.467   4.757  48.361  1.00  0.00     0.231 C 
HETATM   21  F1  UNL     1      22.743   5.529  47.218  1.00  0.00    -0.242 F 
HETATM   22  C18 UNL     1      22.624   3.338  47.963  1.00  0.00     0.015 C 
HETATM   23  C19 UNL     1      22.121   2.133  48.334  1.00  0.00     0.030 C 
ENDROOT
BRANCH  18  24
HETATM   24  O2  UNL     1      23.456   6.579  49.351  1.00  0.00    -0.382 OA
HETATM   25  H20 UNL     1      24.045   6.895  50.082  1.00  0.00     0.211 HD
ENDBRANCH  18  24
TORSDOF 1
ENDMDL
MODEL 5
REMARK VINA RESULT:      -7.5      2.081      3.461
REMARK  1 active torsions:
REMARK  status: ('A' for Active; 'I' for Inactive)
REMARK    1  A    between atoms: C15_18  and  O2_20 
ROOT
HETATM    1  C1  UNL     1      19.232   3.790  48.565  1.00  0.00     0.010 C 
HETATM    2  C2  UNL     1      20.683   3.473  49.116  1.00  0.00    -0.013 C 
HETATM    3  C3  UNL     1      21.539   4.559  48.474  1.00  0.00     0.031 C 
HETATM    4  C4  UNL     1      22.987   4.458  48.737  1.00  0.00    -0.024 C 
HETATM    5  C5  UNL     1      24.321   4.370  48.868  1.00  0.00     0.027 C 
HETATM    6  C6  UNL     1      24.525   4.272  50.268  1.00  0.00     0.057 C 
HETATM    7  N1  UNL     1      24.245   4.281  51.480  1.00  0.00    -0.242 NA
HETATM    8  C7  UNL     1      22.946   4.523  52.037  1.00  0.00     0.234 C 
HETATM    9  N2  UNL     1      21.960   3.783  52.463  1.00  0.00    -0.243 NA
HETATM   10  C8  UNL     1      22.050   2.355  52.429  1.00  0.00     0.069 C 
HETATM   11  C9  UNL     1      21.724   1.207  53.056  1.00  0.00     0.030 C 
HETATM   12  C10 UNL     1      23.029   0.460  52.920  1.00  0.00     0.011 C 
HETATM   13  C11 UNL     1      23.951   1.231  52.242  1.00  0.00    -0.009 C 
HETATM   14  C12 UNL     1      22.839   1.754  51.321  1.00  0.00     0.205 C 
HETATM   15  O1  UNL     1      22.246   0.810  50.541  1.00  0.00    -0.375 OA
HETATM   16  C13 UNL     1      21.940   1.170  49.273  1.00  0.00     0.169 C 
HETATM   17  C14 UNL     1      20.884   2.074  48.853  1.00  0.00     0.031 C 
HETATM   18  C15 UNL     1      25.383   1.253  52.623  1.00  0.00     0.114 C 
HETATM   19  C16 UNL     1      26.007   0.074  51.893  1.00  0.00     0.054 C 
HETATM   20  C17 UNL     1      26.151   2.526  52.384  1.00  0.00     0.231 C 
HETATM   21  F1  UNL     1      27.416   2.288  52.952  1.00  0.00    -0.242 F 
HETATM   22  C18 UNL     1      26.376   2.792  50.944  1.00  0.00     0.015 C 
HETATM   23  C19 UNL     1      25.774   3.493  49.949  1.00  0.00     0.030 C 
ENDROOT
BRANCH  18  24
HETATM   24  O2  UNL     1      25.579   0.962  53.967  1.00  0.00    -0.382 OA
HETATM   25  H20 UNL     1      26.491   1.270  54.199  1.00  0.00     0.211 HD
ENDBRANCH  18  24
TORSDOF 1
ENDMDL
MODEL 6
REMARK VINA RESULT:      -7.2      7.946     11.159
REMARK  1 active torsions:
REMARK  status: ('A' for Active; 'I' for Inactive)
REMARK    1  A    between atoms: C15_18  and  O2_20 
ROOT
HETATM    1  C1  UNL     1      25.058   6.199  48.780  1.00  0.00     0.010 C 
HETATM    2  C2  UNL     1      26.366   7.082  48.654  1.00  0.00    -0.013 C 
HETATM    3  C3  UNL     1      27.450   6.050  48.365  1.00  0.00     0.031 C 
HETATM    4  C4  UNL     1      28.824   6.583  48.290  1.00  0.00    -0.024 C 
HETATM    5  C5  UNL     1      30.104   6.993  48.297  1.00  0.00     0.027 C 
HETATM    6  C6  UNL     1      30.123   8.076  47.381  1.00  0.00     0.057 C 
HETATM    7  N1  UNL     1      29.708   8.860  46.510  1.00  0.00    -0.242 NA
HETATM    8  C7  UNL     1      28.407   8.830  45.909  1.00  0.00     0.234 C 
HETATM    9  N2  UNL     1      27.275   9.448  46.102  1.00  0.00    -0.243 NA
HETATM   10  C8  UNL     1      27.144  10.427  47.138  1.00  0.00     0.069 C 
HETATM   11  C9  UNL     1      26.571  11.594  47.496  1.00  0.00     0.030 C 
HETATM   12  C10 UNL     1      27.751  12.268  48.156  1.00  0.00     0.011 C 
HETATM   13  C11 UNL     1      28.855  11.441  48.117  1.00  0.00    -0.009 C 
HETATM   14  C12 UNL     1      27.954  10.223  48.368  1.00  0.00     0.205 C 
HETATM   15  O1  UNL     1      27.317  10.216  49.570  1.00  0.00    -0.375 OA
HETATM   16  C13 UNL     1      27.222   9.025  50.204  1.00  0.00     0.169 C 
HETATM   17  C14 UNL     1      26.376   7.904  49.834  1.00  0.00     0.031 C 
HETATM   18  C15 UNL     1      30.219  11.967  47.871  1.00  0.00     0.114 C 
HETATM   19  C16 UNL     1      30.732  12.394  49.237  1.00  0.00     0.054 C 
HETATM   20  C17 UNL     1      31.198  11.071  47.162  1.00  0.00     0.231 C 
HETATM   21  F1  UNL     1      32.335  11.875  46.963  1.00  0.00    -0.242 F 
HETATM   22  C18 UNL     1      31.629   9.927  47.999  1.00  0.00     0.015 C 
HETATM   23  C19 UNL     1      31.265   8.633  48.191  1.00  0.00     0.030 C 
ENDROOT
BRANCH  18  24
HETATM   24  O2  UNL     1      30.207  13.143  47.131  1.00  0.00    -0.382 OA
HETATM   25  H20 UNL     1      30.787  12.993  46.342  1.00  0.00     0.211 HD
ENDBRANCH  18  24
TORSDOF 1
ENDMDL
MODEL 7
REMARK VINA RESULT:      -7.1      8.176     11.154
REMARK  1 active torsions:
REMARK  status: ('A' for Active; 'I' for Inactive)
REMARK    1  A    between atoms: C15_18  and  O2_20 
ROOT
HETATM    1  C1  UNL     1      26.351   7.652  49.695  1.00  0.00     0.010 C 
HETATM    2  C2  UNL     1      27.606   7.522  48.738  1.00  0.00    -0.013 C 
HETATM    3  C3  UNL     1      27.234   8.417  47.561  1.00  0.00     0.031 C 
HETATM    4  C4  UNL     1      28.196   8.419  46.443  1.00  0.00    -0.024 C 
HETATM    5  C5  UNL     1      28.988   8.397  45.357  1.00  0.00     0.027 C 
HETATM    6  C6  UNL     1      30.281   8.677  45.869  1.00  0.00     0.057 C 
HETATM    7  N1  UNL     1      31.151   9.001  46.696  1.00  0.00    -0.242 NA
HETATM    8  C7  UNL     1      30.915   9.355  48.065  1.00  0.00     0.234 C 
HETATM    9  N2  UNL     1      30.958   8.734  49.211  1.00  0.00    -0.243 NA
HETATM   10  C8  UNL     1      31.317   7.350  49.279  1.00  0.00     0.069 C 
HETATM   11  C9  UNL     1      31.954   6.403  49.996  1.00  0.00     0.030 C 
HETATM   12  C10 UNL     1      32.667   5.673  48.882  1.00  0.00     0.011 C 
HETATM   13  C11 UNL     1      32.374   6.256  47.666  1.00  0.00    -0.009 C 
HETATM   14  C12 UNL     1      30.928   6.494  48.128  1.00  0.00     0.205 C 
HETATM   15  O1  UNL     1      30.209   5.365  48.373  1.00  0.00    -0.375 OA
HETATM   16  C13 UNL     1      28.913   5.370  47.985  1.00  0.00     0.169 C 
HETATM   17  C14 UNL     1      27.822   6.108  48.596  1.00  0.00     0.031 C 
HETATM   18  C15 UNL     1      33.396   6.409  46.605  1.00  0.00     0.114 C 
HETATM   19  C16 UNL     1      33.380   5.092  45.845  1.00  0.00     0.054 C 
HETATM   20  C17 UNL     1      33.273   7.588  45.678  1.00  0.00     0.231 C 
HETATM   21  F1  UNL     1      34.431   7.536  44.881  1.00  0.00    -0.242 F 
HETATM   22  C18 UNL     1      32.118   7.468  44.756  1.00  0.00     0.015 C 
HETATM   23  C19 UNL     1      30.821   7.868  44.719  1.00  0.00     0.030 C 
ENDROOT
BRANCH  18  24
HETATM   24  O2  UNL     1      34.685   6.488  47.117  1.00  0.00    -0.382 OA
HETATM   25  H20 UNL     1      35.219   7.019  46.475  1.00  0.00     0.211 HD
ENDBRANCH  18  24
TORSDOF 1
ENDMDL
MODEL 8
REMARK VINA RESULT:      -7.1      7.501      9.764
REMARK  1 active torsions:
REMARK  status: ('A' for Active; 'I' for Inactive)
REMARK    1  A    between atoms: C15_18  and  O2_20 
ROOT
HETATM    1  C1  UNL     1      24.680  11.394  46.663  1.00  0.00     0.010 C 
HETATM    2  C2  UNL     1      26.080  10.727  46.986  1.00  0.00    -0.013 C 
HETATM    3  C3  UNL     1      26.986  11.930  47.228  1.00  0.00     0.031 C 
HETATM    4  C4  UNL     1      28.407  11.610  47.464  1.00  0.00    -0.024 C 
HETATM    5  C5  UNL     1      29.725  11.391  47.597  1.00  0.00     0.027 C 
HETATM    6  C6  UNL     1      29.811  10.426  48.634  1.00  0.00     0.057 C 
HETATM    7  N1  UNL     1      29.430   9.688  49.560  1.00  0.00    -0.242 NA
HETATM    8  C7  UNL     1      28.090   9.595  50.058  1.00  0.00     0.234 C 
HETATM    9  N2  UNL     1      27.072   8.804  49.858  1.00  0.00    -0.243 NA
HETATM   10  C8  UNL     1      27.165   7.711  48.939  1.00  0.00     0.069 C 
HETATM   11  C9  UNL     1      26.789   6.442  48.682  1.00  0.00     0.030 C 
HETATM   12  C10 UNL     1      28.102   5.878  48.192  1.00  0.00     0.011 C 
HETATM   13  C11 UNL     1      29.077   6.854  48.212  1.00  0.00    -0.009 C 
HETATM   14  C12 UNL     1      28.045   7.896  47.755  1.00  0.00     0.205 C 
HETATM   15  O1  UNL     1      27.521   7.682  46.518  1.00  0.00    -0.375 OA
HETATM   16  C13 UNL     1      27.322   8.773  45.742  1.00  0.00     0.169 C 
HETATM   17  C14 UNL     1      26.304   9.794  45.915  1.00  0.00     0.031 C 
HETATM   18  C15 UNL     1      30.472   6.559  48.616  1.00  0.00     0.114 C 
HETATM   19  C16 UNL     1      31.156   6.067  47.350  1.00  0.00     0.054 C 
HETATM   20  C17 UNL     1      31.256   7.658  49.282  1.00  0.00     0.231 C 
HETATM   21  F1  UNL     1      32.469   7.051  49.656  1.00  0.00    -0.242 F 
HETATM   22  C18 UNL     1      31.600   8.756  48.348  1.00  0.00     0.015 C 
HETATM   23  C19 UNL     1      31.083   9.956  47.979  1.00  0.00     0.030 C 
ENDROOT
BRANCH  18  24
HETATM   24  O2  UNL     1      30.554   5.480  49.487  1.00  0.00    -0.382 OA
HETATM   25  H20 UNL     1      31.503   5.194  49.503  1.00  0.00     0.211 HD
ENDBRANCH  18  24
TORSDOF 1
ENDMDL
MODEL 9
REMARK VINA RESULT:      -7.0      3.153      4.450
REMARK  1 active torsions:
REMARK  status: ('A' for Active; 'I' for Inactive)
REMARK    1  A    between atoms: C15_18  and  O2_20 
ROOT
HETATM    1  C1  UNL     1      26.381   6.726  48.557  1.00  0.00     0.010 C 
HETATM    2  C2  UNL     1      25.238   5.860  49.229  1.00  0.00    -0.013 C 
HETATM    3  C3  UNL     1      24.876   6.672  50.468  1.00  0.00     0.031 C 
HETATM    4  C4  UNL     1      23.880   6.049  51.361  1.00  0.00    -0.024 C 
HETATM    5  C5  UNL     1      23.045   5.496  52.256  1.00  0.00     0.027 C 
HETATM    6  C6  UNL     1      21.908   5.135  51.489  1.00  0.00     0.057 C 
HETATM    7  N1  UNL     1      21.154   5.064  50.502  1.00  0.00    -0.242 NA
HETATM    8  C7  UNL     1      21.402   5.650  49.217  1.00  0.00     0.234 C 
HETATM    9  N2  UNL     1      21.888   5.235  48.080  1.00  0.00    -0.243 NA
HETATM   10  C8  UNL     1      22.327   3.882  47.923  1.00  0.00     0.069 C 
HETATM   11  C9  UNL     1      22.416   2.835  47.078  1.00  0.00     0.030 C 
HETATM   12  C10 UNL     1      22.013   1.717  48.009  1.00  0.00     0.011 C 
HETATM   13  C11 UNL     1      21.742   2.218  49.266  1.00  0.00    -0.009 C 
HETATM   14  C12 UNL     1      22.903   3.214  49.120  1.00  0.00     0.205 C 
HETATM   15  O1  UNL     1      24.136   2.650  49.018  1.00  0.00    -0.375 OA
HETATM   16  C13 UNL     1      25.148   3.270  49.669  1.00  0.00     0.169 C 
HETATM   17  C14 UNL     1      25.776   4.529  49.307  1.00  0.00     0.031 C 
HETATM   18  C15 UNL     1      20.627   1.700  50.093  1.00  0.00     0.114 C 
HETATM   19  C16 UNL     1      21.201   0.496  50.824  1.00  0.00     0.054 C 
HETATM   20  C17 UNL     1      19.951   2.657  51.038  1.00  0.00     0.231 C 
HETATM   21  F1  UNL     1      18.876   1.925  51.574  1.00  0.00    -0.242 F 
HETATM   22  C18 UNL     1      20.818   3.034  52.179  1.00  0.00     0.015 C 
HETATM   23  C19 UNL     1      21.684   4.033  52.492  1.00  0.00     0.030 C 
ENDROOT
BRANCH  18  24
HETATM   24  O2  UNL     1      19.599   1.169  49.323  1.00  0.00    -0.382 OA
HETATM   25  H20 UNL     1      19.915   0.294  48.983  1.00  0.00     0.211 HD
ENDBRANCH  18  24
TORSDOF 1
ENDMDL
