MODEL 1
REMARK VINA RESULT:      -6.8      0.000      0.000
REMARK  5 active torsions:
REMARK  status: ('A' for Active; 'I' for Inactive)
REMARK    1  A    between atoms: C3_3  and  C4_4 
REMARK    2  A    between atoms: C3_3  and  N1_8 
REMARK    3  A    between atoms: N1_8  and  P1_9 
REMARK    4  A    between atoms: C11_15  and  O1_16 
REMARK    5  A    between atoms: C13_18  and  O2_19 
ROOT
HETATM    1  P1  UNL     1      21.684   0.676  52.715  1.00  0.00    -0.005 P 
HETATM    2  C7  UNL     1      20.742  -0.423  53.802  1.00  0.00     0.042 C 
HETATM    3  C8  UNL     1      21.384  -1.198  54.649  1.00  0.00     0.119 C 
HETATM    4  N2  UNL     1      22.772  -1.262  54.830  1.00  0.00    -0.264 NA
HETATM    5  C9  UNL     1      23.620  -0.509  54.174  1.00  0.00     0.050 C 
HETATM    6  C10 UNL     1      24.957  -0.905  54.613  1.00  0.00     0.068 C 
HETATM    7  C11 UNL     1      25.913  -0.447  53.781  1.00  0.00     0.103 C 
HETATM    8  C13 UNL     1      25.673   0.439  52.644  1.00  0.00     0.099 C 
HETATM    9  C15 UNL     1      24.447   0.917  52.381  1.00  0.00     0.030 C 
HETATM   10  C16 UNL     1      23.354   0.590  53.257  1.00  0.00     0.109 C 
HETATM   11  H9  UNL     1      21.182   1.987  52.820  1.00  0.00     0.081 HD
ENDROOT
BRANCH   1  12
HETATM   12  N1  UNL     1      21.482   0.201  51.200  1.00  0.00    -0.266 NA
BRANCH  12  13
HETATM   13  C3  UNL     1      21.327   1.205  50.208  1.00  0.00     0.052 C 
HETATM   14  C2  UNL     1      20.074   1.365  49.802  1.00  0.00     0.000 C 
HETATM   15  C1  UNL     1      18.900   0.627  50.278  1.00  0.00     0.038 C 
BRANCH  13  16
HETATM   16  C4  UNL     1      22.422   1.998  49.665  1.00  0.00     0.045 C 
HETATM   17  C5  UNL     1      22.724   3.222  50.015  1.00  0.00    -0.013 C 
HETATM   18  C6  UNL     1      21.994   3.994  51.021  1.00  0.00     0.056 C 
HETATM   19 BR1  UNL     1      24.211   4.107  49.185  1.00  0.00    -0.056 Br
ENDBRANCH  13  16
ENDBRANCH  12  13
ENDBRANCH   1  12
BRANCH   8  20
HETATM   20  O2  UNL     1      26.643   0.865  51.750  1.00  0.00    -0.353 OA
HETATM   21  C14 UNL     1      26.781   2.248  51.508  1.00  0.00     0.210 C 
ENDBRANCH   8  20
BRANCH   7  22
HETATM   22  O1  UNL     1      27.290  -0.708  53.920  1.00  0.00    -0.353 OA
HETATM   23  C12 UNL     1      28.096   0.104  54.758  1.00  0.00     0.210 C 
ENDBRANCH   7  22
TORSDOF 5
ENDMDL
MODEL 2
REMARK VINA RESULT:      -6.8      2.003      2.568
REMARK  5 active torsions:
REMARK  status: ('A' for Active; 'I' for Inactive)
REMARK    1  A    between atoms: C3_3  and  C4_4 
REMARK    2  A    between atoms: C3_3  and  N1_8 
REMARK    3  A    between atoms: N1_8  and  P1_9 
REMARK    4  A    between atoms: C11_15  and  O1_16 
REMARK    5  A    between atoms: C13_18  and  O2_19 
ROOT
HETATM    1  P1  UNL     1      23.330   2.056  51.952  1.00  0.00    -0.005 P 
HETATM    2  C7  UNL     1      22.018   0.828  52.175  1.00  0.00     0.042 C 
HETATM    3  C8  UNL     1      22.281  -0.286  52.822  1.00  0.00     0.119 C 
HETATM    4  N2  UNL     1      23.507  -0.643  53.401  1.00  0.00    -0.264 NA
HETATM    5  C9  UNL     1      24.562   0.134  53.391  1.00  0.00     0.050 C 
HETATM    6  C10 UNL     1      25.633  -0.609  54.052  1.00  0.00     0.068 C 
HETATM    7  C11 UNL     1      26.843  -0.063  53.812  1.00  0.00     0.103 C 
HETATM    8  C13 UNL     1      27.063   1.185  53.085  1.00  0.00     0.099 C 
HETATM    9  C15 UNL     1      26.033   1.925  52.644  1.00  0.00     0.030 C 
HETATM   10  C16 UNL     1      24.686   1.508  52.927  1.00  0.00     0.109 C 
HETATM   11  H9  UNL     1      22.873   3.317  52.381  1.00  0.00     0.081 HD
ENDROOT
BRANCH   1  12
HETATM   12  N1  UNL     1      23.672   2.169  50.394  1.00  0.00    -0.266 NA
BRANCH  12  13
HETATM   13  C3  UNL     1      23.288   3.357  49.717  1.00  0.00     0.052 C 
HETATM   14  C2  UNL     1      22.556   3.139  48.632  1.00  0.00     0.000 C 
HETATM   15  C1  UNL     1      22.134   1.836  48.109  1.00  0.00     0.038 C 
BRANCH  13  16
HETATM   16  C4  UNL     1      23.650   4.701  50.148  1.00  0.00     0.045 C 
HETATM   17  C5  UNL     1      24.798   5.289  49.930  1.00  0.00    -0.013 C 
HETATM   18  C6  UNL     1      25.913   4.675  49.209  1.00  0.00     0.056 C 
HETATM   19 BR1  UNL     1      25.089   7.072  50.576  1.00  0.00    -0.056 Br
ENDBRANCH  13  16
ENDBRANCH  12  13
ENDBRANCH   1  12
BRANCH   8  20
HETATM   20  O2  UNL     1      28.306   1.720  52.783  1.00  0.00    -0.353 OA
HETATM   21  C14 UNL     1      28.950   2.525  53.747  1.00  0.00     0.210 C 
ENDBRANCH   8  20
BRANCH   7  22
HETATM   22  O1  UNL     1      28.065  -0.586  54.276  1.00  0.00    -0.353 OA
HETATM   23  C12 UNL     1      28.855  -1.419  53.444  1.00  0.00     0.210 C 
ENDBRANCH   7  22
TORSDOF 5
ENDMDL
MODEL 3
REMARK VINA RESULT:      -6.7      2.688      4.340
REMARK  5 active torsions:
REMARK  status: ('A' for Active; 'I' for Inactive)
REMARK    1  A    between atoms: C3_3  and  C4_4 
REMARK    2  A    between atoms: C3_3  and  N1_8 
REMARK    3  A    between atoms: N1_8  and  P1_9 
REMARK    4  A    between atoms: C11_15  and  O1_16 
REMARK    5  A    between atoms: C13_18  and  O2_19 
ROOT
HETATM    1  P1  UNL     1      23.736   2.630  50.973  1.00  0.00    -0.005 P 
HETATM    2  C7  UNL     1      24.831   3.782  50.105  1.00  0.00     0.042 C 
HETATM    3  C8  UNL     1      26.132   3.679  50.264  1.00  0.00     0.119 C 
HETATM    4  N2  UNL     1      26.801   2.728  51.047  1.00  0.00    -0.264 NA
HETATM    5  C9  UNL     1      26.188   1.780  51.711  1.00  0.00     0.050 C 
HETATM    6  C10 UNL     1      27.222   1.033  52.425  1.00  0.00     0.068 C 
HETATM    7  C11 UNL     1      26.699   0.254  53.393  1.00  0.00     0.103 C 
HETATM    8  C13 UNL     1      25.270   0.073  53.634  1.00  0.00     0.099 C 
HETATM    9  C15 UNL     1      24.352   0.646  52.839  1.00  0.00     0.030 C 
HETATM   10  C16 UNL     1      24.778   1.418  51.703  1.00  0.00     0.109 C 
HETATM   11  H9  UNL     1      22.842   2.046  50.054  1.00  0.00     0.081 HD
ENDROOT
BRANCH   1  12
HETATM   12  N1  UNL     1      22.867   3.448  52.038  1.00  0.00    -0.266 NA
BRANCH  12  13
HETATM   13  C3  UNL     1      21.477   3.166  52.114  1.00  0.00     0.052 C 
HETATM   14  C2  UNL     1      20.718   4.056  51.487  1.00  0.00     0.000 C 
HETATM   15  C1  UNL     1      21.181   5.241  50.759  1.00  0.00     0.038 C 
BRANCH  13  16
HETATM   16  C4  UNL     1      20.909   2.019  52.809  1.00  0.00     0.045 C 
HETATM   17  C5  UNL     1      20.516   0.904  52.247  1.00  0.00    -0.013 C 
HETATM   18  C6  UNL     1      20.588   0.638  50.811  1.00  0.00     0.056 C 
HETATM   19 BR1  UNL     1      19.791  -0.502  53.333  1.00  0.00    -0.056 Br
ENDBRANCH  13  16
ENDBRANCH  12  13
ENDBRANCH   1  12
BRANCH   8  20
HETATM   20  O2  UNL     1      24.727  -0.679  54.664  1.00  0.00    -0.353 OA
HETATM   21  C14 UNL     1      23.347  -0.974  54.634  1.00  0.00     0.210 C 
ENDBRANCH   8  20
BRANCH   7  22
HETATM   22  O1  UNL     1      27.453  -0.543  54.276  1.00  0.00    -0.353 OA
HETATM   23  C12 UNL     1      28.748  -0.136  54.687  1.00  0.00     0.210 C 
ENDBRANCH   7  22
TORSDOF 5
ENDMDL
MODEL 4
REMARK VINA RESULT:      -6.7      2.822      5.159
REMARK  5 active torsions:
REMARK  status: ('A' for Active; 'I' for Inactive)
REMARK    1  A    between atoms: C3_3  and  C4_4 
REMARK    2  A    between atoms: C3_3  and  N1_8 
REMARK    3  A    between atoms: N1_8  and  P1_9 
REMARK    4  A    between atoms: C11_15  and  O1_16 
REMARK    5  A    between atoms: C13_18  and  O2_19 
ROOT
HETATM    1  P1  UNL     1      24.693  -0.183  53.365  1.00  0.00    -0.005 P 
HETATM    2  C7  UNL     1      25.166  -0.860  54.976  1.00  0.00     0.042 C 
HETATM    3  C8  UNL     1      24.238  -1.358  55.763  1.00  0.00     0.119 C 
HETATM    4  N2  UNL     1      22.868  -1.449  55.481  1.00  0.00    -0.264 NA
HETATM    5  C9  UNL     1      22.338  -1.060  54.348  1.00  0.00     0.050 C 
HETATM    6  C10 UNL     1      20.898  -1.280  54.463  1.00  0.00     0.068 C 
HETATM    7  C11 UNL     1      20.212  -0.620  53.508  1.00  0.00     0.103 C 
HETATM    8  C13 UNL     1      20.824   0.128  52.412  1.00  0.00     0.099 C 
HETATM    9  C15 UNL     1      22.156   0.159  52.248  1.00  0.00     0.030 C 
HETATM   10  C16 UNL     1      22.999  -0.593  53.138  1.00  0.00     0.109 C 
HETATM   11  H9  UNL     1      25.494  -0.757  52.359  1.00  0.00     0.081 HD
ENDROOT
BRANCH   1  12
HETATM   12  N1  UNL     1      24.972   1.392  53.364  1.00  0.00    -0.266 NA
BRANCH  12  13
HETATM   13  C3  UNL     1      25.530   1.965  52.191  1.00  0.00     0.052 C 
HETATM   14  C2  UNL     1      26.810   2.292  52.315  1.00  0.00     0.000 C 
HETATM   15  C1  UNL     1      27.646   2.114  53.506  1.00  0.00     0.038 C 
BRANCH  13  16
HETATM   16  C4  UNL     1      24.793   2.187  50.954  1.00  0.00     0.045 C 
HETATM   17  C5  UNL     1      23.917   3.137  50.747  1.00  0.00    -0.013 C 
HETATM   18  C6  UNL     1      23.539   4.138  51.745  1.00  0.00     0.056 C 
HETATM   19 BR1  UNL     1      23.046   3.271  49.043  1.00  0.00    -0.056 Br
ENDBRANCH  13  16
ENDBRANCH  12  13
ENDBRANCH   1  12
BRANCH   8  20
HETATM   20  O2  UNL     1      20.126   0.859  51.462  1.00  0.00    -0.353 OA
HETATM   21  C14 UNL     1      20.092   2.264  51.579  1.00  0.00     0.210 C 
ENDBRANCH   8  20
BRANCH   7  22
HETATM   22  O1  UNL     1      18.809  -0.603  53.394  1.00  0.00    -0.353 OA
HETATM   23  C12 UNL     1      18.068  -1.811  53.444  1.00  0.00     0.210 C 
ENDBRANCH   7  22
TORSDOF 5
ENDMDL
MODEL 5
REMARK VINA RESULT:      -6.5      3.672      6.921
REMARK  5 active torsions:
REMARK  status: ('A' for Active; 'I' for Inactive)
REMARK    1  A    between atoms: C3_3  and  C4_4 
REMARK    2  A    between atoms: C3_3  and  N1_8 
REMARK    3  A    between atoms: N1_8  and  P1_9 
REMARK    4  A    between atoms: C11_15  and  O1_16 
REMARK    5  A    between atoms: C13_18  and  O2_19 
ROOT
HETATM    1  P1  UNL     1      25.407   2.534  51.969  1.00  0.00    -0.005 P 
HETATM    2  C7  UNL     1      26.506   2.869  50.569  1.00  0.00     0.042 C 
HETATM    3  C8  UNL     1      26.089   3.648  49.595  1.00  0.00     0.119 C 
HETATM    4  N2  UNL     1      24.847   4.293  49.518  1.00  0.00    -0.264 NA
HETATM    5  C9  UNL     1      23.936   4.215  50.456  1.00  0.00     0.050 C 
HETATM    6  C10 UNL     1      22.785   4.983  49.984  1.00  0.00     0.068 C 
HETATM    7  C11 UNL     1      21.674   4.708  50.697  1.00  0.00     0.103 C 
HETATM    8  C13 UNL     1      21.633   3.845  51.875  1.00  0.00     0.099 C 
HETATM    9  C15 UNL     1      22.751   3.297  52.376  1.00  0.00     0.030 C 
HETATM   10  C16 UNL     1      24.021   3.597  51.771  1.00  0.00     0.109 C 
HETATM   11  H9  UNL     1      26.085   2.801  53.175  1.00  0.00     0.081 HD
ENDROOT
BRANCH   1  12
HETATM   12  N1  UNL     1      25.024   0.981  51.964  1.00  0.00    -0.266 NA
BRANCH  12  13
HETATM   13  C3  UNL     1      25.496   0.180  53.037  1.00  0.00     0.052 C 
HETATM   14  C2  UNL     1      24.526  -0.380  53.750  1.00  0.00     0.000 C 
HETATM   15  C1  UNL     1      23.085  -0.245  53.523  1.00  0.00     0.038 C 
BRANCH  13  16
HETATM   16  C4  UNL     1      26.903  -0.025  53.353  1.00  0.00     0.045 C 
HETATM   17  C5  UNL     1      27.608  -1.083  53.045  1.00  0.00    -0.013 C 
HETATM   18  C6  UNL     1      27.080  -2.243  52.326  1.00  0.00     0.056 C 
HETATM   19 BR1  UNL     1      29.458  -1.169  53.546  1.00  0.00    -0.056 Br
ENDBRANCH  13  16
ENDBRANCH  12  13
ENDBRANCH   1  12
BRANCH   8  20
HETATM   20  O2  UNL     1      20.484   3.511  52.576  1.00  0.00    -0.353 OA
HETATM   21  C14 UNL     1      20.163   2.147  52.741  1.00  0.00     0.210 C 
ENDBRANCH   8  20
BRANCH   7  22
HETATM   22  O1  UNL     1      20.402   5.258  50.444  1.00  0.00    -0.353 OA
HETATM   23  C12 UNL     1      19.630   4.812  49.342  1.00  0.00     0.210 C 
ENDBRANCH   7  22
TORSDOF 5
ENDMDL
MODEL 6
REMARK VINA RESULT:      -6.4      2.710      4.700
REMARK  5 active torsions:
REMARK  status: ('A' for Active; 'I' for Inactive)
REMARK    1  A    between atoms: C3_3  and  C4_4 
REMARK    2  A    between atoms: C3_3  and  N1_8 
REMARK    3  A    between atoms: N1_8  and  P1_9 
REMARK    4  A    between atoms: C11_15  and  O1_16 
REMARK    5  A    between atoms: C13_18  and  O2_19 
ROOT
HETATM    1  P1  UNL     1      24.076   0.616  53.302  1.00  0.00    -0.005 P 
HETATM    2  C7  UNL     1      25.370  -0.651  53.301  1.00  0.00     0.042 C 
HETATM    3  C8  UNL     1      26.445  -0.475  52.564  1.00  0.00     0.119 C 
HETATM    4  N2  UNL     1      26.727   0.636  51.757  1.00  0.00    -0.264 NA
HETATM    5  C9  UNL     1      25.939   1.678  51.664  1.00  0.00     0.050 C 
HETATM    6  C10 UNL     1      26.561   2.587  50.703  1.00  0.00     0.068 C 
HETATM    7  C11 UNL     1      25.697   3.529  50.273  1.00  0.00     0.103 C 
HETATM    8  C13 UNL     1      24.340   3.708  50.784  1.00  0.00     0.099 C 
HETATM    9  C15 UNL     1      23.870   2.956  51.792  1.00  0.00     0.030 C 
HETATM   10  C16 UNL     1      24.729   1.984  52.413  1.00  0.00     0.109 C 
HETATM   11  H9  UNL     1      23.766   0.972  54.629  1.00  0.00     0.081 HD
ENDROOT
BRANCH   1  12
HETATM   12  N1  UNL     1      22.753   0.002  52.645  1.00  0.00    -0.266 NA
BRANCH  12  13
HETATM   13  C3  UNL     1      21.502   0.393  53.190  1.00  0.00     0.052 C 
HETATM   14  C2  UNL     1      21.000  -0.483  54.051  1.00  0.00     0.000 C 
HETATM   15  C1  UNL     1      21.608  -1.752  54.463  1.00  0.00     0.038 C 
BRANCH  13  16
HETATM   16  C4  UNL     1      20.809   1.629  52.853  1.00  0.00     0.045 C 
HETATM   17  C5  UNL     1      20.004   1.801  51.836  1.00  0.00    -0.013 C 
HETATM   18  C6  UNL     1      19.674   0.759  50.864  1.00  0.00     0.056 C 
HETATM   19 BR1  UNL     1      19.179   3.510  51.556  1.00  0.00    -0.056 Br
ENDBRANCH  13  16
ENDBRANCH  12  13
ENDBRANCH   1  12
BRANCH   8  20
HETATM   20  O2  UNL     1      23.426   4.634  50.304  1.00  0.00    -0.353 OA
HETATM   21  C14 UNL     1      22.772   5.481  51.225  1.00  0.00     0.210 C 
ENDBRANCH   8  20
BRANCH   7  22
HETATM   22  O1  UNL     1      25.995   4.512  49.311  1.00  0.00    -0.353 OA
HETATM   23  C12 UNL     1      27.322   4.679  48.839  1.00  0.00     0.210 C 
ENDBRANCH   7  22
TORSDOF 5
ENDMDL
MODEL 7
REMARK VINA RESULT:      -6.3      2.116      2.748
REMARK  5 active torsions:
REMARK  status: ('A' for Active; 'I' for Inactive)
REMARK    1  A    between atoms: C3_3  and  C4_4 
REMARK    2  A    between atoms: C3_3  and  N1_8 
REMARK    3  A    between atoms: N1_8  and  P1_9 
REMARK    4  A    between atoms: C11_15  and  O1_16 
REMARK    5  A    between atoms: C13_18  and  O2_19 
ROOT
HETATM    1  P1  UNL     1      21.353   1.005  52.563  1.00  0.00    -0.005 P 
HETATM    2  C7  UNL     1      20.357  -0.147  53.544  1.00  0.00     0.042 C 
HETATM    3  C8  UNL     1      20.960  -1.012  54.331  1.00  0.00     0.119 C 
HETATM    4  N2  UNL     1      22.343  -1.139  54.522  1.00  0.00    -0.264 NA
HETATM    5  C9  UNL     1      23.225  -0.365  53.941  1.00  0.00     0.050 C 
HETATM    6  C10 UNL     1      24.541  -0.843  54.362  1.00  0.00     0.068 C 
HETATM    7  C11 UNL     1      25.525  -0.351  53.582  1.00  0.00     0.103 C 
HETATM    8  C13 UNL     1      25.332   0.634  52.520  1.00  0.00     0.099 C 
HETATM    9  C15 UNL     1      24.126   1.176  52.284  1.00  0.00     0.030 C 
HETATM   10  C16 UNL     1      23.010   0.815  53.116  1.00  0.00     0.109 C 
HETATM   11  H9  UNL     1      20.894   2.320  52.773  1.00  0.00     0.081 HD
ENDROOT
BRANCH   1  12
HETATM   12  N1  UNL     1      21.156   0.665  51.013  1.00  0.00    -0.266 NA
BRANCH  12  13
HETATM   13  C3  UNL     1      20.250   1.467  50.269  1.00  0.00     0.052 C 
HETATM   14  C2  UNL     1      20.643   1.698  49.023  1.00  0.00     0.000 C 
HETATM   15  C1  UNL     1      21.872   1.213  48.389  1.00  0.00     0.038 C 
BRANCH  13  16
HETATM   16  C4  UNL     1      19.002   2.000  50.798  1.00  0.00     0.045 C 
HETATM   17  C5  UNL     1      17.857   1.368  50.838  1.00  0.00    -0.013 C 
HETATM   18  C6  UNL     1      17.654   0.005  50.346  1.00  0.00     0.056 C 
HETATM   19 BR1  UNL     1      16.316   2.239  51.577  1.00  0.00    -0.056 Br
ENDBRANCH  13  16
ENDBRANCH  12  13
ENDBRANCH   1  12
BRANCH   8  20
HETATM   20  O2  UNL     1      26.329   1.099  51.676  1.00  0.00    -0.353 OA
HETATM   21  C14 UNL     1      26.279   2.440  51.242  1.00  0.00     0.210 C 
ENDBRANCH   8  20
BRANCH   7  22
HETATM   22  O1  UNL     1      26.890  -0.671  53.715  1.00  0.00    -0.353 OA
HETATM   23  C12 UNL     1      27.709   0.034  54.633  1.00  0.00     0.210 C 
ENDBRANCH   7  22
TORSDOF 5
ENDMDL
MODEL 8
REMARK VINA RESULT:      -6.2      3.399      6.030
REMARK  5 active torsions:
REMARK  status: ('A' for Active; 'I' for Inactive)
REMARK    1  A    between atoms: C3_3  and  C4_4 
REMARK    2  A    between atoms: C3_3  and  N1_8 
REMARK    3  A    between atoms: N1_8  and  P1_9 
REMARK    4  A    between atoms: C11_15  and  O1_16 
REMARK    5  A    between atoms: C13_18  and  O2_19 
ROOT
HETATM    1  P1  UNL     1      23.029   0.238  52.799  1.00  0.00    -0.005 P 
HETATM    2  C7  UNL     1      22.711  -0.494  54.425  1.00  0.00     0.042 C 
HETATM    3  C8  UNL     1      21.481  -0.819  54.756  1.00  0.00     0.119 C 
HETATM    4  N2  UNL     1      20.339  -0.677  53.957  1.00  0.00    -0.264 NA
HETATM    5  C9  UNL     1      20.370  -0.214  52.732  1.00  0.00     0.050 C 
HETATM    6  C10 UNL     1      18.986  -0.183  52.262  1.00  0.00     0.068 C 
HETATM    7  C11 UNL     1      18.849   0.575  51.155  1.00  0.00     0.103 C 
HETATM    8  C13 UNL     1      19.955   1.197  50.431  1.00  0.00     0.099 C 
HETATM    9  C15 UNL     1      21.230   0.998  50.802  1.00  0.00     0.030 C 
HETATM   10  C16 UNL     1      21.520   0.122  51.905  1.00  0.00     0.109 C 
HETATM   11  H9  UNL     1      24.059  -0.475  52.155  1.00  0.00     0.081 HD
ENDROOT
BRANCH   1  12
HETATM   12  N1  UNL     1      23.535   1.742  53.000  1.00  0.00    -0.266 NA
BRANCH  12  13
HETATM   13  C3  UNL     1      24.909   2.015  52.768  1.00  0.00     0.052 C 
HETATM   14  C2  UNL     1      25.134   2.710  51.660  1.00  0.00     0.000 C 
HETATM   15  C1  UNL     1      24.126   3.193  50.712  1.00  0.00     0.038 C 
BRANCH  13  16
HETATM   16  C4  UNL     1      25.991   1.584  53.643  1.00  0.00     0.045 C 
HETATM   17  C5  UNL     1      26.826   0.607  53.400  1.00  0.00    -0.013 C 
HETATM   18  C6  UNL     1      26.797  -0.218  52.192  1.00  0.00     0.056 C 
HETATM   19 BR1  UNL     1      28.194   0.186  54.678  1.00  0.00    -0.056 Br
ENDBRANCH  13  16
ENDBRANCH  12  13
ENDBRANCH   1  12
BRANCH   8  20
HETATM   20  O2  UNL     1      19.817   2.026  49.329  1.00  0.00    -0.353 OA
HETATM   21  C14 UNL     1      20.835   2.031  48.352  1.00  0.00     0.210 C 
ENDBRANCH   8  20
BRANCH   7  22
HETATM   22  O1  UNL     1      17.628   0.830  50.503  1.00  0.00    -0.353 OA
HETATM   23  C12 UNL     1      16.949  -0.207  49.814  1.00  0.00     0.210 C 
ENDBRANCH   7  22
TORSDOF 5
ENDMDL
MODEL 9
REMARK VINA RESULT:      -6.1     10.125     12.987
REMARK  5 active torsions:
REMARK  status: ('A' for Active; 'I' for Inactive)
REMARK    1  A    between atoms: C3_3  and  C4_4 
REMARK    2  A    between atoms: C3_3  and  N1_8 
REMARK    3  A    between atoms: N1_8  and  P1_9 
REMARK    4  A    between atoms: C11_15  and  O1_16 
REMARK    5  A    between atoms: C13_18  and  O2_19 
ROOT
HETATM    1  P1  UNL     1      31.870   8.407  48.402  1.00  0.00    -0.005 P 
HETATM    2  C7  UNL     1      33.179   9.145  47.393  1.00  0.00     0.042 C 
HETATM    3  C8  UNL     1      33.122  10.426  47.100  1.00  0.00     0.119 C 
HETATM    4  N2  UNL     1      32.133  11.330  47.510  1.00  0.00    -0.264 NA
HETATM    5  C9  UNL     1      31.131  10.999  48.286  1.00  0.00     0.050 C 
HETATM    6  C10 UNL     1      30.311  12.199  48.444  1.00  0.00     0.068 C 
HETATM    7  C11 UNL     1      29.090  11.910  48.936  1.00  0.00     0.103 C 
HETATM    8  C13 UNL     1      28.663  10.584  49.378  1.00  0.00     0.099 C 
HETATM    9  C15 UNL     1      29.511   9.543  49.375  1.00  0.00     0.030 C 
HETATM   10  C16 UNL     1      30.877   9.740  48.972  1.00  0.00     0.109 C 
HETATM   11  H9  UNL     1      32.444   7.704  49.479  1.00  0.00     0.081 HD
ENDROOT
BRANCH   1  12
HETATM   12  N1  UNL     1      31.064   7.351  47.510  1.00  0.00    -0.266 NA
BRANCH  12  13
HETATM   13  C3  UNL     1      31.046   5.998  47.942  1.00  0.00     0.052 C 
HETATM   14  C2  UNL     1      29.825   5.519  48.142  1.00  0.00     0.000 C 
HETATM   15  C1  UNL     1      28.562   6.240  47.958  1.00  0.00     0.038 C 
BRANCH  13  16
HETATM   16  C4  UNL     1      32.238   5.188  48.155  1.00  0.00     0.045 C 
HETATM   17  C5  UNL     1      32.971   4.645  47.217  1.00  0.00    -0.013 C 
HETATM   18  C6  UNL     1      32.697   4.769  45.785  1.00  0.00     0.056 C 
HETATM   19 BR1  UNL     1      34.512   3.608  47.696  1.00  0.00    -0.056 Br
ENDBRANCH  13  16
ENDBRANCH  12  13
ENDBRANCH   1  12
BRANCH   8  20
HETATM   20  O2  UNL     1      27.391  10.268  49.829  1.00  0.00    -0.353 OA
HETATM   21  C14 UNL     1      27.089   8.920  50.118  1.00  0.00     0.210 C 
ENDBRANCH   8  20
BRANCH   7  22
HETATM   22  O1  UNL     1      28.067  12.854  49.152  1.00  0.00    -0.353 OA
HETATM   23  C12 UNL     1      27.538  13.602  48.070  1.00  0.00     0.210 C 
ENDBRANCH   7  22
TORSDOF 5
ENDMDL
