MODEL 1
REMARK VINA RESULT:      -9.1      0.000      0.000
REMARK  4 active torsions:
REMARK  status: ('A' for Active; 'I' for Inactive)
REMARK    1  A    between atoms: C10_17  and  N7_18 
REMARK    2  A    between atoms: N7_18  and  C11_19 
REMARK    3  A    between atoms: C14_22  and  S2_23 
REMARK    4  A    between atoms: S2_23  and  N8_24 
ROOT
HETATM    1  N1  UNL     1      22.460   6.221  51.590  1.00  0.00    -0.004 N 
HETATM    2  C1  UNL     1      23.484   6.344  50.658  1.00  0.00     0.234 A 
HETATM    3  C2  UNL     1      24.223   5.238  50.822  1.00  0.00     0.091 A 
HETATM    4  S1  UNL     1      23.229   4.512  52.156  1.00  0.00     0.039 SA
HETATM    5  C3  UNL     1      23.818   2.818  52.436  1.00  0.00     0.070 C 
HETATM    6  C4  UNL     1      24.889   2.168  52.858  1.00  0.00     0.043 C 
HETATM    7  C5  UNL     1      26.040   1.350  53.314  1.00  0.00     0.101 C 
HETATM    8  N2  UNL     1      25.521   0.722  54.301  1.00  0.00    -0.256 NA
HETATM    9  C6  UNL     1      26.220  -0.239  55.129  1.00  0.00     0.420 C 
HETATM   10  N3  UNL     1      27.626  -0.194  54.959  1.00  0.00     0.121 N 
HETATM   11  C7  UNL     1      28.126  -0.594  53.669  1.00  0.00     0.422 C 
HETATM   12  N4  UNL     1      28.227   0.564  52.772  1.00  0.00    -0.239 NA
HETATM   13  C8  UNL     1      27.329   1.467  52.575  1.00  0.00     0.176 C 
HETATM   14  N5  UNL     1      27.322   2.621  51.768  1.00  0.00    -0.220 NA
HETATM   15  C9  UNL     1      26.455   2.718  50.805  1.00  0.00     0.237 C 
HETATM   16  N6  UNL     1      26.374   3.856  49.945  1.00  0.00    -0.223 NA
HETATM   17  C10 UNL     1      25.423   4.741  50.106  1.00  0.00     0.148 C 
HETATM   18  H1  UNL     1      21.970   6.172  52.500  1.00  0.00     0.298 HD
HETATM   19  H2  UNL     1      21.406   6.074  51.570  1.00  0.00     0.298 HD
HETATM   20  H8  UNL     1      27.994   0.776  55.192  1.00  0.00     0.320 HD
ENDROOT
BRANCH  17  21
HETATM   21  N7  UNL     1      25.628   5.703  49.054  1.00  0.00    -0.340 N 
HETATM   22  H12 UNL     1      24.971   5.999  48.268  1.00  0.00     0.167 HD
BRANCH  21  23
HETATM   23  C11 UNL     1      26.802   6.498  48.832  1.00  0.00     0.033 A 
HETATM   24  C12 UNL     1      26.677   7.731  49.479  1.00  0.00     0.031 A 
HETATM   25  C13 UNL     1      27.662   8.692  49.444  1.00  0.00     0.027 A 
HETATM   26  C14 UNL     1      28.817   8.391  48.726  1.00  0.00     0.074 A 
HETATM   27  C15 UNL     1      28.958   7.179  48.082  1.00  0.00     0.027 A 
HETATM   28  C16 UNL     1      27.957   6.222  48.126  1.00  0.00     0.031 A 
BRANCH  26  29
HETATM   29  S2  UNL     1      30.125   9.535  48.614  1.00  0.00     0.239 S 
HETATM   30  O1  UNL     1      31.321   8.859  47.964  1.00  0.00    -0.206 OA
HETATM   31  O2  UNL     1      29.672  10.710  47.755  1.00  0.00    -0.206 OA
BRANCH  29  32
HETATM   32  N8  UNL     1      30.526  10.063  50.205  1.00  0.00    -0.225 NA
HETATM   33  H15 UNL     1      31.461   9.725  50.459  1.00  0.00     0.136 HD
HETATM   34  H16 UNL     1      29.835   9.626  50.862  1.00  0.00     0.136 HD
ENDBRANCH  29  32
ENDBRANCH  26  29
ENDBRANCH  21  23
ENDBRANCH  17  21
TORSDOF 4
ENDMDL
MODEL 2
REMARK VINA RESULT:      -8.4      5.568      7.722
REMARK  4 active torsions:
REMARK  status: ('A' for Active; 'I' for Inactive)
REMARK    1  A    between atoms: C10_17  and  N7_18 
REMARK    2  A    between atoms: N7_18  and  C11_19 
REMARK    3  A    between atoms: C14_22  and  S2_23 
REMARK    4  A    between atoms: S2_23  and  N8_24 
ROOT
HETATM    1  N1  UNL     1      21.320   4.661  48.573  1.00  0.00    -0.004 N 
HETATM    2  C1  UNL     1      22.372   4.315  49.411  1.00  0.00     0.234 A 
HETATM    3  C2  UNL     1      21.966   3.189  50.014  1.00  0.00     0.091 A 
HETATM    4  S1  UNL     1      20.347   3.083  49.200  1.00  0.00     0.039 SA
HETATM    5  C3  UNL     1      19.623   1.466  49.600  1.00  0.00     0.070 C 
HETATM    6  C4  UNL     1      19.166   0.783  50.634  1.00  0.00     0.043 C 
HETATM    7  C5  UNL     1      18.634  -0.063  51.732  1.00  0.00     0.101 C 
HETATM    8  N2  UNL     1      17.437  -0.267  51.328  1.00  0.00    -0.256 NA
HETATM    9  C6  UNL     1      16.449  -1.055  52.036  1.00  0.00     0.420 C 
HETATM   10  N3  UNL     1      16.814  -1.322  53.379  1.00  0.00     0.121 N 
HETATM   11  C7  UNL     1      17.964  -2.168  53.571  1.00  0.00     0.422 C 
HETATM   12  N4  UNL     1      19.189  -1.363  53.655  1.00  0.00    -0.239 NA
HETATM   13  C8  UNL     1      19.540  -0.408  52.863  1.00  0.00     0.176 C 
HETATM   14  N5  UNL     1      20.664   0.440  52.859  1.00  0.00    -0.220 NA
HETATM   15  C9  UNL     1      21.480   0.408  51.848  1.00  0.00     0.237 C 
HETATM   16  N6  UNL     1      22.639   1.239  51.759  1.00  0.00    -0.223 NA
HETATM   17  C10 UNL     1      22.642   2.292  50.982  1.00  0.00     0.148 C 
HETATM   18  H1  UNL     1      20.383   4.973  48.259  1.00  0.00     0.298 HD
HETATM   19  H2  UNL     1      21.147   4.712  47.523  1.00  0.00     0.298 HD
HETATM   20  H8  UNL     1      16.956  -0.412  53.908  1.00  0.00     0.320 HD
ENDROOT
BRANCH  17  21
HETATM   21  N7  UNL     1      23.964   2.848  51.112  1.00  0.00    -0.340 N 
HETATM   22  H12 UNL     1      24.414   3.659  50.588  1.00  0.00     0.167 HD
BRANCH  21  23
HETATM   23  C11 UNL     1      24.995   2.411  52.010  1.00  0.00     0.033 A 
HETATM   24  C12 UNL     1      26.042   1.825  51.292  1.00  0.00     0.031 A 
HETATM   25  C13 UNL     1      27.171   1.324  51.900  1.00  0.00     0.027 A 
HETATM   26  C14 UNL     1      27.241   1.421  53.287  1.00  0.00     0.074 A 
HETATM   27  C15 UNL     1      26.218   1.997  54.012  1.00  0.00     0.027 A 
HETATM   28  C16 UNL     1      25.087   2.496  53.386  1.00  0.00     0.031 A 
BRANCH  26  29
HETATM   29  S2  UNL     1      28.623   0.817  54.158  1.00  0.00     0.239 S 
HETATM   30  O1  UNL     1      28.144  -0.071  55.294  1.00  0.00    -0.206 OA
HETATM   31  O2  UNL     1      29.485   0.002  53.200  1.00  0.00    -0.206 OA
BRANCH  29  32
HETATM   32  N8  UNL     1      29.506   2.161  54.779  1.00  0.00    -0.225 NA
HETATM   33  H15 UNL     1      29.260   2.314  55.763  1.00  0.00     0.136 HD
HETATM   34  H16 UNL     1      29.209   3.007  54.235  1.00  0.00     0.136 HD
ENDBRANCH  29  32
ENDBRANCH  26  29
ENDBRANCH  21  23
ENDBRANCH  17  21
TORSDOF 4
ENDMDL
MODEL 3
REMARK VINA RESULT:      -8.3      5.965      7.384
REMARK  4 active torsions:
REMARK  status: ('A' for Active; 'I' for Inactive)
REMARK    1  A    between atoms: C10_17  and  N7_18 
REMARK    2  A    between atoms: N7_18  and  C11_19 
REMARK    3  A    between atoms: C14_22  and  S2_23 
REMARK    4  A    between atoms: S2_23  and  N8_24 
ROOT
HETATM    1  N1  UNL     1      20.395  -1.156  54.325  1.00  0.00    -0.004 N 
HETATM    2  C1  UNL     1      20.241   0.107  53.768  1.00  0.00     0.234 A 
HETATM    3  C2  UNL     1      21.491   0.515  53.505  1.00  0.00     0.091 A 
HETATM    4  S1  UNL     1      22.333  -0.971  54.121  1.00  0.00     0.039 SA
HETATM    5  C3  UNL     1      24.082  -0.861  53.646  1.00  0.00     0.070 C 
HETATM    6  C4  UNL     1      25.158  -0.131  53.883  1.00  0.00     0.043 C 
HETATM    7  C5  UNL     1      26.418   0.628  54.083  1.00  0.00     0.101 C 
HETATM    8  N2  UNL     1      27.189  -0.289  54.533  1.00  0.00    -0.256 NA
HETATM    9  C6  UNL     1      28.577  -0.094  54.902  1.00  0.00     0.420 C 
HETATM   10  N3  UNL     1      28.928   1.272  55.029  1.00  0.00     0.121 N 
HETATM   11  C7  UNL     1      28.899   2.053  53.818  1.00  0.00     0.422 C 
HETATM   12  N4  UNL     1      27.578   2.663  53.628  1.00  0.00    -0.239 NA
HETATM   13  C8  UNL     1      26.435   2.076  53.735  1.00  0.00     0.176 C 
HETATM   14  N5  UNL     1      25.119   2.557  53.601  1.00  0.00    -0.220 NA
HETATM   15  C9  UNL     1      24.356   2.071  52.669  1.00  0.00     0.237 C 
HETATM   16  N6  UNL     1      23.007   2.496  52.468  1.00  0.00    -0.223 NA
HETATM   17  C10 UNL     1      22.010   1.747  52.865  1.00  0.00     0.148 C 
HETATM   18  H1  UNL     1      20.652  -1.903  54.995  1.00  0.00     0.298 HD
HETATM   19  H2  UNL     1      20.168  -2.160  54.049  1.00  0.00     0.298 HD
HETATM   20  H8  UNL     1      28.319   1.742  55.763  1.00  0.00     0.320 HD
ENDROOT
BRANCH  17  21
HETATM   21  N7  UNL     1      20.825   2.461  52.464  1.00  0.00    -0.340 N 
HETATM   22  H12 UNL     1      19.972   2.738  53.039  1.00  0.00     0.167 HD
BRANCH  21  23
HETATM   23  C11 UNL     1      20.531   2.971  51.155  1.00  0.00     0.033 A 
HETATM   24  C12 UNL     1      20.143   1.929  50.308  1.00  0.00     0.031 A 
HETATM   25  C13 UNL     1      19.793   2.131  48.992  1.00  0.00     0.027 A 
HETATM   26  C14 UNL     1      19.838   3.439  48.518  1.00  0.00     0.074 A 
HETATM   27  C15 UNL     1      20.218   4.481  49.339  1.00  0.00     0.027 A 
HETATM   28  C16 UNL     1      20.569   4.261  50.661  1.00  0.00     0.031 A 
BRANCH  26  29
HETATM   29  S2  UNL     1      19.418   3.808  46.868  1.00  0.00     0.239 S 
HETATM   30  O1  UNL     1      18.888   5.231  46.797  1.00  0.00    -0.206 OA
HETATM   31  O2  UNL     1      20.670   3.686  46.007  1.00  0.00    -0.206 OA
BRANCH  29  32
HETATM   32  N8  UNL     1      18.211   2.693  46.350  1.00  0.00    -0.225 NA
HETATM   33  H15 UNL     1      18.587   1.738  46.372  1.00  0.00     0.136 HD
HETATM   34  H16 UNL     1      17.978   2.926  45.355  1.00  0.00     0.136 HD
ENDBRANCH  29  32
ENDBRANCH  26  29
ENDBRANCH  21  23
ENDBRANCH  17  21
TORSDOF 4
ENDMDL
MODEL 4
REMARK VINA RESULT:      -8.1      8.179     11.394
REMARK  4 active torsions:
REMARK  status: ('A' for Active; 'I' for Inactive)
REMARK    1  A    between atoms: C10_17  and  N7_18 
REMARK    2  A    between atoms: N7_18  and  C11_19 
REMARK    3  A    between atoms: C14_22  and  S2_23 
REMARK    4  A    between atoms: S2_23  and  N8_24 
ROOT
HETATM    1  N1  UNL     1      20.147   1.628  48.731  1.00  0.00    -0.004 N 
HETATM    2  C1  UNL     1      19.420   1.138  49.808  1.00  0.00     0.234 A 
HETATM    3  C2  UNL     1      20.319   1.022  50.796  1.00  0.00     0.091 A 
HETATM    4  S1  UNL     1      21.751   1.618  49.853  1.00  0.00     0.039 SA
HETATM    5  C3  UNL     1      23.127   1.856  51.013  1.00  0.00     0.070 C 
HETATM    6  C4  UNL     1      23.920   1.160  51.809  1.00  0.00     0.043 C 
HETATM    7  C5  UNL     1      24.855   0.468  52.731  1.00  0.00     0.101 C 
HETATM    8  N2  UNL     1      25.984   0.783  52.218  1.00  0.00    -0.256 NA
HETATM    9  C6  UNL     1      27.272   0.366  52.735  1.00  0.00     0.420 C 
HETATM   10  N3  UNL     1      27.174  -0.690  53.675  1.00  0.00     0.121 N 
HETATM   11  C7  UNL     1      26.516  -0.378  54.918  1.00  0.00     0.422 C 
HETATM   12  N4  UNL     1      25.077  -0.655  54.825  1.00  0.00    -0.239 NA
HETATM   13  C8  UNL     1      24.285  -0.304  53.870  1.00  0.00     0.176 C 
HETATM   14  N5  UNL     1      22.911  -0.530  53.663  1.00  0.00    -0.220 NA
HETATM   15  C9  UNL     1      22.102   0.485  53.600  1.00  0.00     0.237 C 
HETATM   16  N6  UNL     1      20.697   0.346  53.385  1.00  0.00    -0.223 NA
HETATM   17  C10 UNL     1      20.177   0.603  52.211  1.00  0.00     0.148 C 
HETATM   18  H1  UNL     1      20.829   1.675  47.953  1.00  0.00     0.298 HD
HETATM   19  H2  UNL     1      20.189   2.533  48.170  1.00  0.00     0.298 HD
HETATM   20  H8  UNL     1      26.704  -1.533  53.231  1.00  0.00     0.320 HD
ENDROOT
BRANCH  17  21
HETATM   21  N7  UNL     1      18.761   0.401  52.378  1.00  0.00    -0.340 N 
HETATM   22  H12 UNL     1      17.961   1.101  52.299  1.00  0.00     0.167 HD
BRANCH  21  23
HETATM   23  C11 UNL     1      18.101  -0.833  52.697  1.00  0.00     0.033 A 
HETATM   24  C12 UNL     1      16.856  -0.890  52.063  1.00  0.00     0.031 A 
HETATM   25  C13 UNL     1      16.009  -1.968  52.185  1.00  0.00     0.027 A 
HETATM   26  C14 UNL     1      16.440  -3.027  52.980  1.00  0.00     0.074 A 
HETATM   27  C15 UNL     1      17.665  -2.988  53.613  1.00  0.00     0.027 A 
HETATM   28  C16 UNL     1      18.507  -1.895  53.480  1.00  0.00     0.031 A 
BRANCH  26  29
HETATM   29  S2  UNL     1      15.446  -4.440  53.205  1.00  0.00     0.239 S 
HETATM   30  O1  UNL     1      15.025  -4.972  51.845  1.00  0.00    -0.206 OA
HETATM   31  O2  UNL     1      16.263  -5.499  53.937  1.00  0.00    -0.206 OA
BRANCH  29  32
HETATM   32  N8  UNL     1      14.062  -3.991  54.128  1.00  0.00    -0.225 NA
HETATM   33  H15 UNL     1      13.209  -4.171  53.587  1.00  0.00     0.136 HD
HETATM   34  H16 UNL     1      14.124  -2.959  54.301  1.00  0.00     0.136 HD
ENDBRANCH  29  32
ENDBRANCH  26  29
ENDBRANCH  21  23
ENDBRANCH  17  21
TORSDOF 4
ENDMDL
MODEL 5
REMARK VINA RESULT:      -8.0      5.738      8.480
REMARK  4 active torsions:
REMARK  status: ('A' for Active; 'I' for Inactive)
REMARK    1  A    between atoms: C10_17  and  N7_18 
REMARK    2  A    between atoms: N7_18  and  C11_19 
REMARK    3  A    between atoms: C14_22  and  S2_23 
REMARK    4  A    between atoms: S2_23  and  N8_24 
ROOT
HETATM    1  N1  UNL     1      19.375  -0.881  53.820  1.00  0.00    -0.004 N 
HETATM    2  C1  UNL     1      20.756  -0.865  53.666  1.00  0.00     0.234 A 
HETATM    3  C2  UNL     1      20.973   0.004  52.669  1.00  0.00     0.091 A 
HETATM    4  S1  UNL     1      19.233   0.422  52.366  1.00  0.00     0.039 SA
HETATM    5  C3  UNL     1      19.185   1.830  51.221  1.00  0.00     0.070 C 
HETATM    6  C4  UNL     1      19.494   2.139  49.974  1.00  0.00     0.043 C 
HETATM    7  C5  UNL     1      19.809   2.583  48.593  1.00  0.00     0.101 C 
HETATM    8  N2  UNL     1      18.652   2.943  48.180  1.00  0.00    -0.256 NA
HETATM    9  C6  UNL     1      18.373   3.476  46.862  1.00  0.00     0.420 C 
HETATM   10  N3  UNL     1      19.434   3.267  45.947  1.00  0.00     0.121 N 
HETATM   11  C7  UNL     1      20.662   3.967  46.223  1.00  0.00     0.422 C 
HETATM   12  N4  UNL     1      21.548   3.147  47.059  1.00  0.00    -0.239 NA
HETATM   13  C8  UNL     1      21.222   2.503  48.127  1.00  0.00     0.176 C 
HETATM   14  N5  UNL     1      21.969   1.675  48.987  1.00  0.00    -0.220 NA
HETATM   15  C9  UNL     1      22.119   2.021  50.230  1.00  0.00     0.237 C 
HETATM   16  N6  UNL     1      22.854   1.237  51.171  1.00  0.00    -0.223 NA
HETATM   17  C10 UNL     1      22.227   0.505  52.057  1.00  0.00     0.148 C 
HETATM   18  H1  UNL     1      18.372  -1.044  53.619  1.00  0.00     0.298 HD
HETATM   19  H2  UNL     1      18.672  -0.573  54.558  1.00  0.00     0.298 HD
HETATM   20  H8  UNL     1      19.637   2.228  45.851  1.00  0.00     0.320 HD
ENDROOT
BRANCH  17  21
HETATM   21  N7  UNL     1      23.270  -0.098  52.847  1.00  0.00    -0.340 N 
HETATM   22  H12 UNL     1      23.282  -1.036  53.352  1.00  0.00     0.167 HD
BRANCH  21  23
HETATM   23  C11 UNL     1      24.563   0.456  53.130  1.00  0.00     0.033 A 
HETATM   24  C12 UNL     1      25.545  -0.533  53.020  1.00  0.00     0.031 A 
HETATM   25  C13 UNL     1      26.882  -0.279  53.230  1.00  0.00     0.027 A 
HETATM   26  C14 UNL     1      27.235   1.025  53.564  1.00  0.00     0.074 A 
HETATM   27  C15 UNL     1      26.280   2.014  53.676  1.00  0.00     0.027 A 
HETATM   28  C16 UNL     1      24.938   1.744  53.463  1.00  0.00     0.031 A 
BRANCH  26  29
HETATM   29  S2  UNL     1      28.898   1.456  53.853  1.00  0.00     0.239 S 
HETATM   30  O1  UNL     1      29.177   2.810  53.221  1.00  0.00    -0.206 OA
HETATM   31  O2  UNL     1      29.126   1.538  55.358  1.00  0.00    -0.206 OA
BRANCH  29  32
HETATM   32  N8  UNL     1      29.905   0.247  53.150  1.00  0.00    -0.225 NA
HETATM   33  H15 UNL     1      29.325  -0.476  52.709  1.00  0.00     0.136 HD
HETATM   34  H16 UNL     1      30.444  -0.202  53.930  1.00  0.00     0.136 HD
ENDBRANCH  29  32
ENDBRANCH  26  29
ENDBRANCH  21  23
ENDBRANCH  17  21
TORSDOF 4
ENDMDL
MODEL 6
REMARK VINA RESULT:      -7.9      7.219      9.983
REMARK  4 active torsions:
REMARK  status: ('A' for Active; 'I' for Inactive)
REMARK    1  A    between atoms: C10_17  and  N7_18 
REMARK    2  A    between atoms: N7_18  and  C11_19 
REMARK    3  A    between atoms: C14_22  and  S2_23 
REMARK    4  A    between atoms: S2_23  and  N8_24 
ROOT
HETATM    1  N1  UNL     1      21.224   2.927  47.803  1.00  0.00    -0.004 N 
HETATM    2  C1  UNL     1      20.150   2.358  48.475  1.00  0.00     0.234 A 
HETATM    3  C2  UNL     1      20.659   1.964  49.651  1.00  0.00     0.091 A 
HETATM    4  S1  UNL     1      22.359   2.525  49.346  1.00  0.00     0.039 SA
HETATM    5  C3  UNL     1      23.282   2.387  50.903  1.00  0.00     0.070 C 
HETATM    6  C4  UNL     1      23.718   1.472  51.752  1.00  0.00     0.043 C 
HETATM    7  C5  UNL     1      24.246   0.521  52.762  1.00  0.00     0.101 C 
HETATM    8  N2  UNL     1      25.500   0.772  52.705  1.00  0.00    -0.256 NA
HETATM    9  C6  UNL     1      26.512   0.114  53.506  1.00  0.00     0.420 C 
HETATM   10  N3  UNL     1      26.038  -1.064  54.134  1.00  0.00     0.121 N 
HETATM   11  C7  UNL     1      25.025  -0.886  55.143  1.00  0.00     0.422 C 
HETATM   12  N4  UNL     1      23.685  -0.958  54.548  1.00  0.00    -0.239 NA
HETATM   13  C8  UNL     1      23.280  -0.354  53.484  1.00  0.00     0.176 C 
HETATM   14  N5  UNL     1      22.042  -0.366  52.814  1.00  0.00    -0.220 NA
HETATM   15  C9  UNL     1      21.368   0.739  52.706  1.00  0.00     0.237 C 
HETATM   16  N6  UNL     1      20.108   0.818  52.036  1.00  0.00    -0.223 NA
HETATM   17  C10 UNL     1      20.028   1.334  50.835  1.00  0.00     0.148 C 
HETATM   18  H1  UNL     1      22.128   3.017  47.306  1.00  0.00     0.298 HD
HETATM   19  H2  UNL     1      21.509   3.901  47.478  1.00  0.00     0.298 HD
HETATM   20  H8  UNL     1      25.689  -1.755  53.405  1.00  0.00     0.320 HD
ENDROOT
BRANCH  17  21
HETATM   21  N7  UNL     1      18.626   1.288  50.504  1.00  0.00    -0.340 N 
HETATM   22  H12 UNL     1      18.123   0.710  49.763  1.00  0.00     0.167 HD
BRANCH  21  23
HETATM   23  C11 UNL     1      17.572   2.037  51.125  1.00  0.00     0.033 A 
HETATM   24  C12 UNL     1      16.501   1.194  51.436  1.00  0.00     0.031 A 
HETATM   25  C13 UNL     1      15.354   1.644  52.049  1.00  0.00     0.027 A 
HETATM   26  C14 UNL     1      15.290   3.001  52.358  1.00  0.00     0.074 A 
HETATM   27  C15 UNL     1      16.337   3.848  52.059  1.00  0.00     0.027 A 
HETATM   28  C16 UNL     1      17.485   3.379  51.441  1.00  0.00     0.031 A 
BRANCH  26  29
HETATM   29  S2  UNL     1      13.884   3.677  53.133  1.00  0.00     0.239 S 
HETATM   30  O1  UNL     1      13.089   4.471  52.109  1.00  0.00    -0.206 OA
HETATM   31  O2  UNL     1      13.029   2.537  53.672  1.00  0.00    -0.206 OA
BRANCH  29  32
HETATM   32  N8  UNL     1      14.408   4.704  54.413  1.00  0.00    -0.225 NA
HETATM   33  H15 UNL     1      13.939   5.614  54.344  1.00  0.00     0.136 HD
HETATM   34  H16 UNL     1      15.437   4.860  54.286  1.00  0.00     0.136 HD
ENDBRANCH  29  32
ENDBRANCH  26  29
ENDBRANCH  21  23
ENDBRANCH  17  21
TORSDOF 4
ENDMDL
MODEL 7
REMARK VINA RESULT:      -7.8      5.020      8.619
REMARK  4 active torsions:
REMARK  status: ('A' for Active; 'I' for Inactive)
REMARK    1  A    between atoms: C10_17  and  N7_18 
REMARK    2  A    between atoms: N7_18  and  C11_19 
REMARK    3  A    between atoms: C14_22  and  S2_23 
REMARK    4  A    between atoms: S2_23  and  N8_24 
ROOT
HETATM    1  N1  UNL     1      23.775   5.856  52.655  1.00  0.00    -0.004 N 
HETATM    2  C1  UNL     1      23.683   4.475  52.529  1.00  0.00     0.234 A 
HETATM    3  C2  UNL     1      23.463   4.270  51.223  1.00  0.00     0.091 A 
HETATM    4  S1  UNL     1      23.471   6.016  50.728  1.00  0.00     0.039 SA
HETATM    5  C3  UNL     1      23.473   6.085  48.914  1.00  0.00     0.070 C 
HETATM    6  C4  UNL     1      22.707   5.778  47.882  1.00  0.00     0.043 C 
HETATM    7  C5  UNL     1      21.921   5.468  46.661  1.00  0.00     0.101 C 
HETATM    8  N2  UNL     1      21.815   6.630  46.135  1.00  0.00    -0.256 NA
HETATM    9  C6  UNL     1      21.127   6.915  44.892  1.00  0.00     0.420 C 
HETATM   10  N3  UNL     1      20.299   5.848  44.463  1.00  0.00     0.121 N 
HETATM   11  C7  UNL     1      20.971   4.632  44.081  1.00  0.00     0.422 C 
HETATM   12  N4  UNL     1      21.111   3.735  45.235  1.00  0.00    -0.239 NA
HETATM   13  C8  UNL     1      21.528   4.053  46.413  1.00  0.00     0.176 C 
HETATM   14  N5  UNL     1      21.679   3.294  47.589  1.00  0.00    -0.220 NA
HETATM   15  C9  UNL     1      22.863   3.152  48.105  1.00  0.00     0.237 C 
HETATM   16  N6  UNL     1      23.105   2.406  49.299  1.00  0.00    -0.223 NA
HETATM   17  C10 UNL     1      23.321   3.023  50.433  1.00  0.00     0.148 C 
HETATM   18  H1  UNL     1      23.504   6.856  52.666  1.00  0.00     0.298 HD
HETATM   19  H2  UNL     1      24.533   6.566  52.891  1.00  0.00     0.298 HD
HETATM   20  H8  UNL     1      19.570   5.628  45.204  1.00  0.00     0.320 HD
ENDROOT
BRANCH  17  21
HETATM   21  N7  UNL     1      23.564   1.972  51.388  1.00  0.00    -0.340 N 
HETATM   22  H12 UNL     1      22.870   1.349  51.903  1.00  0.00     0.167 HD
BRANCH  21  23
HETATM   23  C11 UNL     1      24.842   1.524  51.866  1.00  0.00     0.033 A 
HETATM   24  C12 UNL     1      24.672   0.626  52.923  1.00  0.00     0.031 A 
HETATM   25  C13 UNL     1      25.731   0.029  53.569  1.00  0.00     0.027 A 
HETATM   26  C14 UNL     1      27.009   0.355  53.125  1.00  0.00     0.074 A 
HETATM   27  C15 UNL     1      27.196   1.239  52.083  1.00  0.00     0.027 A 
HETATM   28  C16 UNL     1      26.120   1.833  51.444  1.00  0.00     0.031 A 
BRANCH  26  29
HETATM   29  S2  UNL     1      28.420  -0.341  53.873  1.00  0.00     0.239 S 
HETATM   30  O1  UNL     1      28.261  -0.283  55.384  1.00  0.00    -0.206 OA
HETATM   31  O2  UNL     1      28.542  -1.793  53.427  1.00  0.00    -0.206 OA
BRANCH  29  32
HETATM   32  N8  UNL     1      29.801   0.565  53.381  1.00  0.00    -0.225 NA
HETATM   33  H15 UNL     1      30.653   0.139  53.765  1.00  0.00     0.136 HD
HETATM   34  H16 UNL     1      29.706   1.525  53.793  1.00  0.00     0.136 HD
ENDBRANCH  29  32
ENDBRANCH  26  29
ENDBRANCH  21  23
ENDBRANCH  17  21
TORSDOF 4
ENDMDL
MODEL 8
REMARK VINA RESULT:      -7.8      6.008      9.438
REMARK  4 active torsions:
REMARK  status: ('A' for Active; 'I' for Inactive)
REMARK    1  A    between atoms: C10_17  and  N7_18 
REMARK    2  A    between atoms: N7_18  and  C11_19 
REMARK    3  A    between atoms: C14_22  and  S2_23 
REMARK    4  A    between atoms: S2_23  and  N8_24 
ROOT
HETATM    1  N1  UNL     1      22.401   2.917  47.458  1.00  0.00    -0.004 N 
HETATM    2  C1  UNL     1      22.823   3.170  48.757  1.00  0.00     0.234 A 
HETATM    3  C2  UNL     1      21.709   3.083  49.496  1.00  0.00     0.091 A 
HETATM    4  S1  UNL     1      20.575   2.702  48.130  1.00  0.00     0.039 SA
HETATM    5  C3  UNL     1      18.972   2.236  48.845  1.00  0.00     0.070 C 
HETATM    6  C4  UNL     1      17.980   2.755  49.546  1.00  0.00     0.043 C 
HETATM    7  C5  UNL     1      16.819   3.246  50.330  1.00  0.00     0.101 C 
HETATM    8  N2  UNL     1      15.862   3.050  49.504  1.00  0.00    -0.256 NA
HETATM    9  C6  UNL     1      14.470   3.356  49.762  1.00  0.00     0.420 C 
HETATM   10  N3  UNL     1      14.290   4.194  50.891  1.00  0.00     0.121 N 
HETATM   11  C7  UNL     1      14.643   3.629  52.168  1.00  0.00     0.422 C 
HETATM   12  N4  UNL     1      16.048   3.911  52.488  1.00  0.00    -0.239 NA
HETATM   13  C8  UNL     1      17.062   3.762  51.707  1.00  0.00     0.176 C 
HETATM   14  N5  UNL     1      18.434   4.020  51.892  1.00  0.00    -0.220 NA
HETATM   15  C9  UNL     1      19.280   3.036  51.827  1.00  0.00     0.237 C 
HETATM   16  N6  UNL     1      20.688   3.210  51.995  1.00  0.00    -0.223 NA
HETATM   17  C10 UNL     1      21.486   3.199  50.958  1.00  0.00     0.148 C 
HETATM   18  H1  UNL     1      21.928   3.036  46.544  1.00  0.00     0.298 HD
HETATM   19  H2  UNL     1      22.537   2.148  46.733  1.00  0.00     0.298 HD
HETATM   20  H8  UNL     1      14.814   5.109  50.756  1.00  0.00     0.320 HD
ENDROOT
BRANCH  17  21
HETATM   21  N7  UNL     1      22.809   3.355  51.504  1.00  0.00    -0.340 N 
HETATM   22  H12 UNL     1      23.440   4.214  51.518  1.00  0.00     0.167 HD
BRANCH  21  23
HETATM   23  C11 UNL     1      23.587   2.351  52.171  1.00  0.00     0.033 A 
HETATM   24  C12 UNL     1      24.648   2.944  52.863  1.00  0.00     0.031 A 
HETATM   25  C13 UNL     1      25.553   2.216  53.601  1.00  0.00     0.027 A 
HETATM   26  C14 UNL     1      25.377   0.835  53.639  1.00  0.00     0.074 A 
HETATM   27  C15 UNL     1      24.336   0.233  52.964  1.00  0.00     0.027 A 
HETATM   28  C16 UNL     1      23.433   0.979  52.224  1.00  0.00     0.031 A 
BRANCH  26  29
HETATM   29  S2  UNL     1      26.466  -0.181  54.542  1.00  0.00     0.239 S 
HETATM   30  O1  UNL     1      27.042  -1.238  53.613  1.00  0.00    -0.206 OA
HETATM   31  O2  UNL     1      27.593   0.683  55.095  1.00  0.00    -0.206 OA
BRANCH  29  32
HETATM   32  N8  UNL     1      25.584  -0.925  55.821  1.00  0.00    -0.225 NA
HETATM   33  H15 UNL     1      24.697  -1.297  55.463  1.00  0.00     0.136 HD
HETATM   34  H16 UNL     1      25.361  -0.177  56.522  1.00  0.00     0.136 HD
ENDBRANCH  29  32
ENDBRANCH  26  29
ENDBRANCH  21  23
ENDBRANCH  17  21
TORSDOF 4
ENDMDL
MODEL 9
REMARK VINA RESULT:      -7.7      4.877      6.861
REMARK  4 active torsions:
REMARK  status: ('A' for Active; 'I' for Inactive)
REMARK    1  A    between atoms: C10_17  and  N7_18 
REMARK    2  A    between atoms: N7_18  and  C11_19 
REMARK    3  A    between atoms: C14_22  and  S2_23 
REMARK    4  A    between atoms: S2_23  and  N8_24 
ROOT
HETATM    1  N1  UNL     1      24.643  -0.847  54.632  1.00  0.00    -0.004 N 
HETATM    2  C1  UNL     1      24.908  -0.052  53.525  1.00  0.00     0.234 A 
HETATM    3  C2  UNL     1      23.699   0.289  53.057  1.00  0.00     0.091 A 
HETATM    4  S1  UNL     1      22.729  -0.607  54.302  1.00  0.00     0.039 SA
HETATM    5  C3  UNL     1      20.990  -0.116  54.118  1.00  0.00     0.070 C 
HETATM    6  C4  UNL     1      19.994  -0.203  53.254  1.00  0.00     0.043 C 
HETATM    7  C5  UNL     1      18.817  -0.246  52.351  1.00  0.00     0.101 C 
HETATM    8  N2  UNL     1      17.969  -0.867  53.081  1.00  0.00    -0.256 NA
HETATM    9  C6  UNL     1      16.613  -1.188  52.683  1.00  0.00     0.420 C 
HETATM   10  N3  UNL     1      16.397  -1.041  51.290  1.00  0.00     0.121 N 
HETATM   11  C7  UNL     1      16.480   0.300  50.770  1.00  0.00     0.422 C 
HETATM   12  N4  UNL     1      17.850   0.605  50.342  1.00  0.00    -0.239 NA
HETATM   13  C8  UNL     1      18.933   0.381  51.005  1.00  0.00     0.176 C 
HETATM   14  N5  UNL     1      20.287   0.605  50.690  1.00  0.00    -0.220 NA
HETATM   15  C9  UNL     1      20.983   1.422  51.423  1.00  0.00     0.237 C 
HETATM   16  N6  UNL     1      22.363   1.700  51.180  1.00  0.00    -0.223 NA
HETATM   17  C10 UNL     1      23.290   1.161  51.930  1.00  0.00     0.148 C 
HETATM   18  H1  UNL     1      24.327  -1.651  55.204  1.00  0.00     0.298 HD
HETATM   19  H2  UNL     1      24.768  -0.776  55.688  1.00  0.00     0.298 HD
HETATM   20  H8  UNL     1      17.061  -1.669  50.748  1.00  0.00     0.320 HD
ENDROOT
BRANCH  17  21
HETATM   21  N7  UNL     1      24.531   1.693  51.428  1.00  0.00    -0.340 N 
HETATM   22  H12 UNL     1      25.466   1.205  51.275  1.00  0.00     0.167 HD
BRANCH  21  23
HETATM   23  C11 UNL     1      24.781   3.043  51.012  1.00  0.00     0.033 A 
HETATM   24  C12 UNL     1      25.806   3.072  50.061  1.00  0.00     0.031 A 
HETATM   25  C13 UNL     1      26.248   4.238  49.479  1.00  0.00     0.027 A 
HETATM   26  C14 UNL     1      25.628   5.420  49.877  1.00  0.00     0.074 A 
HETATM   27  C15 UNL     1      24.615   5.411  50.813  1.00  0.00     0.027 A 
HETATM   28  C16 UNL     1      24.181   4.229  51.390  1.00  0.00     0.031 A 
BRANCH  26  29
HETATM   29  S2  UNL     1      26.111   6.953  49.207  1.00  0.00     0.239 S 
HETATM   30  O1  UNL     1      25.464   7.124  47.842  1.00  0.00    -0.206 OA
HETATM   31  O2  UNL     1      25.638   8.063  50.138  1.00  0.00    -0.206 OA
BRANCH  29  32
HETATM   32  N8  UNL     1      27.828   6.969  49.063  1.00  0.00    -0.225 NA
HETATM   33  H15 UNL     1      28.208   6.052  49.323  1.00  0.00     0.136 HD
HETATM   34  H16 UNL     1      28.191   7.676  49.747  1.00  0.00     0.136 HD
ENDBRANCH  29  32
ENDBRANCH  26  29
ENDBRANCH  21  23
ENDBRANCH  17  21
TORSDOF 4
ENDMDL
