MODEL 1
REMARK VINA RESULT:      -8.6      0.000      0.000
REMARK  6 active torsions:
REMARK  status: ('A' for Active; 'I' for Inactive)
REMARK    1  A    between atoms: N1_2  and  C3_4 
REMARK    2  A    between atoms: C3_4  and  C4_5 
REMARK    3  A    between atoms: C5_6  and  C6_7 
REMARK       I    between atoms: C6_7  and  N2_9 
REMARK    4  A    between atoms: N2_9  and  C7_10 
REMARK    5  A    between atoms: C14_19  and  N5_20 
REMARK    6  A    between atoms: N5_20  and  C15_21 
ROOT
HETATM    1  C7  UNL     1      24.579   3.121  49.816  1.00  0.00     0.046 C 
HETATM    2  C8  UNL     1      23.439   3.413  49.209  1.00  0.00     0.002 C 
HETATM    3  C9  UNL     1      22.314   2.872  49.598  1.00  0.00     0.019 C 
HETATM    4  C10 UNL     1      22.558   1.538  50.142  1.00  0.00     0.166 C 
HETATM    5  N3  UNL     1      21.364   0.821  50.501  1.00  0.00    -0.286 NA
HETATM    6  C11 UNL     1      21.149   0.288  51.670  1.00  0.00     0.136 C 
HETATM    7  C12 UNL     1      22.101   0.362  52.772  1.00  0.00     0.089 C 
HETATM    8  C13 UNL     1      21.851  -0.245  54.071  1.00  0.00     0.103 C 
HETATM    9  N4  UNL     1      21.650  -0.723  55.099  1.00  0.00    -0.191 NA
HETATM   10  C14 UNL     1      23.263   0.988  52.661  1.00  0.00     0.064 C 
HETATM   11  C21 UNL     1      23.416   1.637  51.362  1.00  0.00     0.001 C 
HETATM   12  C22 UNL     1      24.432   2.468  51.124  1.00  0.00     0.042 C 
ENDROOT
BRANCH  10  13
HETATM   13  N5  UNL     1      24.287   1.137  53.635  1.00  0.00    -0.354 N 
HETATM   14  H15 UNL     1      24.128   1.766  54.464  1.00  0.00     0.166 HD
BRANCH  13  15
HETATM   15  C15 UNL     1      25.495   0.415  53.438  1.00  0.00     0.033 A 
HETATM   16  C16 UNL     1      25.433  -0.840  52.917  1.00  0.00     0.029 A 
HETATM   17  C17 UNL     1      26.600  -1.579  52.706  1.00  0.00     0.004 A 
HETATM   18  C18 UNL     1      27.806  -1.020  53.032  1.00  0.00     0.019 A 
HETATM   19  C19 UNL     1      27.825   0.265  53.563  1.00  0.00     0.013 A 
HETATM   20 BR1  UNL     1      29.496   1.078  54.031  1.00  0.00    -0.051 Br
HETATM   21  C20 UNL     1      26.681   1.025  53.783  1.00  0.00     0.048 A 
ENDBRANCH  13  15
ENDBRANCH  10  13
BRANCH   1  22
HETATM   22  N2  UNL     1      25.844   3.407  49.245  1.00  0.00    -0.323 N 
HETATM   23  C6  UNL     1      26.312   4.726  49.308  1.00  0.00     0.245 C 
HETATM   24  O1  UNL     1      25.711   5.678  49.827  1.00  0.00    -0.268 OA
HETATM   25  H11 UNL     1      26.359   2.612  48.807  1.00  0.00     0.169 HD
BRANCH  23  26
HETATM   26  C5  UNL     1      27.625   5.060  48.723  1.00  0.00     0.072 C 
HETATM   27  C4  UNL     1      27.857   6.284  48.226  1.00  0.00     0.008 C 
BRANCH  27  28
HETATM   28  C3  UNL     1      29.196   6.566  47.648  1.00  0.00     0.299 C 
BRANCH  28  29
HETATM   29  N1  UNL     1      30.183   6.649  48.669  1.00  0.00     0.083 N 
HETATM   30  C1  UNL     1      30.648   7.957  48.983  1.00  0.00     0.309 C 
HETATM   31  C2  UNL     1      31.275   5.762  48.386  1.00  0.00     0.309 C 
ENDBRANCH  28  29
ENDBRANCH  27  28
ENDBRANCH  23  26
ENDBRANCH   1  22
TORSDOF 6
ENDMDL
MODEL 2
REMARK VINA RESULT:      -8.2      1.461      1.868
REMARK  6 active torsions:
REMARK  status: ('A' for Active; 'I' for Inactive)
REMARK    1  A    between atoms: N1_2  and  C3_4 
REMARK    2  A    between atoms: C3_4  and  C4_5 
REMARK    3  A    between atoms: C5_6  and  C6_7 
REMARK       I    between atoms: C6_7  and  N2_9 
REMARK    4  A    between atoms: N2_9  and  C7_10 
REMARK    5  A    between atoms: C14_19  and  N5_20 
REMARK    6  A    between atoms: N5_20  and  C15_21 
ROOT
HETATM    1  C7  UNL     1      24.770   4.746  49.562  1.00  0.00     0.046 C 
HETATM    2  C8  UNL     1      23.672   4.844  48.829  1.00  0.00     0.002 C 
HETATM    3  C9  UNL     1      22.666   4.031  49.016  1.00  0.00     0.019 C 
HETATM    4  C10 UNL     1      23.147   2.733  49.482  1.00  0.00     0.166 C 
HETATM    5  N3  UNL     1      22.118   1.737  49.617  1.00  0.00    -0.286 NA
HETATM    6  C11 UNL     1      21.898   1.048  50.699  1.00  0.00     0.136 C 
HETATM    7  C12 UNL     1      22.671   1.210  51.925  1.00  0.00     0.089 C 
HETATM    8  C13 UNL     1      22.419   0.428  53.126  1.00  0.00     0.103 C 
HETATM    9  N4  UNL     1      22.216  -0.190  54.076  1.00  0.00    -0.191 NA
HETATM   10  C14 UNL     1      23.662   2.085  52.024  1.00  0.00     0.064 C 
HETATM   11  C21 UNL     1      23.811   2.886  50.814  1.00  0.00     0.001 C 
HETATM   12  C22 UNL     1      24.627   3.942  50.783  1.00  0.00     0.042 C 
ENDROOT
BRANCH  10  13
HETATM   13  N5  UNL     1      24.502   2.350  53.139  1.00  0.00    -0.354 N 
HETATM   14  H15 UNL     1      24.179   3.014  53.888  1.00  0.00     0.166 HD
BRANCH  13  15
HETATM   15  C15 UNL     1      25.761   1.691  53.187  1.00  0.00     0.033 A 
HETATM   16  C16 UNL     1      26.862   2.403  53.551  1.00  0.00     0.029 A 
HETATM   17  C17 UNL     1      28.116   1.788  53.611  1.00  0.00     0.004 A 
HETATM   18  C18 UNL     1      28.218   0.460  53.298  1.00  0.00     0.019 A 
HETATM   19  C19 UNL     1      27.068  -0.230  52.931  1.00  0.00     0.013 A 
HETATM   20 BR1  UNL     1      27.175  -2.091  52.485  1.00  0.00    -0.051 Br
HETATM   21  C20 UNL     1      25.808   0.353  52.862  1.00  0.00     0.048 A 
ENDBRANCH  13  15
ENDBRANCH  10  13
BRANCH   1  22
HETATM   22  N2  UNL     1      25.992   5.363  49.195  1.00  0.00    -0.323 N 
HETATM   23  C6  UNL     1      27.101   4.541  48.959  1.00  0.00     0.245 C 
HETATM   24  O1  UNL     1      27.109   3.303  49.043  1.00  0.00    -0.268 OA
HETATM   25  H11 UNL     1      25.996   6.404  49.121  1.00  0.00     0.169 HD
BRANCH  23  26
HETATM   26  C5  UNL     1      28.389   5.149  48.577  1.00  0.00     0.072 C 
HETATM   27  C4  UNL     1      28.436   6.402  48.100  1.00  0.00     0.008 C 
BRANCH  27  28
HETATM   28  C3  UNL     1      29.759   6.965  47.730  1.00  0.00     0.299 C 
BRANCH  28  29
HETATM   29  N1  UNL     1      30.191   7.922  48.690  1.00  0.00     0.083 N 
HETATM   30  C1  UNL     1      30.228   9.275  48.250  1.00  0.00     0.309 C 
HETATM   31  C2  UNL     1      31.445   7.528  49.265  1.00  0.00     0.309 C 
ENDBRANCH  28  29
ENDBRANCH  27  28
ENDBRANCH  23  26
ENDBRANCH   1  22
TORSDOF 6
ENDMDL
MODEL 3
REMARK VINA RESULT:      -8.0      3.951      9.130
REMARK  6 active torsions:
REMARK  status: ('A' for Active; 'I' for Inactive)
REMARK    1  A    between atoms: N1_2  and  C3_4 
REMARK    2  A    between atoms: C3_4  and  C4_5 
REMARK    3  A    between atoms: C5_6  and  C6_7 
REMARK       I    between atoms: C6_7  and  N2_9 
REMARK    4  A    between atoms: N2_9  and  C7_10 
REMARK    5  A    between atoms: C14_19  and  N5_20 
REMARK    6  A    between atoms: N5_20  and  C15_21 
ROOT
HETATM    1  C7  UNL     1      21.804  -0.392  54.350  1.00  0.00     0.046 C 
HETATM    2  C8  UNL     1      22.654  -1.076  55.100  1.00  0.00     0.002 C 
HETATM    3  C9  UNL     1      23.939  -1.034  54.867  1.00  0.00     0.019 C 
HETATM    4  C10 UNL     1      24.185  -0.834  53.441  1.00  0.00     0.166 C 
HETATM    5  N3  UNL     1      25.575  -0.879  53.070  1.00  0.00    -0.286 NA
HETATM    6  C11 UNL     1      26.189   0.054  52.401  1.00  0.00     0.136 C 
HETATM    7  C12 UNL     1      25.536   1.276  51.945  1.00  0.00     0.089 C 
HETATM    8  C13 UNL     1      26.232   2.308  51.191  1.00  0.00     0.103 C 
HETATM    9  N4  UNL     1      26.786   3.124  50.596  1.00  0.00    -0.191 NA
HETATM   10  C14 UNL     1      24.258   1.528  52.189  1.00  0.00     0.064 C 
HETATM   11  C21 UNL     1      23.642   0.492  53.013  1.00  0.00     0.001 C 
HETATM   12  C22 UNL     1      22.417   0.653  53.519  1.00  0.00     0.042 C 
ENDROOT
BRANCH  10  13
HETATM   13  N5  UNL     1      23.489   2.660  51.809  1.00  0.00    -0.354 N 
HETATM   14  H15 UNL     1      23.318   3.431  52.504  1.00  0.00     0.166 HD
BRANCH  13  15
HETATM   15  C15 UNL     1      22.980   2.695  50.481  1.00  0.00     0.033 A 
HETATM   16  C16 UNL     1      22.417   1.570  49.963  1.00  0.00     0.029 A 
HETATM   17  C17 UNL     1      21.905   1.567  48.663  1.00  0.00     0.004 A 
HETATM   18  C18 UNL     1      21.979   2.714  47.920  1.00  0.00     0.019 A 
HETATM   19  C19 UNL     1      22.562   3.842  48.488  1.00  0.00     0.013 A 
HETATM   20 BR1  UNL     1      22.682   5.464  47.475  1.00  0.00    -0.051 Br
HETATM   21  C20 UNL     1      23.080   3.875  49.777  1.00  0.00     0.048 A 
ENDBRANCH  13  15
ENDBRANCH  10  13
BRANCH   1  22
HETATM   22  N2  UNL     1      20.411  -0.651  54.342  1.00  0.00    -0.323 N 
HETATM   23  C6  UNL     1      19.734  -0.579  53.118  1.00  0.00     0.245 C 
HETATM   24  O1  UNL     1      20.252  -0.305  52.025  1.00  0.00    -0.268 OA
HETATM   25  H11 UNL     1      19.966  -0.883  55.256  1.00  0.00     0.169 HD
BRANCH  23  26
HETATM   26  C5  UNL     1      18.283  -0.841  53.073  1.00  0.00     0.072 C 
HETATM   27  C4  UNL     1      17.522  -0.302  52.109  1.00  0.00     0.008 C 
BRANCH  27  28
HETATM   28  C3  UNL     1      16.067  -0.598  52.111  1.00  0.00     0.299 C 
BRANCH  28  29
HETATM   29  N1  UNL     1      15.339   0.434  52.767  1.00  0.00     0.083 N 
HETATM   30  C1  UNL     1      13.992   0.127  53.106  1.00  0.00     0.309 C 
HETATM   31  C2  UNL     1      15.423   1.659  52.025  1.00  0.00     0.309 C 
ENDBRANCH  28  29
ENDBRANCH  27  28
ENDBRANCH  23  26
ENDBRANCH   1  22
TORSDOF 6
ENDMDL
MODEL 4
REMARK VINA RESULT:      -8.0      3.611      8.450
REMARK  6 active torsions:
REMARK  status: ('A' for Active; 'I' for Inactive)
REMARK    1  A    between atoms: N1_2  and  C3_4 
REMARK    2  A    between atoms: C3_4  and  C4_5 
REMARK    3  A    between atoms: C5_6  and  C6_7 
REMARK       I    between atoms: C6_7  and  N2_9 
REMARK    4  A    between atoms: N2_9  and  C7_10 
REMARK    5  A    between atoms: C14_19  and  N5_20 
REMARK    6  A    between atoms: N5_20  and  C15_21 
ROOT
HETATM    1  C7  UNL     1      21.912   0.235  53.650  1.00  0.00     0.046 C 
HETATM    2  C8  UNL     1      22.182  -0.798  54.434  1.00  0.00     0.002 C 
HETATM    3  C9  UNL     1      23.416  -1.116  54.724  1.00  0.00     0.019 C 
HETATM    4  C10 UNL     1      24.301  -0.756  53.618  1.00  0.00     0.166 C 
HETATM    5  N3  UNL     1      25.669  -1.163  53.802  1.00  0.00    -0.286 NA
HETATM    6  C11 UNL     1      26.693  -0.365  53.712  1.00  0.00     0.136 C 
HETATM    7  C12 UNL     1      26.577   1.059  53.417  1.00  0.00     0.089 C 
HETATM    8  C13 UNL     1      27.731   1.940  53.311  1.00  0.00     0.103 C 
HETATM    9  N4  UNL     1      28.645   2.635  53.231  1.00  0.00    -0.191 NA
HETATM   10  C14 UNL     1      25.405   1.647  53.224  1.00  0.00     0.064 C 
HETATM   11  C21 UNL     1      24.289   0.726  53.419  1.00  0.00     0.001 C 
HETATM   12  C22 UNL     1      23.030   1.166  53.450  1.00  0.00     0.042 C 
ENDROOT
BRANCH  10  13
HETATM   13  N5  UNL     1      25.135   3.009  52.925  1.00  0.00    -0.354 N 
HETATM   14  H15 UNL     1      25.204   3.732  53.686  1.00  0.00     0.166 HD
BRANCH  13  15
HETATM   15  C15 UNL     1      24.778   3.333  51.587  1.00  0.00     0.033 A 
HETATM   16  C16 UNL     1      25.749   3.347  50.634  1.00  0.00     0.029 A 
HETATM   17  C17 UNL     1      25.436   3.659  49.308  1.00  0.00     0.004 A 
HETATM   18  C18 UNL     1      24.138   3.948  48.985  1.00  0.00     0.019 A 
HETATM   19  C19 UNL     1      23.177   3.922  49.990  1.00  0.00     0.013 A 
HETATM   20 BR1  UNL     1      21.350   4.322  49.571  1.00  0.00    -0.051 Br
HETATM   21  C20 UNL     1      23.457   3.616  51.316  1.00  0.00     0.048 A 
ENDBRANCH  13  15
ENDBRANCH  10  13
BRANCH   1  22
HETATM   22  N2  UNL     1      20.645   0.424  53.045  1.00  0.00    -0.323 N 
HETATM   23  C6  UNL     1      20.569   0.380  51.647  1.00  0.00     0.245 C 
HETATM   24  O1  UNL     1      21.525   0.186  50.881  1.00  0.00    -0.268 OA
HETATM   25  H11 UNL     1      19.834   0.587  53.680  1.00  0.00     0.169 HD
BRANCH  23  26
HETATM   26  C5  UNL     1      19.266   0.575  50.983  1.00  0.00     0.072 C 
HETATM   27  C4  UNL     1      18.215  -0.193  51.306  1.00  0.00     0.008 C 
BRANCH  27  28
HETATM   28  C3  UNL     1      16.927   0.046  50.607  1.00  0.00     0.299 C 
BRANCH  28  29
HETATM   29  N1  UNL     1      15.879   0.283  51.538  1.00  0.00     0.083 N 
HETATM   30  C1  UNL     1      15.613   1.648  51.843  1.00  0.00     0.309 C 
HETATM   31  C2  UNL     1      16.081  -0.486  52.732  1.00  0.00     0.309 C 
ENDBRANCH  28  29
ENDBRANCH  27  28
ENDBRANCH  23  26
ENDBRANCH   1  22
TORSDOF 6
ENDMDL
MODEL 5
REMARK VINA RESULT:      -7.9      3.678      7.995
REMARK  6 active torsions:
REMARK  status: ('A' for Active; 'I' for Inactive)
REMARK    1  A    between atoms: N1_2  and  C3_4 
REMARK    2  A    between atoms: C3_4  and  C4_5 
REMARK    3  A    between atoms: C5_6  and  C6_7 
REMARK       I    between atoms: C6_7  and  N2_9 
REMARK    4  A    between atoms: N2_9  and  C7_10 
REMARK    5  A    between atoms: C14_19  and  N5_20 
REMARK    6  A    between atoms: N5_20  and  C15_21 
ROOT
HETATM    1  C7  UNL     1      21.822   0.524  52.948  1.00  0.00     0.046 C 
HETATM    2  C8  UNL     1      21.855  -0.517  53.765  1.00  0.00     0.002 C 
HETATM    3  C9  UNL     1      22.973  -0.897  54.324  1.00  0.00     0.019 C 
HETATM    4  C10 UNL     1      24.103  -0.589  53.450  1.00  0.00     0.166 C 
HETATM    5  N3  UNL     1      25.371  -1.065  53.936  1.00  0.00    -0.286 NA
HETATM    6  C11 UNL     1      26.429  -0.321  54.086  1.00  0.00     0.136 C 
HETATM    7  C12 UNL     1      26.455   1.106  53.782  1.00  0.00     0.089 C 
HETATM    8  C13 UNL     1      27.646   1.925  53.947  1.00  0.00     0.103 C 
HETATM    9  N4  UNL     1      28.589   2.572  54.080  1.00  0.00    -0.191 NA
HETATM   10  C14 UNL     1      25.389   1.752  53.333  1.00  0.00     0.064 C 
HETATM   11  C21 UNL     1      24.213   0.891  53.264  1.00  0.00     0.001 C 
HETATM   12  C22 UNL     1      23.003   1.396  53.013  1.00  0.00     0.042 C 
ENDROOT
BRANCH  10  13
HETATM   13  N5  UNL     1      25.264   3.125  52.990  1.00  0.00    -0.354 N 
HETATM   14  H15 UNL     1      25.128   3.841  53.750  1.00  0.00     0.166 HD
BRANCH  13  15
HETATM   15  C15 UNL     1      25.330   3.470  51.612  1.00  0.00     0.033 A 
HETATM   16  C16 UNL     1      26.374   3.010  50.870  1.00  0.00     0.029 A 
HETATM   17  C17 UNL     1      26.471   3.327  49.512  1.00  0.00     0.004 A 
HETATM   18  C18 UNL     1      25.501   4.105  48.942  1.00  0.00     0.019 A 
HETATM   19  C19 UNL     1      24.452   4.554  49.737  1.00  0.00     0.013 A 
HETATM   20 BR1  UNL     1      23.076   5.646  48.971  1.00  0.00    -0.051 Br
HETATM   21  C20 UNL     1      24.327   4.256  51.089  1.00  0.00     0.048 A 
ENDBRANCH  13  15
ENDBRANCH  10  13
BRANCH   1  22
HETATM   22  N2  UNL     1      20.737   0.776  52.072  1.00  0.00    -0.323 N 
HETATM   23  C6  UNL     1      20.011   1.961  52.246  1.00  0.00     0.245 C 
HETATM   24  O1  UNL     1      20.236   2.822  53.110  1.00  0.00    -0.268 OA
HETATM   25  H11 UNL     1      20.540   0.058  51.342  1.00  0.00     0.169 HD
BRANCH  23  26
HETATM   26  C5  UNL     1      18.873   2.254  51.354  1.00  0.00     0.072 C 
HETATM   27  C4  UNL     1      18.287   3.460  51.371  1.00  0.00     0.008 C 
BRANCH  27  28
HETATM   28  C3  UNL     1      17.146   3.702  50.453  1.00  0.00     0.299 C 
BRANCH  28  29
HETATM   29  N1  UNL     1      15.907   3.439  51.101  1.00  0.00     0.083 N 
HETATM   30  C1  UNL     1      14.737   3.639  50.315  1.00  0.00     0.309 C 
HETATM   31  C2  UNL     1      15.827   4.152  52.343  1.00  0.00     0.309 C 
ENDBRANCH  28  29
ENDBRANCH  27  28
ENDBRANCH  23  26
ENDBRANCH   1  22
TORSDOF 6
ENDMDL
MODEL 6
REMARK VINA RESULT:      -7.9      2.302      3.280
REMARK  6 active torsions:
REMARK  status: ('A' for Active; 'I' for Inactive)
REMARK    1  A    between atoms: N1_2  and  C3_4 
REMARK    2  A    between atoms: C3_4  and  C4_5 
REMARK    3  A    between atoms: C5_6  and  C6_7 
REMARK       I    between atoms: C6_7  and  N2_9 
REMARK    4  A    between atoms: N2_9  and  C7_10 
REMARK    5  A    between atoms: C14_19  and  N5_20 
REMARK    6  A    between atoms: N5_20  and  C15_21 
ROOT
HETATM    1  C7  UNL     1      23.953   3.864  51.605  1.00  0.00     0.046 C 
HETATM    2  C8  UNL     1      23.356   4.931  52.115  1.00  0.00     0.002 C 
HETATM    3  C9  UNL     1      22.058   4.968  52.259  1.00  0.00     0.019 C 
HETATM    4  C10 UNL     1      21.413   4.168  51.220  1.00  0.00     0.166 C 
HETATM    5  N3  UNL     1      19.975   4.233  51.233  1.00  0.00    -0.286 NA
HETATM    6  C11 UNL     1      19.192   3.194  51.275  1.00  0.00     0.136 C 
HETATM    7  C12 UNL     1      19.683   1.821  51.321  1.00  0.00     0.089 C 
HETATM    8  C13 UNL     1      18.796   0.668  51.360  1.00  0.00     0.103 C 
HETATM    9  N4  UNL     1      18.092  -0.243  51.393  1.00  0.00    -0.191 NA
HETATM   10  C14 UNL     1      20.976   1.533  51.330  1.00  0.00     0.064 C 
HETATM   11  C21 UNL     1      21.806   2.733  51.367  1.00  0.00     0.001 C 
HETATM   12  C22 UNL     1      23.123   2.653  51.565  1.00  0.00     0.042 C 
ENDROOT
BRANCH  10  13
HETATM   13  N5  UNL     1      21.600   0.257  51.367  1.00  0.00    -0.354 N 
HETATM   14  H15 UNL     1      21.726  -0.287  50.475  1.00  0.00     0.166 HD
BRANCH  13  15
HETATM   15  C15 UNL     1      22.031  -0.230  52.631  1.00  0.00     0.033 A 
HETATM   16  C16 UNL     1      21.105  -0.735  53.491  1.00  0.00     0.029 A 
HETATM   17  C17 UNL     1      21.492  -1.224  54.742  1.00  0.00     0.004 A 
HETATM   18  C18 UNL     1      22.816  -1.187  55.087  1.00  0.00     0.019 A 
HETATM   19  C19 UNL     1      23.728  -0.661  54.179  1.00  0.00     0.013 A 
HETATM   20 BR1  UNL     1      25.589  -0.593  54.631  1.00  0.00    -0.051 Br
HETATM   21  C20 UNL     1      23.374  -0.168  52.928  1.00  0.00     0.048 A 
ENDBRANCH  13  15
ENDBRANCH  10  13
BRANCH   1  22
HETATM   22  N2  UNL     1      25.287   3.890  51.126  1.00  0.00    -0.323 N 
HETATM   23  C6  UNL     1      25.500   4.243  49.788  1.00  0.00     0.245 C 
HETATM   24  O1  UNL     1      24.614   4.541  48.972  1.00  0.00    -0.268 OA
HETATM   25  H11 UNL     1      26.040   3.643  51.804  1.00  0.00     0.169 HD
BRANCH  23  26
HETATM   26  C5  UNL     1      26.876   4.279  49.256  1.00  0.00     0.072 C 
HETATM   27  C4  UNL     1      27.356   5.393  48.683  1.00  0.00     0.008 C 
BRANCH  27  28
HETATM   28  C3  UNL     1      28.747   5.374  48.163  1.00  0.00     0.299 C 
BRANCH  28  29
HETATM   29  N1  UNL     1      29.249   6.695  48.005  1.00  0.00     0.083 N 
HETATM   30  C1  UNL     1      30.515   6.957  48.600  1.00  0.00     0.309 C 
HETATM   31  C2  UNL     1      28.270   7.659  48.420  1.00  0.00     0.309 C 
ENDBRANCH  28  29
ENDBRANCH  27  28
ENDBRANCH  23  26
ENDBRANCH   1  22
TORSDOF 6
ENDMDL
MODEL 7
REMARK VINA RESULT:      -7.9      3.389      6.382
REMARK  6 active torsions:
REMARK  status: ('A' for Active; 'I' for Inactive)
REMARK    1  A    between atoms: N1_2  and  C3_4 
REMARK    2  A    between atoms: C3_4  and  C4_5 
REMARK    3  A    between atoms: C5_6  and  C6_7 
REMARK       I    between atoms: C6_7  and  N2_9 
REMARK    4  A    between atoms: N2_9  and  C7_10 
REMARK    5  A    between atoms: C14_19  and  N5_20 
REMARK    6  A    between atoms: N5_20  and  C15_21 
ROOT
HETATM    1  C7  UNL     1      22.267   0.230  52.596  1.00  0.00     0.046 C 
HETATM    2  C8  UNL     1      21.080   0.069  53.160  1.00  0.00     0.002 C 
HETATM    3  C9  UNL     1      20.084   0.863  52.866  1.00  0.00     0.019 C 
HETATM    4  C10 UNL     1      20.584   2.193  52.528  1.00  0.00     0.166 C 
HETATM    5  N3  UNL     1      19.552   3.168  52.290  1.00  0.00    -0.286 NA
HETATM    6  C11 UNL     1      19.464   3.900  51.217  1.00  0.00     0.136 C 
HETATM    7  C12 UNL     1      20.409   3.816  50.109  1.00  0.00     0.089 C 
HETATM    8  C13 UNL     1      20.304   4.646  48.919  1.00  0.00     0.103 C 
HETATM    9  N4  UNL     1      20.217   5.302  47.976  1.00  0.00    -0.191 NA
HETATM   10  C14 UNL     1      21.432   2.973  50.115  1.00  0.00     0.064 C 
HETATM   11  C21 UNL     1      21.434   2.121  51.300  1.00  0.00     0.001 C 
HETATM   12  C22 UNL     1      22.272   1.087  51.403  1.00  0.00     0.042 C 
ENDROOT
BRANCH  10  13
HETATM   13  N5  UNL     1      22.429   2.783  49.122  1.00  0.00    -0.354 N 
HETATM   14  H15 UNL     1      22.248   2.125  48.322  1.00  0.00     0.166 HD
BRANCH  13  15
HETATM   15  C15 UNL     1      23.646   3.506  49.263  1.00  0.00     0.033 A 
HETATM   16  C16 UNL     1      24.690   2.917  49.906  1.00  0.00     0.029 A 
HETATM   17  C17 UNL     1      25.901   3.597  50.061  1.00  0.00     0.004 A 
HETATM   18  C18 UNL     1      26.019   4.863  49.556  1.00  0.00     0.019 A 
HETATM   19  C19 UNL     1      24.928   5.428  48.906  1.00  0.00     0.013 A 
HETATM   20 BR1  UNL     1      25.059   7.199  48.186  1.00  0.00    -0.051 Br
HETATM   21  C20 UNL     1      23.711   4.777  48.736  1.00  0.00     0.048 A 
ENDBRANCH  13  15
ENDBRANCH  10  13
BRANCH   1  22
HETATM   22  N2  UNL     1      23.445  -0.370  53.107  1.00  0.00    -0.323 N 
HETATM   23  C6  UNL     1      24.505   0.467  53.476  1.00  0.00     0.245 C 
HETATM   24  O1  UNL     1      24.506   1.705  53.394  1.00  0.00    -0.268 OA
HETATM   25  H11 UNL     1      23.453  -1.411  53.181  1.00  0.00     0.169 HD
BRANCH  23  26
HETATM   26  C5  UNL     1      25.746  -0.125  54.010  1.00  0.00     0.072 C 
HETATM   27  C4  UNL     1      26.818   0.644  54.254  1.00  0.00     0.008 C 
BRANCH  27  28
HETATM   28  C3  UNL     1      28.041  -0.003  54.791  1.00  0.00     0.299 C 
BRANCH  28  29
HETATM   29  N1  UNL     1      29.207   0.718  54.409  1.00  0.00     0.083 N 
HETATM   30  C1  UNL     1      28.990   2.024  53.886  1.00  0.00     0.309 C 
HETATM   31  C2  UNL     1      30.018  -0.068  53.525  1.00  0.00     0.309 C 
ENDBRANCH  28  29
ENDBRANCH  27  28
ENDBRANCH  23  26
ENDBRANCH   1  22
TORSDOF 6
ENDMDL
MODEL 8
REMARK VINA RESULT:      -7.9      2.334      4.241
REMARK  6 active torsions:
REMARK  status: ('A' for Active; 'I' for Inactive)
REMARK    1  A    between atoms: N1_2  and  C3_4 
REMARK    2  A    between atoms: C3_4  and  C4_5 
REMARK    3  A    between atoms: C5_6  and  C6_7 
REMARK       I    between atoms: C6_7  and  N2_9 
REMARK    4  A    between atoms: N2_9  and  C7_10 
REMARK    5  A    between atoms: C14_19  and  N5_20 
REMARK    6  A    between atoms: N5_20  and  C15_21 
ROOT
HETATM    1  C7  UNL     1      26.153   2.090  51.417  1.00  0.00     0.046 C 
HETATM    2  C8  UNL     1      26.804   0.945  51.556  1.00  0.00     0.002 C 
HETATM    3  C9  UNL     1      26.268  -0.057  52.201  1.00  0.00     0.019 C 
HETATM    4  C10 UNL     1      25.379   0.437  53.250  1.00  0.00     0.166 C 
HETATM    5  N3  UNL     1      24.822  -0.595  54.085  1.00  0.00    -0.286 NA
HETATM    6  C11 UNL     1      23.550  -0.750  54.312  1.00  0.00     0.136 C 
HETATM    7  C12 UNL     1      22.521   0.109  53.736  1.00  0.00     0.089 C 
HETATM    8  C13 UNL     1      21.102  -0.071  54.005  1.00  0.00     0.103 C 
HETATM    9  N4  UNL     1      19.980  -0.217  54.217  1.00  0.00    -0.191 NA
HETATM   10  C14 UNL     1      22.814   1.116  52.926  1.00  0.00     0.064 C 
HETATM   11  C21 UNL     1      24.243   1.192  52.639  1.00  0.00     0.001 C 
HETATM   12  C22 UNL     1      24.714   2.020  51.704  1.00  0.00     0.042 C 
ENDROOT
BRANCH  10  13
HETATM   13  N5  UNL     1      21.930   2.034  52.299  1.00  0.00    -0.354 N 
HETATM   14  H15 UNL     1      21.376   2.708  52.887  1.00  0.00     0.166 HD
BRANCH  13  15
HETATM   15  C15 UNL     1      21.839   1.997  50.880  1.00  0.00     0.033 A 
HETATM   16  C16 UNL     1      21.500   0.826  50.275  1.00  0.00     0.029 A 
HETATM   17  C17 UNL     1      21.398   0.752  48.883  1.00  0.00     0.004 A 
HETATM   18  C18 UNL     1      21.646   1.874  48.140  1.00  0.00     0.019 A 
HETATM   19  C19 UNL     1      21.990   3.049  48.799  1.00  0.00     0.013 A 
HETATM   20 BR1  UNL     1      22.344   4.639  47.789  1.00  0.00    -0.051 Br
HETATM   21  C20 UNL     1      22.099   3.155  50.180  1.00  0.00     0.048 A 
ENDBRANCH  13  15
ENDBRANCH  10  13
BRANCH   1  22
HETATM   22  N2  UNL     1      26.794   3.293  51.029  1.00  0.00    -0.323 N 
HETATM   23  C6  UNL     1      26.412   3.882  49.817  1.00  0.00     0.245 C 
HETATM   24  O1  UNL     1      25.550   3.440  49.043  1.00  0.00    -0.268 OA
HETATM   25  H11 UNL     1      27.520   3.673  51.674  1.00  0.00     0.169 HD
BRANCH  23  26
HETATM   26  C5  UNL     1      27.060   5.134  49.381  1.00  0.00     0.072 C 
HETATM   27  C4  UNL     1      28.026   5.113  48.450  1.00  0.00     0.008 C 
BRANCH  27  28
HETATM   28  C3  UNL     1      28.645   6.401  48.049  1.00  0.00     0.299 C 
BRANCH  28  29
HETATM   29  N1  UNL     1      29.975   6.502  48.543  1.00  0.00     0.083 N 
HETATM   30  C1  UNL     1      30.532   7.811  48.572  1.00  0.00     0.309 C 
HETATM   31  C2  UNL     1      30.838   5.585  47.855  1.00  0.00     0.309 C 
ENDBRANCH  28  29
ENDBRANCH  27  28
ENDBRANCH  23  26
ENDBRANCH   1  22
TORSDOF 6
ENDMDL
MODEL 9
REMARK VINA RESULT:      -7.6      3.393      8.370
REMARK  6 active torsions:
REMARK  status: ('A' for Active; 'I' for Inactive)
REMARK    1  A    between atoms: N1_2  and  C3_4 
REMARK    2  A    between atoms: C3_4  and  C4_5 
REMARK    3  A    between atoms: C5_6  and  C6_7 
REMARK       I    between atoms: C6_7  and  N2_9 
REMARK    4  A    between atoms: N2_9  and  C7_10 
REMARK    5  A    between atoms: C14_19  and  N5_20 
REMARK    6  A    between atoms: N5_20  and  C15_21 
ROOT
HETATM    1  C7  UNL     1      26.176   4.213  49.427  1.00  0.00     0.046 C 
HETATM    2  C8  UNL     1      24.954   4.648  49.696  1.00  0.00     0.002 C 
HETATM    3  C9  UNL     1      24.657   5.917  49.599  1.00  0.00     0.019 C 
HETATM    4  C10 UNL     1      25.831   6.732  49.901  1.00  0.00     0.166 C 
HETATM    5  N3  UNL     1      25.575   8.148  49.923  1.00  0.00    -0.286 NA
HETATM    6  C11 UNL     1      26.243   9.028  49.234  1.00  0.00     0.136 C 
HETATM    7  C12 UNL     1      27.341   8.679  48.339  1.00  0.00     0.089 C 
HETATM    8  C13 UNL     1      28.085   9.673  47.580  1.00  0.00     0.103 C 
HETATM    9  N4  UNL     1      28.670  10.461  46.977  1.00  0.00    -0.191 NA
HETATM   10  C14 UNL     1      27.736   7.427  48.159  1.00  0.00     0.064 C 
HETATM   11  C21 UNL     1      26.901   6.478  48.889  1.00  0.00     0.001 C 
HETATM   12  C22 UNL     1      27.021   5.163  48.692  1.00  0.00     0.042 C 
ENDROOT
BRANCH  10  13
HETATM   13  N5  UNL     1      28.784   6.938  47.334  1.00  0.00    -0.354 N 
HETATM   14  H15 UNL     1      28.621   6.822  46.301  1.00  0.00     0.166 HD
BRANCH  13  15
HETATM   15  C15 UNL     1      30.022   6.624  47.957  1.00  0.00     0.033 A 
HETATM   16  C16 UNL     1      30.522   7.477  48.892  1.00  0.00     0.029 A 
HETATM   17  C17 UNL     1      31.736   7.200  49.528  1.00  0.00     0.004 A 
HETATM   18  C18 UNL     1      32.412   6.058  49.195  1.00  0.00     0.019 A 
HETATM   19  C19 UNL     1      31.866   5.214  48.234  1.00  0.00     0.013 A 
HETATM   20 BR1  UNL     1      32.788   3.608  47.743  1.00  0.00    -0.051 Br
HETATM   21  C20 UNL     1      30.662   5.462  47.585  1.00  0.00     0.048 A 
ENDBRANCH  13  15
ENDBRANCH  10  13
BRANCH   1  22
HETATM   22  N2  UNL     1      26.637   2.933  49.824  1.00  0.00    -0.323 N 
HETATM   23  C6  UNL     1      26.266   2.463  51.091  1.00  0.00     0.245 C 
HETATM   24  O1  UNL     1      25.561   3.075  51.907  1.00  0.00    -0.268 OA
HETATM   25  H11 UNL     1      27.229   2.409  49.144  1.00  0.00     0.169 HD
BRANCH  23  26
HETATM   26  C5  UNL     1      26.730   1.135  51.537  1.00  0.00     0.072 C 
HETATM   27  C4  UNL     1      27.014   0.911  52.829  1.00  0.00     0.008 C 
BRANCH  27  28
HETATM   28  C3  UNL     1      27.476  -0.443  53.223  1.00  0.00     0.299 C 
BRANCH  28  29
HETATM   29  N1  UNL     1      28.603  -0.364  54.088  1.00  0.00     0.083 N 
HETATM   30  C1  UNL     1      29.017   0.948  54.454  1.00  0.00     0.309 C 
HETATM   31  C2  UNL     1      29.698  -1.126  53.560  1.00  0.00     0.309 C 
ENDBRANCH  28  29
ENDBRANCH  27  28
ENDBRANCH  23  26
ENDBRANCH   1  22
TORSDOF 6
ENDMDL
