MODEL 1
REMARK VINA RESULT:      -8.6      0.000      0.000
REMARK  4 active torsions:
REMARK  status: ('A' for Active; 'I' for Inactive)
REMARK    1  A    between atoms: N1_1  and  C1_2 
REMARK    2  A    between atoms: C3_5  and  C4_6 
REMARK    3  A    between atoms: C4_6  and  C5_7 
REMARK    4  A    between atoms: N3_17  and  C14_18 
ROOT
HETATM    1  C1  UNL     1      23.359   4.793  52.087  1.00  0.00     0.738 A 
HETATM    2  N2  UNL     1      23.933   5.321  50.981  1.00  0.00    -0.059 NA
HETATM    3  C2  UNL     1      25.007   4.679  50.462  1.00  0.00     0.111 A 
HETATM    4  C3  UNL     1      25.874   4.829  49.406  1.00  0.00    -0.022 A 
HETATM    5  C11 UNL     1      26.813   3.818  49.381  1.00  0.00     0.012 A 
HETATM    6  C12 UNL     1      26.514   3.017  50.460  1.00  0.00     0.035 A 
HETATM    7  C13 UNL     1      25.419   3.480  51.170  1.00  0.00     0.089 A 
HETATM    8  N3  UNL     1      24.818   2.974  52.287  1.00  0.00    -0.216 N 
HETATM    9  N4  UNL     1      23.780   3.676  52.709  1.00  0.00     0.026 NA
ENDROOT
BRANCH   4  10
HETATM   10  C4  UNL     1      25.760   5.975  48.442  1.00  0.00     0.079 C 
BRANCH  10  11
HETATM   11  C5  UNL     1      26.908   6.914  48.588  1.00  0.00    -0.054 A 
HETATM   12  C6  UNL     1      28.118   6.854  47.928  1.00  0.00     0.009 A 
HETATM   13  C7  UNL     1      29.057   7.821  48.198  1.00  0.00     0.024 A 
HETATM   14  C8  UNL     1      28.881   8.861  49.090  1.00  0.00     0.034 A 
HETATM   15 CL1  UNL     1      30.116  10.066  49.393  1.00  0.00    -0.084 Cl
HETATM   16  C9  UNL     1      27.657   8.897  49.740  1.00  0.00     0.024 A 
HETATM   17  C10 UNL     1      26.679   7.949  49.503  1.00  0.00     0.009 A 
ENDBRANCH  10  11
ENDBRANCH   4  10
BRANCH   1  18
HETATM   18  N1  UNL     1      22.233   5.494  52.602  1.00  0.00    -0.230 N 
HETATM   19  H1  UNL     1      21.285   5.092  52.351  1.00  0.00     0.174 HD
HETATM   20  H2  UNL     1      21.851   6.298  53.165  1.00  0.00     0.174 HD
ENDBRANCH   1  18
BRANCH   8  21
HETATM   21  C14 UNL     1      25.365   1.789  52.847  1.00  0.00     0.060 A 
HETATM   22  C15 UNL     1      24.433   0.757  52.720  1.00  0.00     0.032 A 
HETATM   23  C16 UNL     1      24.724  -0.528  53.197  1.00  0.00     0.004 A 
HETATM   24  C17 UNL     1      25.940  -0.767  53.795  1.00  0.00     0.019 A 
HETATM   25  C18 UNL     1      26.850   0.262  53.913  1.00  0.00     0.013 A 
HETATM   26 BR1  UNL     1      28.565   0.032  54.727  1.00  0.00    -0.051 Br
HETATM   27  C19 UNL     1      26.578   1.530  53.448  1.00  0.00     0.050 A 
ENDBRANCH   8  21
TORSDOF 4
ENDMDL
MODEL 2
REMARK VINA RESULT:      -8.4      6.149      8.007
REMARK  4 active torsions:
REMARK  status: ('A' for Active; 'I' for Inactive)
REMARK    1  A    between atoms: N1_1  and  C1_2 
REMARK    2  A    between atoms: C3_5  and  C4_6 
REMARK    3  A    between atoms: C4_6  and  C5_7 
REMARK    4  A    between atoms: N3_17  and  C14_18 
ROOT
HETATM    1  C1  UNL     1      19.933  -0.433  53.178  1.00  0.00     0.738 A 
HETATM    2  N2  UNL     1      21.176  -0.643  53.671  1.00  0.00    -0.059 NA
HETATM    3  C2  UNL     1      22.195   0.068  53.131  1.00  0.00     0.111 A 
HETATM    4  C3  UNL     1      23.555   0.189  53.296  1.00  0.00    -0.022 A 
HETATM    5  C11 UNL     1      24.085   1.114  52.419  1.00  0.00     0.012 A 
HETATM    6  C12 UNL     1      23.014   1.578  51.689  1.00  0.00     0.035 A 
HETATM    7  C13 UNL     1      21.823   0.984  52.068  1.00  0.00     0.089 A 
HETATM    8  N3  UNL     1      20.557   1.171  51.593  1.00  0.00    -0.216 N 
HETATM    9  N4  UNL     1      19.638   0.431  52.189  1.00  0.00     0.026 NA
ENDROOT
BRANCH   4  10
HETATM   10  C4  UNL     1      24.306  -0.618  54.315  1.00  0.00     0.079 C 
BRANCH  10  11
HETATM   11  C5  UNL     1      25.766  -0.635  54.016  1.00  0.00    -0.054 A 
HETATM   12  C6  UNL     1      26.397  -1.322  53.000  1.00  0.00     0.009 A 
HETATM   13  C7  UNL     1      27.762  -1.209  52.885  1.00  0.00     0.024 A 
HETATM   14  C8  UNL     1      28.561  -0.450  53.719  1.00  0.00     0.034 A 
HETATM   15 CL1  UNL     1      30.299  -0.344  53.523  1.00  0.00    -0.084 Cl
HETATM   16  C9  UNL     1      27.902   0.229  54.731  1.00  0.00     0.024 A 
HETATM   17  C10 UNL     1      26.531   0.148  54.889  1.00  0.00     0.009 A 
ENDBRANCH  10  11
ENDBRANCH   4  10
BRANCH   1  18
HETATM   18  N1  UNL     1      18.889  -1.195  53.771  1.00  0.00    -0.230 N 
HETATM   19  H1  UNL     1      19.193  -2.068  54.290  1.00  0.00     0.174 HD
HETATM   20  H2  UNL     1      17.861  -1.325  53.959  1.00  0.00     0.174 HD
ENDBRANCH   1  18
BRANCH   8  21
HETATM   21  C14 UNL     1      20.383   2.112  50.542  1.00  0.00     0.060 A 
HETATM   22  C15 UNL     1      20.631   1.477  49.322  1.00  0.00     0.032 A 
HETATM   23  C16 UNL     1      20.530   2.186  48.118  1.00  0.00     0.004 A 
HETATM   24  C17 UNL     1      20.185   3.517  48.145  1.00  0.00     0.019 A 
HETATM   25  C18 UNL     1      19.944   4.130  49.356  1.00  0.00     0.013 A 
HETATM   26 BR1  UNL     1      19.458   5.974  49.499  1.00  0.00    -0.051 Br
HETATM   27  C19 UNL     1      20.038   3.446  50.548  1.00  0.00     0.050 A 
ENDBRANCH   8  21
TORSDOF 4
ENDMDL
MODEL 3
REMARK VINA RESULT:      -8.2      4.325      7.554
REMARK  4 active torsions:
REMARK  status: ('A' for Active; 'I' for Inactive)
REMARK    1  A    between atoms: N1_1  and  C1_2 
REMARK    2  A    between atoms: C3_5  and  C4_6 
REMARK    3  A    between atoms: C4_6  and  C5_7 
REMARK    4  A    between atoms: N3_17  and  C14_18 
ROOT
HETATM    1  C1  UNL     1      22.037   1.760  49.659  1.00  0.00     0.738 A 
HETATM    2  N2  UNL     1      22.605   1.146  50.723  1.00  0.00    -0.059 NA
HETATM    3  C2  UNL     1      23.252   1.922  51.625  1.00  0.00     0.111 A 
HETATM    4  C3  UNL     1      23.945   1.758  52.802  1.00  0.00    -0.022 A 
HETATM    5  C11 UNL     1      24.397   2.968  53.289  1.00  0.00     0.012 A 
HETATM    6  C12 UNL     1      23.968   3.909  52.381  1.00  0.00     0.035 A 
HETATM    7  C13 UNL     1      23.260   3.345  51.334  1.00  0.00     0.089 A 
HETATM    8  N3  UNL     1      22.678   3.933  50.248  1.00  0.00    -0.216 N 
HETATM    9  N4  UNL     1      22.072   3.087  49.432  1.00  0.00     0.026 NA
ENDROOT
BRANCH   4  10
HETATM   10  C4  UNL     1      24.151   0.406  53.420  1.00  0.00     0.079 C 
BRANCH  10  11
HETATM   11  C5  UNL     1      25.600   0.122  53.619  1.00  0.00    -0.054 A 
HETATM   12  C6  UNL     1      26.371   0.467  54.709  1.00  0.00     0.009 A 
HETATM   13  C7  UNL     1      27.699   0.112  54.709  1.00  0.00     0.024 A 
HETATM   14  C8  UNL     1      28.330  -0.572  53.687  1.00  0.00     0.034 A 
HETATM   15 CL1  UNL     1      30.028  -0.997  53.742  1.00  0.00    -0.084 Cl
HETATM   16  C9  UNL     1      27.532  -0.906  52.603  1.00  0.00     0.024 A 
HETATM   17  C10 UNL     1      26.191  -0.572  52.557  1.00  0.00     0.009 A 
ENDBRANCH  10  11
ENDBRANCH   4  10
BRANCH   1  18
HETATM   18  N1  UNL     1      21.366   0.914  48.734  1.00  0.00    -0.230 N 
HETATM   19  H1  UNL     1      21.989   0.319  48.116  1.00  0.00     0.174 HD
HETATM   20  H2  UNL     1      20.461   0.560  48.326  1.00  0.00     0.174 HD
ENDBRANCH   1  18
BRANCH   8  21
HETATM   21  C14 UNL     1      22.791   5.344  50.127  1.00  0.00     0.060 A 
HETATM   22  C15 UNL     1      21.657   5.938  50.684  1.00  0.00     0.032 A 
HETATM   23  C16 UNL     1      21.515   7.332  50.694  1.00  0.00     0.004 A 
HETATM   24  C17 UNL     1      22.506   8.115  50.146  1.00  0.00     0.019 A 
HETATM   25  C18 UNL     1      23.619   7.514  49.599  1.00  0.00     0.013 A 
HETATM   26 BR1  UNL     1      25.048   8.513  48.815  1.00  0.00    -0.051 Br
HETATM   27  C19 UNL     1      23.773   6.145  49.584  1.00  0.00     0.050 A 
ENDBRANCH   8  21
TORSDOF 4
ENDMDL
MODEL 4
REMARK VINA RESULT:      -8.1      3.620      7.343
REMARK  4 active torsions:
REMARK  status: ('A' for Active; 'I' for Inactive)
REMARK    1  A    between atoms: N1_1  and  C1_2 
REMARK    2  A    between atoms: C3_5  and  C4_6 
REMARK    3  A    between atoms: C4_6  and  C5_7 
REMARK    4  A    between atoms: N3_17  and  C14_18 
ROOT
HETATM    1  C1  UNL     1      23.282   6.028  50.940  1.00  0.00     0.738 A 
HETATM    2  N2  UNL     1      23.668   4.792  51.337  1.00  0.00    -0.059 NA
HETATM    3  C2  UNL     1      24.758   4.252  50.741  1.00  0.00     0.111 A 
HETATM    4  C3  UNL     1      25.488   3.089  50.809  1.00  0.00    -0.022 A 
HETATM    5  C11 UNL     1      26.542   3.106  49.919  1.00  0.00     0.012 A 
HETATM    6  C12 UNL     1      26.459   4.323  49.280  1.00  0.00     0.035 A 
HETATM    7  C13 UNL     1      25.391   5.081  49.730  1.00  0.00     0.089 A 
HETATM    8  N3  UNL     1      24.975   6.325  49.353  1.00  0.00    -0.216 N 
HETATM    9  N4  UNL     1      23.905   6.757  49.996  1.00  0.00     0.026 NA
ENDROOT
BRANCH   4  10
HETATM   10  C4  UNL     1      25.124   1.978  51.752  1.00  0.00     0.079 C 
BRANCH  10  11
HETATM   11  C5  UNL     1      26.343   1.339  52.323  1.00  0.00    -0.054 A 
HETATM   12  C6  UNL     1      27.383   1.969  52.974  1.00  0.00     0.009 A 
HETATM   13  C7  UNL     1      28.426   1.202  53.435  1.00  0.00     0.024 A 
HETATM   14  C8  UNL     1      28.515  -0.170  53.295  1.00  0.00     0.034 A 
HETATM   15 CL1  UNL     1      29.871  -1.096  53.904  1.00  0.00    -0.084 Cl
HETATM   16  C9  UNL     1      27.457  -0.778  52.636  1.00  0.00     0.024 A 
HETATM   17  C10 UNL     1      26.385  -0.050  52.155  1.00  0.00     0.009 A 
ENDBRANCH  10  11
ENDBRANCH   4  10
BRANCH   1  18
HETATM   18  N1  UNL     1      22.134   6.562  51.589  1.00  0.00    -0.230 N 
HETATM   19  H1  UNL     1      21.711   5.957  52.350  1.00  0.00     0.174 HD
HETATM   20  H2  UNL     1      21.434   7.342  51.686  1.00  0.00     0.174 HD
ENDBRANCH   1  18
BRANCH   8  21
HETATM   21  C14 UNL     1      25.721   6.986  48.340  1.00  0.00     0.060 A 
HETATM   22  C15 UNL     1      24.835   7.519  47.402  1.00  0.00     0.032 A 
HETATM   23  C16 UNL     1      25.314   8.226  46.291  1.00  0.00     0.004 A 
HETATM   24  C17 UNL     1      26.670   8.391  46.130  1.00  0.00     0.019 A 
HETATM   25  C18 UNL     1      27.533   7.859  47.064  1.00  0.00     0.013 A 
HETATM   26 BR1  UNL     1      29.432   8.034  46.930  1.00  0.00    -0.051 Br
HETATM   27  C19 UNL     1      27.076   7.163  48.162  1.00  0.00     0.050 A 
ENDBRANCH   8  21
TORSDOF 4
ENDMDL
MODEL 5
REMARK VINA RESULT:      -8.1      4.403      6.811
REMARK  4 active torsions:
REMARK  status: ('A' for Active; 'I' for Inactive)
REMARK    1  A    between atoms: N1_1  and  C1_2 
REMARK    2  A    between atoms: C3_5  and  C4_6 
REMARK    3  A    between atoms: C4_6  and  C5_7 
REMARK    4  A    between atoms: N3_17  and  C14_18 
ROOT
HETATM    1  C1  UNL     1      26.122   3.889  50.147  1.00  0.00     0.738 A 
HETATM    2  N2  UNL     1      24.803   3.984  50.437  1.00  0.00    -0.059 NA
HETATM    3  C2  UNL     1      24.319   3.196  51.426  1.00  0.00     0.111 A 
HETATM    4  C3  UNL     1      23.113   2.956  52.042  1.00  0.00    -0.022 A 
HETATM    5  C11 UNL     1      23.236   2.001  53.030  1.00  0.00     0.012 A 
HETATM    6  C12 UNL     1      24.564   1.640  53.023  1.00  0.00     0.035 A 
HETATM    7  C13 UNL     1      25.291   2.329  52.067  1.00  0.00     0.089 A 
HETATM    8  N3  UNL     1      26.617   2.257  51.750  1.00  0.00    -0.216 N 
HETATM    9  N4  UNL     1      26.986   3.067  50.772  1.00  0.00     0.026 NA
ENDROOT
BRANCH   4  10
HETATM   10  C4  UNL     1      21.858   3.675  51.637  1.00  0.00     0.079 C 
BRANCH  10  11
HETATM   11  C5  UNL     1      20.828   2.718  51.141  1.00  0.00    -0.054 A 
HETATM   12  C6  UNL     1      20.916   1.910  50.026  1.00  0.00     0.009 A 
HETATM   13  C7  UNL     1      19.855   1.087  49.732  1.00  0.00     0.024 A 
HETATM   14  C8  UNL     1      18.693   1.006  50.475  1.00  0.00     0.034 A 
HETATM   15 CL1  UNL     1      17.372  -0.063  50.050  1.00  0.00    -0.084 Cl
HETATM   16  C9  UNL     1      18.631   1.829  51.589  1.00  0.00     0.024 A 
HETATM   17  C10 UNL     1      19.672   2.674  51.928  1.00  0.00     0.009 A 
ENDBRANCH  10  11
ENDBRANCH   4  10
BRANCH   1  18
HETATM   18  N1  UNL     1      26.595   4.732  49.104  1.00  0.00    -0.230 N 
HETATM   19  H1  UNL     1      26.026   4.722  48.209  1.00  0.00     0.174 HD
HETATM   20  H2  UNL     1      27.307   5.426  48.757  1.00  0.00     0.174 HD
ENDBRANCH   1  18
BRANCH   8  21
HETATM   21  C14 UNL     1      27.419   1.343  52.486  1.00  0.00     0.060 A 
HETATM   22  C15 UNL     1      28.195   2.059  53.400  1.00  0.00     0.032 A 
HETATM   23  C16 UNL     1      29.083   1.392  54.255  1.00  0.00     0.004 A 
HETATM   24  C17 UNL     1      29.185   0.022  54.187  1.00  0.00     0.019 A 
HETATM   25  C18 UNL     1      28.413  -0.670  53.280  1.00  0.00     0.013 A 
HETATM   26 BR1  UNL     1      28.481  -2.573  53.108  1.00  0.00    -0.051 Br
HETATM   27  C19 UNL     1      27.535  -0.029  52.433  1.00  0.00     0.050 A 
ENDBRANCH   8  21
TORSDOF 4
ENDMDL
MODEL 6
REMARK VINA RESULT:      -8.0      5.291      7.664
REMARK  4 active torsions:
REMARK  status: ('A' for Active; 'I' for Inactive)
REMARK    1  A    between atoms: N1_1  and  C1_2 
REMARK    2  A    between atoms: C3_5  and  C4_6 
REMARK    3  A    between atoms: C4_6  and  C5_7 
REMARK    4  A    between atoms: N3_17  and  C14_18 
ROOT
HETATM    1  C1  UNL     1      23.457   4.166  52.484  1.00  0.00     0.738 A 
HETATM    2  N2  UNL     1      23.688   2.993  53.118  1.00  0.00    -0.059 NA
HETATM    3  C2  UNL     1      23.155   1.871  52.578  1.00  0.00     0.111 A 
HETATM    4  C3  UNL     1      23.122   0.523  52.851  1.00  0.00    -0.022 A 
HETATM    5  C11 UNL     1      22.389  -0.161  51.903  1.00  0.00     0.012 A 
HETATM    6  C12 UNL     1      21.955   0.798  51.016  1.00  0.00     0.035 A 
HETATM    7  C13 UNL     1      22.385   2.068  51.363  1.00  0.00     0.089 A 
HETATM    8  N3  UNL     1      22.169   3.267  50.749  1.00  0.00    -0.216 N 
HETATM    9  N4  UNL     1      22.734   4.297  51.356  1.00  0.00     0.026 NA
ENDROOT
BRANCH   4  10
HETATM   10  C4  UNL     1      23.813  -0.062  54.049  1.00  0.00     0.079 C 
BRANCH  10  11
HETATM   11  C5  UNL     1      25.271  -0.235  53.795  1.00  0.00    -0.054 A 
HETATM   12  C6  UNL     1      25.856  -0.862  52.716  1.00  0.00     0.009 A 
HETATM   13  C7  UNL     1      27.229  -0.919  52.659  1.00  0.00     0.024 A 
HETATM   14  C8  UNL     1      28.078  -0.389  53.612  1.00  0.00     0.034 A 
HETATM   15 CL1  UNL     1      29.822  -0.492  53.485  1.00  0.00    -0.084 Cl
HETATM   16  C9  UNL     1      27.463   0.235  54.686  1.00  0.00     0.024 A 
HETATM   17  C10 UNL     1      26.087   0.319  54.789  1.00  0.00     0.009 A 
ENDBRANCH  10  11
ENDBRANCH   4  10
BRANCH   1  18
HETATM   18  N1  UNL     1      24.033   5.322  53.079  1.00  0.00    -0.230 N 
HETATM   19  H1  UNL     1      24.826   5.144  53.760  1.00  0.00     0.174 HD
HETATM   20  H2  UNL     1      24.053   6.371  53.181  1.00  0.00     0.174 HD
ENDBRANCH   1  18
BRANCH   8  21
HETATM   21  C14 UNL     1      21.384   3.266  49.565  1.00  0.00     0.060 A 
HETATM   22  C15 UNL     1      22.235   3.285  48.458  1.00  0.00     0.032 A 
HETATM   23  C16 UNL     1      21.713   3.290  47.158  1.00  0.00     0.004 A 
HETATM   24  C17 UNL     1      20.349   3.277  46.979  1.00  0.00     0.019 A 
HETATM   25  C18 UNL     1      19.521   3.258  48.081  1.00  0.00     0.013 A 
HETATM   26 BR1  UNL     1      17.615   3.238  47.937  1.00  0.00    -0.051 Br
HETATM   27  C19 UNL     1      20.020   3.252  49.365  1.00  0.00     0.050 A 
ENDBRANCH   8  21
TORSDOF 4
ENDMDL
MODEL 7
REMARK VINA RESULT:      -8.0      2.810      3.818
REMARK  4 active torsions:
REMARK  status: ('A' for Active; 'I' for Inactive)
REMARK    1  A    between atoms: N1_1  and  C1_2 
REMARK    2  A    between atoms: C3_5  and  C4_6 
REMARK    3  A    between atoms: C4_6  and  C5_7 
REMARK    4  A    between atoms: N3_17  and  C14_18 
ROOT
HETATM    1  C1  UNL     1      27.387   1.921  53.190  1.00  0.00     0.738 A 
HETATM    2  N2  UNL     1      27.469   2.618  52.032  1.00  0.00    -0.059 NA
HETATM    3  C2  UNL     1      26.364   2.669  51.250  1.00  0.00     0.111 A 
HETATM    4  C3  UNL     1      25.988   3.225  50.050  1.00  0.00    -0.022 A 
HETATM    5  C11 UNL     1      24.676   2.925  49.748  1.00  0.00     0.012 A 
HETATM    6  C12 UNL     1      24.228   2.156  50.799  1.00  0.00     0.035 A 
HETATM    7  C13 UNL     1      25.206   1.957  51.758  1.00  0.00     0.089 A 
HETATM    8  N3  UNL     1      25.157   1.261  52.932  1.00  0.00    -0.216 N 
HETATM    9  N4  UNL     1      26.286   1.275  53.618  1.00  0.00     0.026 NA
ENDROOT
BRANCH   4  10
HETATM   10  C4  UNL     1      26.938   4.041  49.220  1.00  0.00     0.079 C 
BRANCH  10  11
HETATM   11  C5  UNL     1      26.588   5.489  49.272  1.00  0.00    -0.054 A 
HETATM   12  C6  UNL     1      25.582   6.072  50.014  1.00  0.00     0.009 A 
HETATM   13  C7  UNL     1      25.416   7.434  49.930  1.00  0.00     0.024 A 
HETATM   14  C8  UNL     1      26.188   8.274  49.149  1.00  0.00     0.034 A 
HETATM   15 CL1  UNL     1      25.928  10.005  49.082  1.00  0.00    -0.084 Cl
HETATM   16  C9  UNL     1      27.190   7.661  48.414  1.00  0.00     0.024 A 
HETATM   17  C10 UNL     1      27.398   6.295  48.465  1.00  0.00     0.009 A 
ENDBRANCH  10  11
ENDBRANCH   4  10
BRANCH   1  18
HETATM   18  N1  UNL     1      28.566   1.890  53.985  1.00  0.00    -0.230 N 
HETATM   19  H1  UNL     1      28.432   1.606  54.997  1.00  0.00     0.174 HD
HETATM   20  H2  UNL     1      29.608   2.028  54.061  1.00  0.00     0.174 HD
ENDBRANCH   1  18
BRANCH   8  21
HETATM   21  C14 UNL     1      23.933   0.622  53.265  1.00  0.00     0.060 A 
HETATM   22  C15 UNL     1      24.180  -0.350  54.237  1.00  0.00     0.032 A 
HETATM   23  C16 UNL     1      23.135  -1.133  54.743  1.00  0.00     0.004 A 
HETATM   24  C17 UNL     1      21.856  -0.939  54.272  1.00  0.00     0.019 A 
HETATM   25  C18 UNL     1      21.627   0.024  53.313  1.00  0.00     0.013 A 
HETATM   26 BR1  UNL     1      19.889   0.371  52.596  1.00  0.00    -0.051 Br
HETATM   27  C19 UNL     1      22.645   0.803  52.806  1.00  0.00     0.050 A 
ENDBRANCH   8  21
TORSDOF 4
ENDMDL
MODEL 8
REMARK VINA RESULT:      -7.5      6.937     10.322
REMARK  4 active torsions:
REMARK  status: ('A' for Active; 'I' for Inactive)
REMARK    1  A    between atoms: N1_1  and  C1_2 
REMARK    2  A    between atoms: C3_5  and  C4_6 
REMARK    3  A    between atoms: C4_6  and  C5_7 
REMARK    4  A    between atoms: N3_17  and  C14_18 
ROOT
HETATM    1  C1  UNL     1      20.621   1.502  49.537  1.00  0.00     0.738 A 
HETATM    2  N2  UNL     1      19.541   0.972  50.156  1.00  0.00    -0.059 NA
HETATM    3  C2  UNL     1      19.696   0.538  51.430  1.00  0.00     0.111 A 
HETATM    4  C3  UNL     1      18.926  -0.041  52.411  1.00  0.00    -0.022 A 
HETATM    5  C11 UNL     1      19.663  -0.266  53.557  1.00  0.00     0.012 A 
HETATM    6  C12 UNL     1      20.930   0.190  53.270  1.00  0.00     0.035 A 
HETATM    7  C13 UNL     1      21.028   0.697  51.986  1.00  0.00     0.089 A 
HETATM    8  N3  UNL     1      22.098   1.236  51.332  1.00  0.00    -0.216 N 
HETATM    9  N4  UNL     1      21.839   1.627  50.097  1.00  0.00     0.026 NA
ENDROOT
BRANCH   4  10
HETATM   10  C4  UNL     1      17.476  -0.366  52.196  1.00  0.00     0.079 C 
BRANCH  10  11
HETATM   11  C5  UNL     1      17.151  -1.729  52.702  1.00  0.00    -0.054 A 
HETATM   12  C6  UNL     1      17.944  -2.529  53.498  1.00  0.00     0.009 A 
HETATM   13  C7  UNL     1      17.464  -3.764  53.866  1.00  0.00     0.024 A 
HETATM   14  C8  UNL     1      16.234  -4.272  53.494  1.00  0.00     0.034 A 
HETATM   15 CL1  UNL     1      15.675  -5.855  53.994  1.00  0.00    -0.084 Cl
HETATM   16  C9  UNL     1      15.458  -3.447  52.694  1.00  0.00     0.024 A 
HETATM   17  C10 UNL     1      15.895  -2.197  52.298  1.00  0.00     0.009 A 
ENDBRANCH  10  11
ENDBRANCH   4  10
BRANCH   1  18
HETATM   18  N1  UNL     1      20.421   1.947  48.201  1.00  0.00    -0.230 N 
HETATM   19  H1  UNL     1      20.894   1.372  47.447  1.00  0.00     0.174 HD
HETATM   20  H2  UNL     1      19.988   2.640  47.536  1.00  0.00     0.174 HD
ENDBRANCH   1  18
BRANCH   8  21
HETATM   21  C14 UNL     1      23.329   1.307  52.038  1.00  0.00     0.060 A 
HETATM   22  C15 UNL     1      23.482   2.596  52.553  1.00  0.00     0.032 A 
HETATM   23  C16 UNL     1      24.620   2.937  53.295  1.00  0.00     0.004 A 
HETATM   24  C17 UNL     1      25.592   1.988  53.514  1.00  0.00     0.019 A 
HETATM   25  C18 UNL     1      25.428   0.720  53.000  1.00  0.00     0.013 A 
HETATM   26 BR1  UNL     1      26.720  -0.668  53.248  1.00  0.00    -0.051 Br
HETATM   27  C19 UNL     1      24.313   0.370  52.269  1.00  0.00     0.050 A 
ENDBRANCH   8  21
TORSDOF 4
ENDMDL
MODEL 9
REMARK VINA RESULT:      -7.4      4.953      6.108
REMARK  4 active torsions:
REMARK  status: ('A' for Active; 'I' for Inactive)
REMARK    1  A    between atoms: N1_1  and  C1_2 
REMARK    2  A    between atoms: C3_5  and  C4_6 
REMARK    3  A    between atoms: C4_6  and  C5_7 
REMARK    4  A    between atoms: N3_17  and  C14_18 
ROOT
HETATM    1  C1  UNL     1      23.827   5.409  51.585  1.00  0.00     0.738 A 
HETATM    2  N2  UNL     1      23.470   5.476  50.281  1.00  0.00    -0.059 NA
HETATM    3  C2  UNL     1      23.112   4.323  49.667  1.00  0.00     0.111 A 
HETATM    4  C3  UNL     1      22.695   3.917  48.421  1.00  0.00    -0.022 A 
HETATM    5  C11 UNL     1      22.468   2.556  48.389  1.00  0.00     0.012 A 
HETATM    6  C12 UNL     1      22.755   2.109  49.659  1.00  0.00     0.035 A 
HETATM    7  C13 UNL     1      23.156   3.134  50.499  1.00  0.00     0.089 A 
HETATM    8  N3  UNL     1      23.522   3.100  51.813  1.00  0.00    -0.216 N 
HETATM    9  N4  UNL     1      23.852   4.278  52.315  1.00  0.00     0.026 NA
ENDROOT
BRANCH   4  10
HETATM   10  C4  UNL     1      22.534   4.884  47.284  1.00  0.00     0.079 C 
BRANCH  10  11
HETATM   11  C5  UNL     1      21.356   4.530  46.442  1.00  0.00    -0.054 A 
HETATM   12  C6  UNL     1      20.034   4.505  46.834  1.00  0.00     0.009 A 
HETATM   13  C7  UNL     1      19.084   4.153  45.905  1.00  0.00     0.024 A 
HETATM   14  C8  UNL     1      19.355   3.817  44.592  1.00  0.00     0.034 A 
HETATM   15 CL1  UNL     1      18.101   3.375  43.452  1.00  0.00    -0.084 Cl
HETATM   16  C9  UNL     1      20.692   3.849  44.225  1.00  0.00     0.024 A 
HETATM   17  C10 UNL     1      21.684   4.198  45.122  1.00  0.00     0.009 A 
ENDBRANCH  10  11
ENDBRANCH   4  10
BRANCH   1  18
HETATM   18  N1  UNL     1      24.195   6.640  52.196  1.00  0.00    -0.230 N 
HETATM   19  H1  UNL     1      25.056   6.608  52.814  1.00  0.00     0.174 HD
HETATM   20  H2  UNL     1      24.007   7.665  52.347  1.00  0.00     0.174 HD
ENDBRANCH   1  18
BRANCH   8  21
HETATM   21  C14 UNL     1      23.509   1.839  52.466  1.00  0.00     0.060 A 
HETATM   22  C15 UNL     1      24.804   1.317  52.469  1.00  0.00     0.032 A 
HETATM   23  C16 UNL     1      25.069   0.072  53.054  1.00  0.00     0.004 A 
HETATM   24  C17 UNL     1      24.040  -0.637  53.628  1.00  0.00     0.019 A 
HETATM   25  C18 UNL     1      22.766  -0.110  53.617  1.00  0.00     0.013 A 
HETATM   26 BR1  UNL     1      21.269  -1.017  54.387  1.00  0.00    -0.051 Br
HETATM   27  C19 UNL     1      22.490   1.114  53.046  1.00  0.00     0.050 A 
ENDBRANCH   8  21
TORSDOF 4
ENDMDL
