MODEL 1
REMARK VINA RESULT:      -7.5      0.000      0.000
REMARK  5 active torsions:
REMARK  status: ('A' for Active; 'I' for Inactive)
REMARK    1  A    between atoms: N2_9  and  C8_10 
REMARK    2  A    between atoms: C8_10  and  C9_11 
REMARK    3  A    between atoms: C9_11  and  C10_12 
REMARK    4  A    between atoms: C10_12  and  C11_13 
REMARK    5  A    between atoms: C11_13  and  C12_14 
ROOT
HETATM    1  N1  UNL     1      25.430  -0.985  55.696  1.00  0.00    -0.192 NA
HETATM    2  C1  UNL     1      24.472  -0.888  55.018  1.00  0.00     0.097 C 
HETATM    3  C2  UNL     1      23.279  -0.790  54.186  1.00  0.00     0.040 C 
HETATM    4  C3  UNL     1      22.149  -0.957  54.852  1.00  0.00     0.020 C 
HETATM    5  C4  UNL     1      20.736  -0.949  54.476  1.00  0.00     0.001 C 
HETATM    6  C5  UNL     1      20.039  -0.263  53.553  1.00  0.00     0.001 C 
HETATM    7  C6  UNL     1      20.409   0.757  52.542  1.00  0.00     0.017 C 
HETATM    8  C7  UNL     1      21.602   1.094  52.079  1.00  0.00     0.086 C 
HETATM    9  N2  UNL     1      22.951   0.697  52.288  1.00  0.00    -0.385 N 
HETATM   10  C18 UNL     1      23.619  -0.521  52.742  1.00  0.00     0.172 C 
ENDROOT
BRANCH   9  11
HETATM   11  C8  UNL     1      23.931   1.725  51.985  1.00  0.00     0.122 C 
BRANCH  11  12
HETATM   12  C9  UNL     1      24.334   2.536  53.170  1.00  0.00     0.020 C 
BRANCH  12  13
HETATM   13  C10 UNL     1      25.780   2.294  53.560  1.00  0.00     0.006 C 
BRANCH  13  14
HETATM   14  C11 UNL     1      26.559   1.826  52.373  1.00  0.00     0.038 C 
BRANCH  14  15
HETATM   15  C12 UNL     1      27.478   0.715  52.765  1.00  0.00    -0.058 A 
HETATM   16  C13 UNL     1      27.218  -0.648  52.551  1.00  0.00     0.007 A 
HETATM   17  C14 UNL     1      28.173  -1.547  52.977  1.00  0.00     0.001 A 
HETATM   18  C15 UNL     1      29.351  -1.221  53.590  1.00  0.00     0.000 A 
HETATM   19  C16 UNL     1      29.628   0.123  53.811  1.00  0.00     0.001 A 
HETATM   20  C17 UNL     1      28.673   1.033  53.387  1.00  0.00     0.007 A 
ENDBRANCH  14  15
ENDBRANCH  13  14
ENDBRANCH  12  13
ENDBRANCH  11  12
ENDBRANCH   9  11
TORSDOF 5
ENDMDL
MODEL 2
REMARK VINA RESULT:      -7.1      3.088      4.553
REMARK  5 active torsions:
REMARK  status: ('A' for Active; 'I' for Inactive)
REMARK    1  A    between atoms: N2_9  and  C8_10 
REMARK    2  A    between atoms: C8_10  and  C9_11 
REMARK    3  A    between atoms: C9_11  and  C10_12 
REMARK    4  A    between atoms: C10_12  and  C11_13 
REMARK    5  A    between atoms: C11_13  and  C12_14 
ROOT
HETATM    1  N1  UNL     1      27.724  -0.070  54.978  1.00  0.00    -0.192 NA
HETATM    2  C1  UNL     1      26.601  -0.203  54.650  1.00  0.00     0.097 C 
HETATM    3  C2  UNL     1      25.212  -0.392  54.249  1.00  0.00     0.040 C 
HETATM    4  C3  UNL     1      24.465  -0.974  55.172  1.00  0.00     0.020 C 
HETATM    5  C4  UNL     1      23.058  -1.367  55.244  1.00  0.00     0.001 C 
HETATM    6  C5  UNL     1      21.934  -0.836  54.731  1.00  0.00     0.001 C 
HETATM    7  C6  UNL     1      21.656   0.353  53.889  1.00  0.00     0.017 C 
HETATM    8  C7  UNL     1      22.485   1.093  53.171  1.00  0.00     0.086 C 
HETATM    9  N2  UNL     1      23.877   1.116  52.883  1.00  0.00    -0.385 N 
HETATM   10  C18 UNL     1      24.951   0.125  52.858  1.00  0.00     0.172 C 
ENDROOT
BRANCH   9  11
HETATM   11  C8  UNL     1      24.392   2.425  52.521  1.00  0.00     0.122 C 
BRANCH  11  12
HETATM   12  C9  UNL     1      23.345   3.363  52.024  1.00  0.00     0.020 C 
BRANCH  12  13
HETATM   13  C10 UNL     1      23.452   3.596  50.528  1.00  0.00     0.006 C 
BRANCH  13  14
HETATM   14  C11 UNL     1      24.778   3.116  50.030  1.00  0.00     0.038 C 
BRANCH  14  15
HETATM   15  C12 UNL     1      25.551   4.253  49.446  1.00  0.00    -0.058 A 
HETATM   16  C13 UNL     1      25.004   5.503  49.114  1.00  0.00     0.007 A 
HETATM   17  C14 UNL     1      25.858   6.444  48.580  1.00  0.00     0.001 A 
HETATM   18  C15 UNL     1      27.194   6.262  48.348  1.00  0.00     0.000 A 
HETATM   19  C16 UNL     1      27.756   5.032  48.670  1.00  0.00     0.001 A 
HETATM   20  C17 UNL     1      26.904   4.080  49.206  1.00  0.00     0.007 A 
ENDBRANCH  14  15
ENDBRANCH  13  14
ENDBRANCH  12  13
ENDBRANCH  11  12
ENDBRANCH   9  11
TORSDOF 5
ENDMDL
MODEL 3
REMARK VINA RESULT:      -7.0      1.219      1.613
REMARK  5 active torsions:
REMARK  status: ('A' for Active; 'I' for Inactive)
REMARK    1  A    between atoms: N2_9  and  C8_10 
REMARK    2  A    between atoms: C8_10  and  C9_11 
REMARK    3  A    between atoms: C9_11  and  C10_12 
REMARK    4  A    between atoms: C10_12  and  C11_13 
REMARK    5  A    between atoms: C11_13  and  C12_14 
ROOT
HETATM    1  N1  UNL     1      22.739  -1.670  55.691  1.00  0.00    -0.192 NA
HETATM    2  C1  UNL     1      22.164  -1.240  54.757  1.00  0.00     0.097 C 
HETATM    3  C2  UNL     1      21.442  -0.728  53.599  1.00  0.00     0.040 C 
HETATM    4  C3  UNL     1      20.128  -0.837  53.700  1.00  0.00     0.020 C 
HETATM    5  C4  UNL     1      19.007  -0.480  52.830  1.00  0.00     0.001 C 
HETATM    6  C5  UNL     1      18.814   0.523  51.955  1.00  0.00     0.001 C 
HETATM    7  C6  UNL     1      19.645   1.668  51.511  1.00  0.00     0.017 C 
HETATM    8  C7  UNL     1      20.942   1.880  51.662  1.00  0.00     0.086 C 
HETATM    9  N2  UNL     1      22.047   1.203  52.247  1.00  0.00    -0.385 N 
HETATM   10  C18 UNL     1      22.375  -0.190  52.545  1.00  0.00     0.172 C 
ENDROOT
BRANCH   9  11
HETATM   11  C8  UNL     1      23.133   2.074  52.660  1.00  0.00     0.122 C 
BRANCH  11  12
HETATM   12  C9  UNL     1      24.288   2.076  51.717  1.00  0.00     0.020 C 
BRANCH  12  13
HETATM   13  C10 UNL     1      25.590   1.722  52.412  1.00  0.00     0.006 C 
BRANCH  13  14
HETATM   14  C11 UNL     1      25.926   0.286  52.166  1.00  0.00     0.038 C 
BRANCH  14  15
HETATM   15  C12 UNL     1      27.272  -0.032  52.731  1.00  0.00    -0.058 A 
HETATM   16  C13 UNL     1      27.793  -1.328  52.870  1.00  0.00     0.007 A 
HETATM   17  C14 UNL     1      29.054  -1.447  53.415  1.00  0.00     0.001 A 
HETATM   18  C15 UNL     1      29.839  -0.406  53.830  1.00  0.00     0.000 A 
HETATM   19  C16 UNL     1      29.343   0.886  53.701  1.00  0.00     0.001 A 
HETATM   20  C17 UNL     1      28.076   1.013  53.155  1.00  0.00     0.007 A 
ENDBRANCH  14  15
ENDBRANCH  13  14
ENDBRANCH  12  13
ENDBRANCH  11  12
ENDBRANCH   9  11
TORSDOF 5
ENDMDL
MODEL 4
REMARK VINA RESULT:      -6.7      3.496      5.358
REMARK  5 active torsions:
REMARK  status: ('A' for Active; 'I' for Inactive)
REMARK    1  A    between atoms: N2_9  and  C8_10 
REMARK    2  A    between atoms: C8_10  and  C9_11 
REMARK    3  A    between atoms: C9_11  and  C10_12 
REMARK    4  A    between atoms: C10_12  and  C11_13 
REMARK    5  A    between atoms: C11_13  and  C12_14 
ROOT
HETATM    1  N1  UNL     1      20.856   0.526  50.772  1.00  0.00    -0.192 NA
HETATM    2  C1  UNL     1      21.535   0.416  51.729  1.00  0.00     0.097 C 
HETATM    3  C2  UNL     1      22.355   0.278  52.926  1.00  0.00     0.040 C 
HETATM    4  C3  UNL     1      22.052  -0.778  53.661  1.00  0.00     0.020 C 
HETATM    5  C4  UNL     1      22.572  -1.330  54.912  1.00  0.00     0.001 C 
HETATM    6  C5  UNL     1      23.800  -1.355  55.460  1.00  0.00     0.001 C 
HETATM    7  C6  UNL     1      25.122  -0.839  55.030  1.00  0.00     0.017 C 
HETATM    8  C7  UNL     1      25.421   0.040  54.088  1.00  0.00     0.086 C 
HETATM    9  N2  UNL     1      24.715   0.831  53.140  1.00  0.00    -0.385 N 
HETATM   10  C18 UNL     1      23.368   1.388  53.047  1.00  0.00     0.172 C 
ENDROOT
BRANCH   9  11
HETATM   11  C8  UNL     1      25.492   1.194  51.968  1.00  0.00     0.122 C 
BRANCH  11  12
HETATM   12  C9  UNL     1      24.818   2.193  51.089  1.00  0.00     0.020 C 
BRANCH  12  13
HETATM   13  C10 UNL     1      25.749   3.326  50.697  1.00  0.00     0.006 C 
BRANCH  13  14
HETATM   14  C11 UNL     1      25.194   4.059  49.518  1.00  0.00     0.038 C 
BRANCH  14  15
HETATM   15  C12 UNL     1      26.205   5.021  48.987  1.00  0.00    -0.058 A 
HETATM   16  C13 UNL     1      25.932   6.351  48.631  1.00  0.00     0.007 A 
HETATM   17  C14 UNL     1      26.982   7.106  48.154  1.00  0.00     0.001 A 
HETATM   18  C15 UNL     1      28.268   6.667  47.998  1.00  0.00     0.000 A 
HETATM   19  C16 UNL     1      28.561   5.353  48.345  1.00  0.00     0.001 A 
HETATM   20  C17 UNL     1      27.510   4.587  48.825  1.00  0.00     0.007 A 
ENDBRANCH  14  15
ENDBRANCH  13  14
ENDBRANCH  12  13
ENDBRANCH  11  12
ENDBRANCH   9  11
TORSDOF 5
ENDMDL
MODEL 5
REMARK VINA RESULT:      -6.7      2.539      4.255
REMARK  5 active torsions:
REMARK  status: ('A' for Active; 'I' for Inactive)
REMARK    1  A    between atoms: N2_9  and  C8_10 
REMARK    2  A    between atoms: C8_10  and  C9_11 
REMARK    3  A    between atoms: C9_11  and  C10_12 
REMARK    4  A    between atoms: C10_12  and  C11_13 
REMARK    5  A    between atoms: C11_13  and  C12_14 
ROOT
HETATM    1  N1  UNL     1      25.196   5.505  50.437  1.00  0.00    -0.192 NA
HETATM    2  C1  UNL     1      24.314   4.763  50.191  1.00  0.00     0.097 C 
HETATM    3  C2  UNL     1      23.219   3.858  49.866  1.00  0.00     0.040 C 
HETATM    4  C3  UNL     1      23.338   3.280  48.682  1.00  0.00     0.020 C 
HETATM    5  C4  UNL     1      22.526   2.325  47.930  1.00  0.00     0.001 C 
HETATM    6  C5  UNL     1      21.743   1.297  48.304  1.00  0.00     0.001 C 
HETATM    7  C6  UNL     1      21.380   0.714  49.618  1.00  0.00     0.017 C 
HETATM    8  C7  UNL     1      21.520   1.216  50.834  1.00  0.00     0.086 C 
HETATM    9  N2  UNL     1      22.022   2.412  51.415  1.00  0.00    -0.385 N 
HETATM   10  C18 UNL     1      22.194   3.793  50.969  1.00  0.00     0.172 C 
ENDROOT
BRANCH   9  11
HETATM   11  C8  UNL     1      22.483   2.265  52.784  1.00  0.00     0.122 C 
BRANCH  11  12
HETATM   12  C9  UNL     1      23.658   1.358  52.926  1.00  0.00     0.020 C 
BRANCH  12  13
HETATM   13  C10 UNL     1      24.973   2.104  52.793  1.00  0.00     0.006 C 
BRANCH  13  14
HETATM   14  C11 UNL     1      25.831   1.449  51.759  1.00  0.00     0.038 C 
BRANCH  14  15
HETATM   15  C12 UNL     1      26.950   0.707  52.414  1.00  0.00    -0.058 A 
HETATM   16  C13 UNL     1      27.074  -0.691  52.439  1.00  0.00     0.007 A 
HETATM   17  C14 UNL     1      28.170  -1.216  53.091  1.00  0.00     0.001 A 
HETATM   18  C15 UNL     1      29.146  -0.488  53.714  1.00  0.00     0.000 A 
HETATM   19  C16 UNL     1      29.043   0.899  53.700  1.00  0.00     0.001 A 
HETATM   20  C17 UNL     1      27.944   1.434  53.048  1.00  0.00     0.007 A 
ENDBRANCH  14  15
ENDBRANCH  13  14
ENDBRANCH  12  13
ENDBRANCH  11  12
ENDBRANCH   9  11
TORSDOF 5
ENDMDL
MODEL 6
REMARK VINA RESULT:      -6.6      3.186      5.638
REMARK  5 active torsions:
REMARK  status: ('A' for Active; 'I' for Inactive)
REMARK    1  A    between atoms: N2_9  and  C8_10 
REMARK    2  A    between atoms: C8_10  and  C9_11 
REMARK    3  A    between atoms: C9_11  and  C10_12 
REMARK    4  A    between atoms: C10_12  and  C11_13 
REMARK    5  A    between atoms: C11_13  and  C12_14 
ROOT
HETATM    1  N1  UNL     1      21.305   5.513  51.123  1.00  0.00    -0.192 NA
HETATM    2  C1  UNL     1      22.301   5.262  50.547  1.00  0.00     0.097 C 
HETATM    3  C2  UNL     1      23.527   4.967  49.816  1.00  0.00     0.040 C 
HETATM    4  C3  UNL     1      24.246   6.038  49.526  1.00  0.00     0.020 C 
HETATM    5  C4  UNL     1      25.513   6.255  48.829  1.00  0.00     0.001 C 
HETATM    6  C5  UNL     1      26.640   5.527  48.733  1.00  0.00     0.001 C 
HETATM    7  C6  UNL     1      27.061   4.217  49.286  1.00  0.00     0.017 C 
HETATM    8  C7  UNL     1      26.332   3.254  49.825  1.00  0.00     0.086 C 
HETATM    9  N2  UNL     1      24.958   3.021  50.108  1.00  0.00    -0.385 N 
HETATM   10  C18 UNL     1      23.688   3.491  49.558  1.00  0.00     0.172 C 
ENDROOT
BRANCH   9  11
HETATM   11  C8  UNL     1      24.720   2.094  51.201  1.00  0.00     0.122 C 
BRANCH  11  12
HETATM   12  C9  UNL     1      24.938   2.691  52.550  1.00  0.00     0.020 C 
BRANCH  12  13
HETATM   13  C10 UNL     1      25.750   1.781  53.452  1.00  0.00     0.006 C 
BRANCH  13  14
HETATM   14  C11 UNL     1      25.482   0.350  53.109  1.00  0.00     0.038 C 
BRANCH  14  15
HETATM   15  C12 UNL     1      26.750  -0.437  53.154  1.00  0.00    -0.058 A 
HETATM   16  C13 UNL     1      26.883  -1.763  52.714  1.00  0.00     0.007 A 
HETATM   17  C14 UNL     1      28.127  -2.346  52.829  1.00  0.00     0.001 A 
HETATM   18  C15 UNL     1      29.243  -1.739  53.337  1.00  0.00     0.000 A 
HETATM   19  C16 UNL     1      29.134  -0.425  53.779  1.00  0.00     0.001 A 
HETATM   20  C17 UNL     1      27.886   0.167  53.667  1.00  0.00     0.007 A 
ENDBRANCH  14  15
ENDBRANCH  13  14
ENDBRANCH  12  13
ENDBRANCH  11  12
ENDBRANCH   9  11
TORSDOF 5
ENDMDL
MODEL 7
REMARK VINA RESULT:      -6.6      2.385      6.433
REMARK  5 active torsions:
REMARK  status: ('A' for Active; 'I' for Inactive)
REMARK    1  A    between atoms: N2_9  and  C8_10 
REMARK    2  A    between atoms: C8_10  and  C9_11 
REMARK    3  A    between atoms: C9_11  and  C10_12 
REMARK    4  A    between atoms: C10_12  and  C11_13 
REMARK    5  A    between atoms: C11_13  and  C12_14 
ROOT
HETATM    1  N1  UNL     1      26.197   3.813  50.358  1.00  0.00    -0.192 NA
HETATM    2  C1  UNL     1      26.513   2.952  51.098  1.00  0.00     0.097 C 
HETATM    3  C2  UNL     1      26.926   1.887  52.002  1.00  0.00     0.040 C 
HETATM    4  C3  UNL     1      28.054   2.138  52.643  1.00  0.00     0.020 C 
HETATM    5  C4  UNL     1      28.853   1.405  53.625  1.00  0.00     0.001 C 
HETATM    6  C5  UNL     1      28.528   0.558  54.618  1.00  0.00     0.001 C 
HETATM    7  C6  UNL     1      27.242   0.023  55.126  1.00  0.00     0.017 C 
HETATM    8  C7  UNL     1      26.045   0.023  54.563  1.00  0.00     0.086 C 
HETATM    9  N2  UNL     1      25.467   0.475  53.345  1.00  0.00    -0.385 N 
HETATM   10  C18 UNL     1      25.957   0.731  51.992  1.00  0.00     0.172 C 
ENDROOT
BRANCH   9  11
HETATM   11  C8  UNL     1      24.045   0.760  53.426  1.00  0.00     0.122 C 
BRANCH  11  12
HETATM   12  C9  UNL     1      23.184  -0.449  53.289  1.00  0.00     0.020 C 
BRANCH  12  13
HETATM   13  C10 UNL     1      22.048  -0.231  52.307  1.00  0.00     0.006 C 
BRANCH  13  14
HETATM   14  C11 UNL     1      21.866   1.231  52.052  1.00  0.00     0.038 C 
BRANCH  14  15
HETATM   15  C12 UNL     1      22.005   1.520  50.593  1.00  0.00    -0.058 A 
HETATM   16  C13 UNL     1      21.260   0.895  49.581  1.00  0.00     0.007 A 
HETATM   17  C14 UNL     1      21.514   1.278  48.281  1.00  0.00     0.001 A 
HETATM   18  C15 UNL     1      22.432   2.216  47.897  1.00  0.00     0.000 A 
HETATM   19  C16 UNL     1      23.181   2.848  48.883  1.00  0.00     0.001 A 
HETATM   20  C17 UNL     1      22.931   2.468  50.192  1.00  0.00     0.007 A 
ENDBRANCH  14  15
ENDBRANCH  13  14
ENDBRANCH  12  13
ENDBRANCH  11  12
ENDBRANCH   9  11
TORSDOF 5
ENDMDL
MODEL 8
REMARK VINA RESULT:      -6.5      3.398      5.393
REMARK  5 active torsions:
REMARK  status: ('A' for Active; 'I' for Inactive)
REMARK    1  A    between atoms: N2_9  and  C8_10 
REMARK    2  A    between atoms: C8_10  and  C9_11 
REMARK    3  A    between atoms: C9_11  and  C10_12 
REMARK    4  A    between atoms: C10_12  and  C11_13 
REMARK    5  A    between atoms: C11_13  and  C12_14 
ROOT
HETATM    1  N1  UNL     1      18.554  -0.034  51.412  1.00  0.00    -0.192 NA
HETATM    2  C1  UNL     1      19.479   0.002  52.141  1.00  0.00     0.097 C 
HETATM    3  C2  UNL     1      20.608   0.042  53.062  1.00  0.00     0.040 C 
HETATM    4  C3  UNL     1      20.724  -1.041  53.811  1.00  0.00     0.020 C 
HETATM    5  C4  UNL     1      21.662  -1.465  54.850  1.00  0.00     0.001 C 
HETATM    6  C5  UNL     1      22.976  -1.245  55.039  1.00  0.00     0.001 C 
HETATM    7  C6  UNL     1      24.006  -0.492  54.285  1.00  0.00     0.017 C 
HETATM    8  C7  UNL     1      23.863   0.414  53.332  1.00  0.00     0.086 C 
HETATM    9  N2  UNL     1      22.787   1.040  52.644  1.00  0.00    -0.385 N 
HETATM   10  C18 UNL     1      21.386   1.328  52.944  1.00  0.00     0.172 C 
ENDROOT
BRANCH   9  11
HETATM   11  C8  UNL     1      23.128   1.528  51.319  1.00  0.00     0.122 C 
BRANCH  11  12
HETATM   12  C9  UNL     1      24.572   1.861  51.156  1.00  0.00     0.020 C 
BRANCH  12  13
HETATM   13  C10 UNL     1      24.786   3.015  50.195  1.00  0.00     0.006 C 
BRANCH  13  14
HETATM   14  C11 UNL     1      26.242   3.165  49.891  1.00  0.00     0.038 C 
BRANCH  14  15
HETATM   15  C12 UNL     1      26.498   4.480  49.230  1.00  0.00    -0.058 A 
HETATM   16  C13 UNL     1      27.739   4.887  48.716  1.00  0.00     0.007 A 
HETATM   17  C14 UNL     1      27.804   6.137  48.139  1.00  0.00     0.001 A 
HETATM   18  C15 UNL     1      26.760   7.013  48.025  1.00  0.00     0.000 A 
HETATM   19  C16 UNL     1      25.522   6.630  48.528  1.00  0.00     0.001 A 
HETATM   20  C17 UNL     1      25.448   5.375  49.110  1.00  0.00     0.007 A 
ENDBRANCH  14  15
ENDBRANCH  13  14
ENDBRANCH  12  13
ENDBRANCH  11  12
ENDBRANCH   9  11
TORSDOF 5
ENDMDL
MODEL 9
REMARK VINA RESULT:      -6.4      1.713      3.376
REMARK  5 active torsions:
REMARK  status: ('A' for Active; 'I' for Inactive)
REMARK    1  A    between atoms: N2_9  and  C8_10 
REMARK    2  A    between atoms: C8_10  and  C9_11 
REMARK    3  A    between atoms: C9_11  and  C10_12 
REMARK    4  A    between atoms: C10_12  and  C11_13 
REMARK    5  A    between atoms: C11_13  and  C12_14 
ROOT
HETATM    1  N1  UNL     1      21.984   1.594  47.922  1.00  0.00    -0.192 NA
HETATM    2  C1  UNL     1      21.500   1.439  48.985  1.00  0.00     0.097 C 
HETATM    3  C2  UNL     1      20.882   1.258  50.292  1.00  0.00     0.040 C 
HETATM    4  C3  UNL     1      19.737   0.597  50.253  1.00  0.00     0.020 C 
HETATM    5  C4  UNL     1      18.770   0.176  51.266  1.00  0.00     0.001 C 
HETATM    6  C5  UNL     1      18.899  -0.210  52.549  1.00  0.00     0.001 C 
HETATM    7  C6  UNL     1      20.060  -0.365  53.458  1.00  0.00     0.017 C 
HETATM    8  C7  UNL     1      21.295   0.094  53.339  1.00  0.00     0.086 C 
HETATM    9  N2  UNL     1      22.032   0.868  52.401  1.00  0.00    -0.385 N 
HETATM   10  C18 UNL     1      21.702   1.876  51.395  1.00  0.00     0.172 C 
ENDROOT
BRANCH   9  11
HETATM   11  C8  UNL     1      23.464   0.627  52.420  1.00  0.00     0.122 C 
BRANCH  11  12
HETATM   12  C9  UNL     1      24.214   1.550  53.321  1.00  0.00     0.020 C 
BRANCH  12  13
HETATM   13  C10 UNL     1      25.181   2.433  52.554  1.00  0.00     0.006 C 
BRANCH  13  14
HETATM   14  C11 UNL     1      26.021   1.599  51.640  1.00  0.00     0.038 C 
BRANCH  14  15
HETATM   15  C12 UNL     1      27.087   0.898  52.418  1.00  0.00    -0.058 A 
HETATM   16  C13 UNL     1      27.214  -0.496  52.520  1.00  0.00     0.007 A 
HETATM   17  C14 UNL     1      28.256  -0.981  53.282  1.00  0.00     0.001 A 
HETATM   18  C15 UNL     1      29.176  -0.216  53.946  1.00  0.00     0.000 A 
HETATM   19  C16 UNL     1      29.068   1.167  53.858  1.00  0.00     0.001 A 
HETATM   20  C17 UNL     1      28.023   1.662  53.094  1.00  0.00     0.007 A 
ENDBRANCH  14  15
ENDBRANCH  13  14
ENDBRANCH  12  13
ENDBRANCH  11  12
ENDBRANCH   9  11
TORSDOF 5
ENDMDL
