MODEL 1
REMARK VINA RESULT:      -8.6      0.000      0.000
REMARK  4 active torsions:
REMARK  status: ('A' for Active; 'I' for Inactive)
REMARK    1  A    between atoms: C2_2  and  C3_4 
REMARK    2  A    between atoms: C3_4  and  C4_5 
REMARK    3  A    between atoms: C4_5  and  C5_6 
REMARK    4  A    between atoms: C6_7  and  C7_8 
ROOT
HETATM    1  C7  UNL     1      25.843   0.455  53.131  1.00  0.00     0.166 A 
HETATM    2  C8  UNL     1      26.098   1.837  53.616  1.00  0.00     0.236 A 
HETATM    3  O2  UNL     1      25.020   2.517  53.482  1.00  0.00    -0.272 OA
HETATM    4  N1  UNL     1      27.431   2.011  54.077  1.00  0.00    -0.326 N 
HETATM    5  C9  UNL     1      28.076   0.770  53.817  1.00  0.00     0.042 A 
HETATM    6  C10 UNL     1      29.410   0.541  54.084  1.00  0.00     0.030 A 
HETATM    7  C11 UNL     1      29.960  -0.679  53.754  1.00  0.00     0.003 A 
HETATM    8  C12 UNL     1      29.142  -1.619  53.165  1.00  0.00     0.007 A 
HETATM    9  C13 UNL     1      27.819  -1.319  52.929  1.00  0.00    -0.052 A 
HETATM   10  C14 UNL     1      27.046  -2.415  52.278  1.00  0.00     0.049 C 
HETATM   11  C15 UNL     1      27.207  -0.127  53.234  1.00  0.00    -0.006 A 
HETATM   12  H9  UNL     1      27.647   2.944  54.483  1.00  0.00     0.169 HD
ENDROOT
BRANCH   1  13
HETATM   13  C6  UNL     1      24.994  -0.308  54.083  1.00  0.00     0.054 C 
HETATM   14  C5  UNL     1      23.739  -0.688  54.115  1.00  0.00    -0.028 C 
HETATM   15  C16 UNL     1      23.489  -1.454  55.391  1.00  0.00     0.237 C 
HETATM   16  O3  UNL     1      24.548  -1.024  56.194  1.00  0.00    -0.276 OA
HETATM   17  N2  UNL     1      25.558  -0.786  55.296  1.00  0.00    -0.269 N 
HETATM   18  H16 UNL     1      26.502  -1.003  55.680  1.00  0.00     0.194 HD
BRANCH  14  19
HETATM   19  C4  UNL     1      22.602  -0.516  53.199  1.00  0.00     0.046 C 
BRANCH  19  20
HETATM   20  C3  UNL     1      21.352  -0.973  53.964  1.00  0.00     0.082 C 
BRANCH  20  21
HETATM   21  C2  UNL     1      20.153  -0.243  53.500  1.00  0.00     0.123 C 
HETATM   22  C1  UNL     1      20.381   1.170  53.076  1.00  0.00     0.091 C 
HETATM   23  O1  UNL     1      19.043  -0.752  53.461  1.00  0.00    -0.298 OA
ENDBRANCH  20  21
ENDBRANCH  19  20
ENDBRANCH  14  19
ENDBRANCH   1  13
TORSDOF 4
ENDMDL
MODEL 2
REMARK VINA RESULT:      -7.6      3.156      6.226
REMARK  4 active torsions:
REMARK  status: ('A' for Active; 'I' for Inactive)
REMARK    1  A    between atoms: C2_2  and  C3_4 
REMARK    2  A    between atoms: C3_4  and  C4_5 
REMARK    3  A    between atoms: C4_5  and  C5_6 
REMARK    4  A    between atoms: C6_7  and  C7_8 
ROOT
HETATM    1  C7  UNL     1      24.498   0.948  51.947  1.00  0.00     0.166 A 
HETATM    2  C8  UNL     1      25.634   0.657  52.859  1.00  0.00     0.236 A 
HETATM    3  O2  UNL     1      26.705   1.124  52.331  1.00  0.00    -0.272 OA
HETATM    4  N1  UNL     1      25.225  -0.041  54.027  1.00  0.00    -0.326 N 
HETATM    5  C9  UNL     1      23.836  -0.284  53.844  1.00  0.00     0.042 A 
HETATM    6  C10 UNL     1      23.065  -0.984  54.750  1.00  0.00     0.030 A 
HETATM    7  C11 UNL     1      21.736  -1.211  54.465  1.00  0.00     0.003 A 
HETATM    8  C12 UNL     1      21.237  -0.725  53.276  1.00  0.00     0.007 A 
HETATM    9  C13 UNL     1      22.067  -0.034  52.421  1.00  0.00    -0.052 A 
HETATM   10  C14 UNL     1      21.410   0.428  51.165  1.00  0.00     0.049 C 
HETATM   11  C15 UNL     1      23.398   0.230  52.643  1.00  0.00    -0.006 A 
HETATM   12  H9  UNL     1      25.973  -0.218  54.729  1.00  0.00     0.169 HD
ENDROOT
BRANCH   1  13
HETATM   13  C6  UNL     1      24.132   2.388  51.973  1.00  0.00     0.054 C 
HETATM   14  C5  UNL     1      24.062   3.349  51.082  1.00  0.00    -0.028 C 
HETATM   15  C16 UNL     1      23.615   4.619  51.763  1.00  0.00     0.237 C 
HETATM   16  O3  UNL     1      23.929   4.354  53.097  1.00  0.00    -0.276 OA
HETATM   17  N2  UNL     1      23.764   2.995  53.203  1.00  0.00    -0.269 N 
HETATM   18  H16 UNL     1      23.411   2.701  54.138  1.00  0.00     0.194 HD
BRANCH  14  19
HETATM   19  C4  UNL     1      24.321   3.414  49.636  1.00  0.00     0.046 C 
BRANCH  19  20
HETATM   20  C3  UNL     1      25.237   4.625  49.412  1.00  0.00     0.082 C 
BRANCH  20  21
HETATM   21  C2  UNL     1      26.645   4.199  49.257  1.00  0.00     0.123 C 
HETATM   22  C1  UNL     1      27.550   5.186  48.597  1.00  0.00     0.091 C 
HETATM   23  O1  UNL     1      27.053   3.112  49.639  1.00  0.00    -0.298 OA
ENDBRANCH  20  21
ENDBRANCH  19  20
ENDBRANCH  14  19
ENDBRANCH   1  13
TORSDOF 4
ENDMDL
MODEL 3
REMARK VINA RESULT:      -7.6      3.200      5.094
REMARK  4 active torsions:
REMARK  status: ('A' for Active; 'I' for Inactive)
REMARK    1  A    between atoms: C2_2  and  C3_4 
REMARK    2  A    between atoms: C3_4  and  C4_5 
REMARK    3  A    between atoms: C4_5  and  C5_6 
REMARK    4  A    between atoms: C6_7  and  C7_8 
ROOT
HETATM    1  C7  UNL     1      24.262   1.195  51.959  1.00  0.00     0.166 A 
HETATM    2  C8  UNL     1      25.726   1.144  52.208  1.00  0.00     0.236 A 
HETATM    3  O2  UNL     1      26.317   1.783  51.267  1.00  0.00    -0.272 OA
HETATM    4  N1  UNL     1      26.050   0.419  53.386  1.00  0.00    -0.326 N 
HETATM    5  C9  UNL     1      24.807  -0.079  53.866  1.00  0.00     0.042 A 
HETATM    6  C10 UNL     1      24.694  -0.880  54.984  1.00  0.00     0.030 A 
HETATM    7  C11 UNL     1      23.452  -1.355  55.346  1.00  0.00     0.003 A 
HETATM    8  C12 UNL     1      22.372  -1.004  54.565  1.00  0.00     0.007 A 
HETATM    9  C13 UNL     1      22.562  -0.199  53.463  1.00  0.00    -0.052 A 
HETATM   10  C14 UNL     1      21.318   0.097  52.697  1.00  0.00     0.049 C 
HETATM   11  C15 UNL     1      23.769   0.310  53.047  1.00  0.00    -0.006 A 
HETATM   12  H9  UNL     1      27.059   0.403  53.640  1.00  0.00     0.169 HD
ENDROOT
BRANCH   1  13
HETATM   13  C6  UNL     1      23.707   2.545  52.242  1.00  0.00     0.054 C 
HETATM   14  C5  UNL     1      22.730   3.273  51.755  1.00  0.00    -0.028 C 
HETATM   15  C16 UNL     1      22.681   4.588  52.493  1.00  0.00     0.237 C 
HETATM   16  O3  UNL     1      23.968   4.661  53.032  1.00  0.00    -0.276 OA
HETATM   17  N2  UNL     1      24.299   3.348  53.254  1.00  0.00    -0.269 N 
HETATM   18  H16 UNL     1      24.898   3.217  54.096  1.00  0.00     0.194 HD
BRANCH  14  19
HETATM   19  C4  UNL     1      21.738   3.059  50.691  1.00  0.00     0.046 C 
BRANCH  19  20
HETATM   20  C3  UNL     1      22.490   3.191  49.360  1.00  0.00     0.082 C 
BRANCH  20  21
HETATM   21  C2  UNL     1      22.232   2.022  48.491  1.00  0.00     0.123 C 
HETATM   22  C1  UNL     1      21.378   0.952  49.084  1.00  0.00     0.091 C 
HETATM   23  O1  UNL     1      22.683   1.928  47.360  1.00  0.00    -0.298 OA
ENDBRANCH  20  21
ENDBRANCH  19  20
ENDBRANCH  14  19
ENDBRANCH   1  13
TORSDOF 4
ENDMDL
MODEL 4
REMARK VINA RESULT:      -7.5      2.898      6.556
REMARK  4 active torsions:
REMARK  status: ('A' for Active; 'I' for Inactive)
REMARK    1  A    between atoms: C2_2  and  C3_4 
REMARK    2  A    between atoms: C3_4  and  C4_5 
REMARK    3  A    between atoms: C4_5  and  C5_6 
REMARK    4  A    between atoms: C6_7  and  C7_8 
ROOT
HETATM    1  C7  UNL     1      23.615   2.891  52.992  1.00  0.00     0.166 A 
HETATM    2  C8  UNL     1      23.060   4.120  52.367  1.00  0.00     0.236 A 
HETATM    3  O2  UNL     1      23.711   5.129  52.815  1.00  0.00    -0.272 OA
HETATM    4  N1  UNL     1      21.991   3.839  51.475  1.00  0.00    -0.326 N 
HETATM    5  C9  UNL     1      21.786   2.434  51.576  1.00  0.00     0.042 A 
HETATM    6  C10 UNL     1      20.794   1.764  50.890  1.00  0.00     0.030 A 
HETATM    7  C11 UNL     1      20.641   0.408  51.088  1.00  0.00     0.003 A 
HETATM    8  C12 UNL     1      21.493  -0.216  51.973  1.00  0.00     0.007 A 
HETATM    9  C13 UNL     1      22.459   0.519  52.622  1.00  0.00    -0.052 A 
HETATM   10  C14 UNL     1      23.307  -0.271  53.561  1.00  0.00     0.049 C 
HETATM   11  C15 UNL     1      22.669   1.869  52.471  1.00  0.00    -0.006 A 
HETATM   12  H9  UNL     1      21.605   4.659  50.964  1.00  0.00     0.169 HD
ENDROOT
BRANCH   1  13
HETATM   13  C6  UNL     1      24.947   2.546  52.429  1.00  0.00     0.054 C 
HETATM   14  C5  UNL     1      26.022   1.945  52.880  1.00  0.00    -0.028 C 
HETATM   15  C16 UNL     1      27.061   1.911  51.787  1.00  0.00     0.237 C 
HETATM   16  O3  UNL     1      26.623   2.936  50.945  1.00  0.00    -0.276 OA
HETATM   17  N2  UNL     1      25.259   2.915  51.093  1.00  0.00    -0.269 N 
HETATM   18  H16 UNL     1      24.752   3.165  50.219  1.00  0.00     0.194 HD
BRANCH  14  19
HETATM   19  C4  UNL     1      26.381   1.338  54.170  1.00  0.00     0.046 C 
BRANCH  19  20
HETATM   20  C3  UNL     1      27.209   0.087  53.848  1.00  0.00     0.082 C 
BRANCH  20  21
HETATM   21  C2  UNL     1      28.586   0.217  54.373  1.00  0.00     0.123 C 
HETATM   22  C1  UNL     1      29.586  -0.736  53.806  1.00  0.00     0.091 C 
HETATM   23  O1  UNL     1      28.897   1.045  55.216  1.00  0.00    -0.298 OA
ENDBRANCH  20  21
ENDBRANCH  19  20
ENDBRANCH  14  19
ENDBRANCH   1  13
TORSDOF 4
ENDMDL
MODEL 5
REMARK VINA RESULT:      -7.3      3.976      6.666
REMARK  4 active torsions:
REMARK  status: ('A' for Active; 'I' for Inactive)
REMARK    1  A    between atoms: C2_2  and  C3_4 
REMARK    2  A    between atoms: C3_4  and  C4_5 
REMARK    3  A    between atoms: C4_5  and  C5_6 
REMARK    4  A    between atoms: C6_7  and  C7_8 
ROOT
HETATM    1  C7  UNL     1      21.856   2.443  52.209  1.00  0.00     0.166 A 
HETATM    2  C8  UNL     1      20.458   2.301  52.692  1.00  0.00     0.236 A 
HETATM    3  O2  UNL     1      19.778   3.297  52.259  1.00  0.00    -0.272 OA
HETATM    4  N1  UNL     1      20.273   1.132  53.479  1.00  0.00    -0.326 N 
HETATM    5  C9  UNL     1      21.568   0.551  53.584  1.00  0.00     0.042 A 
HETATM    6  C10 UNL     1      21.826  -0.591  54.314  1.00  0.00     0.030 A 
HETATM    7  C11 UNL     1      23.122  -1.055  54.398  1.00  0.00     0.003 A 
HETATM    8  C12 UNL     1      24.105  -0.346  53.743  1.00  0.00     0.007 A 
HETATM    9  C13 UNL     1      23.771   0.786  53.033  1.00  0.00    -0.052 A 
HETATM   10  C14 UNL     1      24.927   1.467  52.382  1.00  0.00     0.049 C 
HETATM   11  C15 UNL     1      22.504   1.301  52.906  1.00  0.00    -0.006 A 
HETATM   12  H9  UNL     1      19.298   0.952  53.793  1.00  0.00     0.169 HD
ENDROOT
BRANCH   1  13
HETATM   13  C6  UNL     1      21.963   2.154  50.755  1.00  0.00     0.054 C 
HETATM   14  C5  UNL     1      22.544   2.730  49.729  1.00  0.00    -0.028 C 
HETATM   15  C16 UNL     1      22.268   1.918  48.487  1.00  0.00     0.237 C 
HETATM   16  O3  UNL     1      21.139   1.189  48.868  1.00  0.00    -0.276 OA
HETATM   17  N2  UNL     1      21.310   1.012  50.218  1.00  0.00    -0.269 N 
HETATM   18  H16 UNL     1      20.937   0.100  50.558  1.00  0.00     0.194 HD
BRANCH  14  19
HETATM   19  C4  UNL     1      23.361   3.942  49.574  1.00  0.00     0.046 C 
BRANCH  19  20
HETATM   20  C3  UNL     1      24.813   3.472  49.412  1.00  0.00     0.082 C 
BRANCH  20  21
HETATM   21  C2  UNL     1      25.755   4.596  49.601  1.00  0.00     0.123 C 
HETATM   22  C1  UNL     1      27.113   4.406  49.012  1.00  0.00     0.091 C 
HETATM   23  O1  UNL     1      25.454   5.618  50.199  1.00  0.00    -0.298 OA
ENDBRANCH  20  21
ENDBRANCH  19  20
ENDBRANCH  14  19
ENDBRANCH   1  13
TORSDOF 4
ENDMDL
MODEL 6
REMARK VINA RESULT:      -7.3      4.997      6.500
REMARK  4 active torsions:
REMARK  status: ('A' for Active; 'I' for Inactive)
REMARK    1  A    between atoms: C2_2  and  C3_4 
REMARK    2  A    between atoms: C3_4  and  C4_5 
REMARK    3  A    between atoms: C4_5  and  C5_6 
REMARK    4  A    between atoms: C6_7  and  C7_8 
ROOT
HETATM    1  C7  UNL     1      23.933   4.531  49.528  1.00  0.00     0.166 A 
HETATM    2  C8  UNL     1      23.175   5.762  49.185  1.00  0.00     0.236 A 
HETATM    3  O2  UNL     1      21.927   5.530  49.363  1.00  0.00    -0.272 OA
HETATM    4  N1  UNL     1      24.024   6.821  48.764  1.00  0.00    -0.326 N 
HETATM    5  C9  UNL     1      25.332   6.261  48.749  1.00  0.00     0.042 A 
HETATM    6  C10 UNL     1      26.450   6.964  48.349  1.00  0.00     0.030 A 
HETATM    7  C11 UNL     1      27.670   6.323  48.322  1.00  0.00     0.003 A 
HETATM    8  C12 UNL     1      27.713   4.998  48.697  1.00  0.00     0.007 A 
HETATM    9  C13 UNL     1      26.555   4.362  49.084  1.00  0.00    -0.052 A 
HETATM   10  C14 UNL     1      26.734   2.928  49.454  1.00  0.00     0.049 C 
HETATM   11  C15 UNL     1      25.308   4.939  49.137  1.00  0.00    -0.006 A 
HETATM   12  H9  UNL     1      23.549   7.726  48.569  1.00  0.00     0.169 HD
ENDROOT
BRANCH   1  13
HETATM   13  C6  UNL     1      23.971   4.304  50.996  1.00  0.00     0.054 C 
HETATM   14  C5  UNL     1      23.979   3.250  51.777  1.00  0.00    -0.028 C 
HETATM   15  C16 UNL     1      24.024   3.705  53.216  1.00  0.00     0.237 C 
HETATM   16  O3  UNL     1      23.558   5.018  53.115  1.00  0.00    -0.276 OA
HETATM   17  N2  UNL     1      23.992   5.419  51.876  1.00  0.00    -0.269 N 
HETATM   18  H16 UNL     1      24.242   6.430  51.842  1.00  0.00     0.194 HD
BRANCH  14  19
HETATM   19  C4  UNL     1      23.953   1.801  51.529  1.00  0.00     0.046 C 
BRANCH  19  20
HETATM   20  C3  UNL     1      25.084   1.195  52.370  1.00  0.00     0.082 C 
BRANCH  20  21
HETATM   21  C2  UNL     1      24.617  -0.009  53.092  1.00  0.00     0.123 C 
HETATM   22  C1  UNL     1      23.154  -0.064  53.377  1.00  0.00     0.091 C 
HETATM   23  O1  UNL     1      25.371  -0.907  53.437  1.00  0.00    -0.298 OA
ENDBRANCH  20  21
ENDBRANCH  19  20
ENDBRANCH  14  19
ENDBRANCH   1  13
TORSDOF 4
ENDMDL
MODEL 7
REMARK VINA RESULT:      -7.3      3.269      4.548
REMARK  4 active torsions:
REMARK  status: ('A' for Active; 'I' for Inactive)
REMARK    1  A    between atoms: C2_2  and  C3_4 
REMARK    2  A    between atoms: C3_4  and  C4_5 
REMARK    3  A    between atoms: C4_5  and  C5_6 
REMARK    4  A    between atoms: C6_7  and  C7_8 
ROOT
HETATM    1  C7  UNL     1      24.890   2.190  51.197  1.00  0.00     0.166 A 
HETATM    2  C8  UNL     1      26.100   2.966  50.818  1.00  0.00     0.236 A 
HETATM    3  O2  UNL     1      25.857   3.580  49.720  1.00  0.00    -0.272 OA
HETATM    4  N1  UNL     1      27.158   2.811  51.754  1.00  0.00    -0.326 N 
HETATM    5  C9  UNL     1      26.675   1.866  52.703  1.00  0.00     0.042 A 
HETATM    6  C10 UNL     1      27.430   1.408  53.763  1.00  0.00     0.030 A 
HETATM    7  C11 UNL     1      26.894   0.456  54.604  1.00  0.00     0.003 A 
HETATM    8  C12 UNL     1      25.620   0.003  54.341  1.00  0.00     0.007 A 
HETATM    9  C13 UNL     1      24.927   0.508  53.263  1.00  0.00    -0.052 A 
HETATM   10  C14 UNL     1      23.565  -0.072  53.080  1.00  0.00     0.049 C 
HETATM   11  C15 UNL     1      25.398   1.457  52.387  1.00  0.00    -0.006 A 
HETATM   12  H9  UNL     1      28.009   3.380  51.568  1.00  0.00     0.169 HD
ENDROOT
BRANCH   1  13
HETATM   13  C6  UNL     1      23.805   3.077  51.690  1.00  0.00     0.054 C 
HETATM   14  C5  UNL     1      22.495   3.073  51.623  1.00  0.00    -0.028 C 
HETATM   15  C16 UNL     1      21.962   4.288  52.343  1.00  0.00     0.237 C 
HETATM   16  O3  UNL     1      23.078   5.128  52.350  1.00  0.00    -0.276 OA
HETATM   17  N2  UNL     1      24.137   4.256  52.410  1.00  0.00    -0.269 N 
HETATM   18  H16 UNL     1      24.940   4.630  52.958  1.00  0.00     0.194 HD
BRANCH  14  19
HETATM   19  C4  UNL     1      21.511   2.164  51.017  1.00  0.00     0.046 C 
BRANCH  19  20
HETATM   20  C3  UNL     1      21.184   2.737  49.631  1.00  0.00     0.082 C 
BRANCH  20  21
HETATM   21  C2  UNL     1      21.685   1.848  48.561  1.00  0.00     0.123 C 
HETATM   22  C1  UNL     1      22.507   2.508  47.504  1.00  0.00     0.091 C 
HETATM   23  O1  UNL     1      21.449   0.649  48.533  1.00  0.00    -0.298 OA
ENDBRANCH  20  21
ENDBRANCH  19  20
ENDBRANCH  14  19
ENDBRANCH   1  13
TORSDOF 4
ENDMDL
MODEL 8
REMARK VINA RESULT:      -7.2      2.363      6.728
REMARK  4 active torsions:
REMARK  status: ('A' for Active; 'I' for Inactive)
REMARK    1  A    between atoms: C2_2  and  C3_4 
REMARK    2  A    between atoms: C3_4  and  C4_5 
REMARK    3  A    between atoms: C4_5  and  C5_6 
REMARK    4  A    between atoms: C6_7  and  C7_8 
ROOT
HETATM    1  C7  UNL     1      22.930  -0.123  52.521  1.00  0.00     0.166 A 
HETATM    2  C8  UNL     1      22.768  -0.561  53.932  1.00  0.00     0.236 A 
HETATM    3  O2  UNL     1      23.923  -0.868  54.394  1.00  0.00    -0.272 OA
HETATM    4  N1  UNL     1      21.414  -0.518  54.360  1.00  0.00    -0.326 N 
HETATM    5  C9  UNL     1      20.675  -0.135  53.206  1.00  0.00     0.042 A 
HETATM    6  C10 UNL     1      19.300  -0.021  53.192  1.00  0.00     0.030 A 
HETATM    7  C11 UNL     1      18.666   0.310  52.014  1.00  0.00     0.003 A 
HETATM    8  C12 UNL     1      19.445   0.510  50.895  1.00  0.00     0.007 A 
HETATM    9  C13 UNL     1      20.812   0.379  50.985  1.00  0.00    -0.052 A 
HETATM   10  C14 UNL     1      21.538   0.609  49.703  1.00  0.00     0.049 C 
HETATM   11  C15 UNL     1      21.508   0.054  52.125  1.00  0.00    -0.006 A 
HETATM   12  H9  UNL     1      21.251  -0.758  55.359  1.00  0.00     0.169 HD
ENDROOT
BRANCH   1  13
HETATM   13  C6  UNL     1      23.554   1.223  52.435  1.00  0.00     0.054 C 
HETATM   14  C5  UNL     1      24.760   1.678  52.187  1.00  0.00    -0.028 C 
HETATM   15  C16 UNL     1      24.739   3.185  52.251  1.00  0.00     0.237 C 
HETATM   16  O3  UNL     1      23.587   3.423  53.005  1.00  0.00    -0.276 OA
HETATM   17  N2  UNL     1      22.762   2.378  52.673  1.00  0.00    -0.269 N 
HETATM   18  H16 UNL     1      21.755   2.644  52.661  1.00  0.00     0.194 HD
BRANCH  14  19
HETATM   19  C4  UNL     1      26.045   1.034  51.879  1.00  0.00     0.046 C 
BRANCH  19  20
HETATM   20  C3  UNL     1      26.797   0.902  53.210  1.00  0.00     0.082 C 
BRANCH  20  21
HETATM   21  C2  UNL     1      27.302  -0.475  53.396  1.00  0.00     0.123 C 
HETATM   22  C1  UNL     1      26.762  -1.495  52.450  1.00  0.00     0.091 C 
HETATM   23  O1  UNL     1      28.109  -0.771  54.265  1.00  0.00    -0.298 OA
ENDBRANCH  20  21
ENDBRANCH  19  20
ENDBRANCH  14  19
ENDBRANCH   1  13
TORSDOF 4
ENDMDL
MODEL 9
REMARK VINA RESULT:      -7.1      4.593      6.186
REMARK  4 active torsions:
REMARK  status: ('A' for Active; 'I' for Inactive)
REMARK    1  A    between atoms: C2_2  and  C3_4 
REMARK    2  A    between atoms: C3_4  and  C4_5 
REMARK    3  A    between atoms: C4_5  and  C5_6 
REMARK    4  A    between atoms: C6_7  and  C7_8 
ROOT
HETATM    1  C7  UNL     1      24.849   3.232  50.134  1.00  0.00     0.166 A 
HETATM    2  C8  UNL     1      26.286   3.609  50.194  1.00  0.00     0.236 A 
HETATM    3  O2  UNL     1      26.544   4.373  49.197  1.00  0.00    -0.272 OA
HETATM    4  N1  UNL     1      26.952   3.029  51.307  1.00  0.00    -0.326 N 
HETATM    5  C9  UNL     1      25.976   2.204  51.932  1.00  0.00     0.042 A 
HETATM    6  C10 UNL     1      26.241   1.425  53.039  1.00  0.00     0.030 A 
HETATM    7  C11 UNL     1      25.245   0.620  53.547  1.00  0.00     0.003 A 
HETATM    8  C12 UNL     1      24.020   0.631  52.917  1.00  0.00     0.007 A 
HETATM    9  C13 UNL     1      23.828   1.436  51.815  1.00  0.00    -0.052 A 
HETATM   10  C14 UNL     1      22.464   1.348  51.219  1.00  0.00     0.049 C 
HETATM   11  C15 UNL     1      24.774   2.262  51.259  1.00  0.00    -0.006 A 
HETATM   12  H9  UNL     1      27.947   3.308  51.430  1.00  0.00     0.169 HD
ENDROOT
BRANCH   1  13
HETATM   13  C6  UNL     1      23.971   4.370  50.511  1.00  0.00     0.054 C 
HETATM   14  C5  UNL     1      22.778   4.785  50.155  1.00  0.00    -0.028 C 
HETATM   15  C16 UNL     1      22.443   6.038  50.926  1.00  0.00     0.237 C 
HETATM   16  O3  UNL     1      23.709   6.479  51.318  1.00  0.00    -0.276 OA
HETATM   17  N2  UNL     1      24.423   5.317  51.468  1.00  0.00    -0.269 N 
HETATM   18  H16 UNL     1      25.127   5.369  52.234  1.00  0.00     0.194 HD
BRANCH  14  19
HETATM   19  C4  UNL     1      21.771   4.289  49.205  1.00  0.00     0.046 C 
BRANCH  19  20
HETATM   20  C3  UNL     1      22.315   4.582  47.800  1.00  0.00     0.082 C 
BRANCH  20  21
HETATM   21  C2  UNL     1      22.189   3.395  46.928  1.00  0.00     0.123 C 
HETATM   22  C1  UNL     1      22.386   2.076  47.598  1.00  0.00     0.091 C 
HETATM   23  O1  UNL     1      21.939   3.475  45.734  1.00  0.00    -0.298 OA
ENDBRANCH  20  21
ENDBRANCH  19  20
ENDBRANCH  14  19
ENDBRANCH   1  13
TORSDOF 4
ENDMDL
