MODEL 1
REMARK VINA RESULT:      -8.3      0.000      0.000
REMARK  2 active torsions:
REMARK  status: ('A' for Active; 'I' for Inactive)
REMARK    1  A    between atoms: C3_3  and  N1_4 
REMARK    2  A    between atoms: N1_4  and  C4_5 
ROOT
HETATM    1  C1  UNL     1      22.378  -0.333  54.039  1.00  0.00     0.046 C 
HETATM    2  C2  UNL     1      23.820  -0.290  53.718  1.00  0.00    -0.055 C 
HETATM    3  C3  UNL     1      24.184   0.606  52.764  1.00  0.00     0.035 C 
HETATM    4  C11 UNL     1      25.473   0.973  52.186  1.00  0.00     0.040 C 
HETATM    5  P1  UNL     1      27.114   0.740  52.097  1.00  0.00    -0.066 P 
HETATM    6  C12 UNL     1      27.884   2.217  52.511  1.00  0.00     0.010 C 
HETATM    7  C13 UNL     1      28.684   2.384  53.787  1.00  0.00    -0.000 C 
HETATM    8  C14 UNL     1      28.745   1.291  54.583  1.00  0.00     0.005 C 
HETATM    9  C15 UNL     1      28.171  -0.094  54.462  1.00  0.00     0.149 C 
HETATM   10  C16 UNL     1      28.045  -0.521  53.063  1.00  0.00     0.078 C 
HETATM   11  O1  UNL     1      27.158  -0.385  55.272  1.00  0.00    -0.381 OA
HETATM   12  C17 UNL     1      25.870  -0.117  55.098  1.00  0.00     0.173 C 
HETATM   13  C18 UNL     1      25.201  -0.859  53.992  1.00  0.00     0.062 C 
ENDROOT
BRANCH   3  14
HETATM   14  N1  UNL     1      22.950   1.196  52.415  1.00  0.00    -0.356 N 
HETATM   15  H4  UNL     1      22.245   1.314  53.177  1.00  0.00     0.166 HD
BRANCH  14  16
HETATM   16  C4  UNL     1      22.636   1.621  51.118  1.00  0.00     0.029 C 
HETATM   17  C5  UNL     1      21.778   0.898  50.435  1.00  0.00     0.006 C 
HETATM   18  C6  UNL     1      21.150   0.919  49.101  1.00  0.00     0.056 C 
HETATM   19  C7  UNL     1      21.763   1.847  48.146  1.00  0.00    -0.023 C 
HETATM   20  C8  UNL     1      22.623   2.847  48.200  1.00  0.00    -0.004 C 
HETATM   21  C9  UNL     1      23.286   3.368  49.395  1.00  0.00     0.002 C 
HETATM   22  C10 UNL     1      23.269   2.825  50.606  1.00  0.00     0.029 C 
ENDBRANCH  14  16
ENDBRANCH   3  14
TORSDOF 2
ENDMDL
MODEL 2
REMARK VINA RESULT:      -8.0      2.513      6.158
REMARK  2 active torsions:
REMARK  status: ('A' for Active; 'I' for Inactive)
REMARK    1  A    between atoms: C3_3  and  N1_4 
REMARK    2  A    between atoms: N1_4  and  C4_5 
ROOT
HETATM    1  C1  UNL     1      22.155  -1.434  54.449  1.00  0.00     0.046 C 
HETATM    2  C2  UNL     1      22.141  -0.159  53.702  1.00  0.00    -0.055 C 
HETATM    3  C3  UNL     1      23.352   0.431  53.521  1.00  0.00     0.035 C 
HETATM    4  C11 UNL     1      23.771   1.651  52.838  1.00  0.00     0.040 C 
HETATM    5  P1  UNL     1      23.369   3.017  51.986  1.00  0.00    -0.066 P 
HETATM    6  C12 UNL     1      24.170   2.955  50.470  1.00  0.00     0.010 C 
HETATM    7  C13 UNL     1      23.424   2.771  49.165  1.00  0.00    -0.000 C 
HETATM    8  C14 UNL     1      22.079   2.653  49.275  1.00  0.00     0.005 C 
HETATM    9  C15 UNL     1      21.146   2.668  50.456  1.00  0.00     0.149 C 
HETATM   10  C16 UNL     1      21.649   3.509  51.548  1.00  0.00     0.078 C 
HETATM   11  O1  UNL     1      20.606   1.502  50.794  1.00  0.00    -0.381 OA
HETATM   12  C17 UNL     1      21.133   0.548  51.553  1.00  0.00     0.173 C 
HETATM   13  C18 UNL     1      21.303   0.890  52.993  1.00  0.00     0.062 C 
ENDROOT
BRANCH   3  14
HETATM   14  N1  UNL     1      24.227  -0.467  54.168  1.00  0.00    -0.356 N 
HETATM   15  H4  UNL     1      23.804  -1.140  54.847  1.00  0.00     0.166 HD
BRANCH  14  16
HETATM   16  C4  UNL     1      25.609  -0.496  53.946  1.00  0.00     0.029 C 
HETATM   17  C5  UNL     1      26.051  -1.266  52.978  1.00  0.00     0.006 C 
HETATM   18  C6  UNL     1      27.348  -1.628  52.375  1.00  0.00     0.056 C 
HETATM   19  C7  UNL     1      28.523  -1.223  53.152  1.00  0.00    -0.023 C 
HETATM   20  C8  UNL     1      28.765  -0.426  54.177  1.00  0.00    -0.004 C 
HETATM   21  C9  UNL     1      27.789   0.377  54.912  1.00  0.00     0.002 C 
HETATM   22  C10 UNL     1      26.468   0.320  54.788  1.00  0.00     0.029 C 
ENDBRANCH  14  16
ENDBRANCH   3  14
TORSDOF 2
ENDMDL
MODEL 3
REMARK VINA RESULT:      -7.7      2.949      7.071
REMARK  2 active torsions:
REMARK  status: ('A' for Active; 'I' for Inactive)
REMARK    1  A    between atoms: C3_3  and  N1_4 
REMARK    2  A    between atoms: N1_4  and  C4_5 
ROOT
HETATM    1  C1  UNL     1      26.761   3.973  49.515  1.00  0.00     0.046 C 
HETATM    2  C2  UNL     1      25.418   3.381  49.682  1.00  0.00    -0.055 C 
HETATM    3  C3  UNL     1      25.195   2.753  50.866  1.00  0.00     0.035 C 
HETATM    4  C11 UNL     1      24.030   2.076  51.428  1.00  0.00     0.040 C 
HETATM    5  P1  UNL     1      22.465   1.552  51.256  1.00  0.00    -0.066 P 
HETATM    6  C12 UNL     1      21.520   2.285  52.486  1.00  0.00     0.010 C 
HETATM    7  C13 UNL     1      20.463   3.328  52.185  1.00  0.00    -0.000 C 
HETATM    8  C14 UNL     1      20.318   3.648  50.877  1.00  0.00     0.005 C 
HETATM    9  C15 UNL     1      21.005   3.171  49.627  1.00  0.00     0.149 C 
HETATM   10  C16 UNL     1      21.448   1.776  49.736  1.00  0.00     0.078 C 
HETATM   11  O1  UNL     1      21.846   4.026  49.054  1.00  0.00    -0.381 OA
HETATM   12  C17 UNL     1      23.119   4.245  49.358  1.00  0.00     0.173 C 
HETATM   13  C18 UNL     1      24.056   3.124  49.063  1.00  0.00     0.062 C 
ENDROOT
BRANCH   3  14
HETATM   14  N1  UNL     1      26.428   2.916  51.534  1.00  0.00    -0.356 N 
HETATM   15  H4  UNL     1      26.878   3.857  51.480  1.00  0.00     0.166 HD
BRANCH  14  16
HETATM   16  C4  UNL     1      27.061   1.893  52.251  1.00  0.00     0.029 C 
HETATM   17  C5  UNL     1      28.014   2.239  53.086  1.00  0.00     0.006 C 
HETATM   18  C6  UNL     1      28.938   1.576  54.024  1.00  0.00     0.056 C 
HETATM   19  C7  UNL     1      29.019   0.119  53.882  1.00  0.00    -0.023 C 
HETATM   20  C8  UNL     1      28.331  -0.823  53.264  1.00  0.00    -0.004 C 
HETATM   21  C9  UNL     1      27.137  -0.637  52.440  1.00  0.00     0.002 C 
HETATM   22  C10 UNL     1      26.632   0.521  52.034  1.00  0.00     0.029 C 
ENDBRANCH  14  16
ENDBRANCH   3  14
TORSDOF 2
ENDMDL
MODEL 4
REMARK VINA RESULT:      -7.4      1.807      3.229
REMARK  2 active torsions:
REMARK  status: ('A' for Active; 'I' for Inactive)
REMARK    1  A    between atoms: C3_3  and  N1_4 
REMARK    2  A    between atoms: N1_4  and  C4_5 
ROOT
HETATM    1  C1  UNL     1      23.836   3.727  51.814  1.00  0.00     0.046 C 
HETATM    2  C2  UNL     1      24.548   2.702  52.605  1.00  0.00    -0.055 C 
HETATM    3  C3  UNL     1      24.251   1.412  52.299  1.00  0.00     0.035 C 
HETATM    4  C11 UNL     1      24.736   0.133  52.809  1.00  0.00     0.040 C 
HETATM    5  P1  UNL     1      25.696  -0.707  53.871  1.00  0.00    -0.066 P 
HETATM    6  C12 UNL     1      26.779  -1.674  52.957  1.00  0.00     0.010 C 
HETATM    7  C13 UNL     1      28.269  -1.405  52.915  1.00  0.00    -0.000 C 
HETATM    8  C14 UNL     1      28.690  -0.344  53.643  1.00  0.00     0.005 C 
HETATM    9  C15 UNL     1      27.966   0.651  54.509  1.00  0.00     0.149 C 
HETATM   10  C16 UNL     1      26.777   0.071  55.144  1.00  0.00     0.078 C 
HETATM   11  O1  UNL     1      27.848   1.881  54.021  1.00  0.00    -0.381 OA
HETATM   12  C17 UNL     1      26.931   2.340  53.179  1.00  0.00     0.173 C 
HETATM   13  C18 UNL     1      25.542   2.417  53.716  1.00  0.00     0.062 C 
ENDROOT
BRANCH   3  14
HETATM   14  N1  UNL     1      23.302   1.556  51.265  1.00  0.00    -0.356 N 
HETATM   15  H4  UNL     1      23.640   1.944  50.356  1.00  0.00     0.166 HD
BRANCH  14  16
HETATM   16  C4  UNL     1      21.952   1.207  51.401  1.00  0.00     0.029 C 
HETATM   17  C5  UNL     1      21.571   0.694  52.548  1.00  0.00     0.006 C 
HETATM   18  C6  UNL     1      20.328   0.191  53.162  1.00  0.00     0.056 C 
HETATM   19  C7  UNL     1      19.223  -0.026  52.224  1.00  0.00    -0.023 C 
HETATM   20  C8  UNL     1      18.951   0.297  50.972  1.00  0.00    -0.004 C 
HETATM   21  C9  UNL     1      19.799   1.065  50.062  1.00  0.00     0.002 C 
HETATM   22  C10 UNL     1      21.058   1.430  50.277  1.00  0.00     0.029 C 
ENDBRANCH  14  16
ENDBRANCH   3  14
TORSDOF 2
ENDMDL
MODEL 5
REMARK VINA RESULT:      -7.3      2.691      6.642
REMARK  2 active torsions:
REMARK  status: ('A' for Active; 'I' for Inactive)
REMARK    1  A    between atoms: C3_3  and  N1_4 
REMARK    2  A    between atoms: N1_4  and  C4_5 
ROOT
HETATM    1  C1  UNL     1      26.630   2.833  51.718  1.00  0.00     0.046 C 
HETATM    2  C2  UNL     1      25.353   2.090  51.753  1.00  0.00    -0.055 C 
HETATM    3  C3  UNL     1      25.304   1.046  52.621  1.00  0.00     0.035 C 
HETATM    4  C11 UNL     1      24.253   0.095  52.972  1.00  0.00     0.040 C 
HETATM    5  P1  UNL     1      22.714  -0.480  52.738  1.00  0.00    -0.066 P 
HETATM    6  C12 UNL     1      21.869  -0.359  54.226  1.00  0.00     0.010 C 
HETATM    7  C13 UNL     1      20.722   0.610  54.430  1.00  0.00    -0.000 C 
HETATM    8  C14 UNL     1      20.412   1.379  53.360  1.00  0.00     0.005 C 
HETATM    9  C15 UNL     1      20.984   1.476  51.972  1.00  0.00     0.149 C 
HETATM   10  C16 UNL     1      21.523   0.192  51.505  1.00  0.00     0.078 C 
HETATM   11  O1  UNL     1      21.701   2.562  51.704  1.00  0.00    -0.381 OA
HETATM   12  C17 UNL     1      22.983   2.778  51.966  1.00  0.00     0.173 C 
HETATM   13  C18 UNL     1      23.950   1.948  51.193  1.00  0.00     0.062 C 
ENDROOT
BRANCH   3  14
HETATM   14  N1  UNL     1      26.590   1.071  53.200  1.00  0.00    -0.356 N 
HETATM   15  H4  UNL     1      26.873   1.945  53.698  1.00  0.00     0.166 HD
BRANCH  14  16
HETATM   16  C4  UNL     1      27.488  -0.003  53.137  1.00  0.00     0.029 C 
HETATM   17  C5  UNL     1      27.013  -1.168  52.759  1.00  0.00     0.006 C 
HETATM   18  C6  UNL     1      27.519  -2.536  52.543  1.00  0.00     0.056 C 
HETATM   19  C7  UNL     1      28.859  -2.789  53.081  1.00  0.00    -0.023 C 
HETATM   20  C8  UNL     1      29.857  -2.060  53.548  1.00  0.00    -0.004 C 
HETATM   21  C9  UNL     1      29.896  -0.604  53.669  1.00  0.00     0.002 C 
HETATM   22  C10 UNL     1      28.879   0.230  53.489  1.00  0.00     0.029 C 
ENDBRANCH  14  16
ENDBRANCH   3  14
TORSDOF 2
ENDMDL
MODEL 6
REMARK VINA RESULT:      -7.2      2.965      6.609
REMARK  2 active torsions:
REMARK  status: ('A' for Active; 'I' for Inactive)
REMARK    1  A    between atoms: C3_3  and  N1_4 
REMARK    2  A    between atoms: N1_4  and  C4_5 
ROOT
HETATM    1  C1  UNL     1      23.630   0.761  53.125  1.00  0.00     0.046 C 
HETATM    2  C2  UNL     1      23.659   2.119  52.542  1.00  0.00    -0.055 C 
HETATM    3  C3  UNL     1      24.698   2.379  51.707  1.00  0.00     0.035 C 
HETATM    4  C11 UNL     1      25.076   3.553  50.926  1.00  0.00     0.040 C 
HETATM    5  P1  UNL     1      24.782   5.125  50.483  1.00  0.00    -0.066 P 
HETATM    6  C12 UNL     1      24.565   5.167  48.781  1.00  0.00     0.010 C 
HETATM    7  C13 UNL     1      23.227   5.474  48.141  1.00  0.00    -0.000 C 
HETATM    8  C14 UNL     1      22.210   5.708  49.003  1.00  0.00     0.005 C 
HETATM    9  C15 UNL     1      22.128   5.728  50.505  1.00  0.00     0.149 C 
HETATM   10  C16 UNL     1      23.391   6.150  51.122  1.00  0.00     0.078 C 
HETATM   11  O1  UNL     1      21.491   4.710  51.074  1.00  0.00    -0.381 OA
HETATM   12  C17 UNL     1      21.974   3.512  51.376  1.00  0.00     0.173 C 
HETATM   13  C18 UNL     1      22.995   3.482  52.462  1.00  0.00     0.062 C 
ENDROOT
BRANCH   3  14
HETATM   14  N1  UNL     1      25.409   1.160  51.718  1.00  0.00    -0.356 N 
HETATM   15  H4  UNL     1      24.980   0.352  51.214  1.00  0.00     0.166 HD
BRANCH  14  16
HETATM   16  C4  UNL     1      26.641   0.989  52.362  1.00  0.00     0.029 C 
HETATM   17  C5  UNL     1      27.070  -0.241  52.533  1.00  0.00     0.006 C 
HETATM   18  C6  UNL     1      28.240  -0.919  53.122  1.00  0.00     0.056 C 
HETATM   19  C7  UNL     1      29.094  -0.063  53.950  1.00  0.00    -0.023 C 
HETATM   20  C8  UNL     1      29.229   1.233  54.168  1.00  0.00    -0.004 C 
HETATM   21  C9  UNL     1      28.452   2.309  53.555  1.00  0.00     0.002 C 
HETATM   22  C10 UNL     1      27.368   2.168  52.801  1.00  0.00     0.029 C 
ENDBRANCH  14  16
ENDBRANCH   3  14
TORSDOF 2
ENDMDL
MODEL 7
REMARK VINA RESULT:      -7.2      1.629      2.277
REMARK  2 active torsions:
REMARK  status: ('A' for Active; 'I' for Inactive)
REMARK    1  A    between atoms: C3_3  and  N1_4 
REMARK    2  A    between atoms: N1_4  and  C4_5 
ROOT
HETATM    1  C1  UNL     1      21.715   1.183  52.962  1.00  0.00     0.046 C 
HETATM    2  C2  UNL     1      23.137   0.820  52.787  1.00  0.00    -0.055 C 
HETATM    3  C3  UNL     1      23.933   1.793  52.274  1.00  0.00     0.035 C 
HETATM    4  C11 UNL     1      25.361   1.853  51.974  1.00  0.00     0.040 C 
HETATM    5  P1  UNL     1      26.839   1.101  51.922  1.00  0.00    -0.066 P 
HETATM    6  C12 UNL     1      27.920   1.983  52.922  1.00  0.00     0.010 C 
HETATM    7  C13 UNL     1      28.466   1.422  54.219  1.00  0.00    -0.000 C 
HETATM    8  C14 UNL     1      28.037   0.179  54.542  1.00  0.00     0.005 C 
HETATM    9  C15 UNL     1      27.108  -0.790  53.861  1.00  0.00     0.149 C 
HETATM   10  C16 UNL     1      27.139  -0.653  52.400  1.00  0.00     0.078 C 
HETATM   11  O1  UNL     1      25.916  -0.957  54.424  1.00  0.00    -0.381 OA
HETATM   12  C17 UNL     1      24.830  -0.211  54.273  1.00  0.00     0.173 C 
HETATM   13  C18 UNL     1      24.200  -0.255  52.923  1.00  0.00     0.062 C 
ENDROOT
BRANCH   3  14
HETATM   14  N1  UNL     1      23.029   2.860  52.088  1.00  0.00    -0.356 N 
HETATM   15  H4  UNL     1      22.174   2.872  52.689  1.00  0.00     0.166 HD
BRANCH  14  16
HETATM   16  C4  UNL     1      23.222   3.884  51.152  1.00  0.00     0.029 C 
HETATM   17  C5  UNL     1      23.027   3.591  49.886  1.00  0.00     0.006 C 
HETATM   18  C6  UNL     1      23.096   4.278  48.583  1.00  0.00     0.056 C 
HETATM   19  C7  UNL     1      23.763   5.583  48.609  1.00  0.00    -0.023 C 
HETATM   20  C8  UNL     1      24.160   6.438  49.534  1.00  0.00    -0.004 C 
HETATM   21  C9  UNL     1      24.021   6.288  50.982  1.00  0.00     0.002 C 
HETATM   22  C10 UNL     1      23.624   5.197  51.627  1.00  0.00     0.029 C 
ENDBRANCH  14  16
ENDBRANCH   3  14
TORSDOF 2
ENDMDL
MODEL 8
REMARK VINA RESULT:      -7.0      2.406      3.859
REMARK  2 active torsions:
REMARK  status: ('A' for Active; 'I' for Inactive)
REMARK    1  A    between atoms: C3_3  and  N1_4 
REMARK    2  A    between atoms: N1_4  and  C4_5 
ROOT
HETATM    1  C1  UNL     1      23.442   3.715  49.018  1.00  0.00     0.046 C 
HETATM    2  C2  UNL     1      24.094   3.195  50.239  1.00  0.00    -0.055 C 
HETATM    3  C3  UNL     1      23.442   2.183  50.868  1.00  0.00     0.035 C 
HETATM    4  C11 UNL     1      23.747   1.393  52.057  1.00  0.00     0.040 C 
HETATM    5  P1  UNL     1      24.747   1.082  53.344  1.00  0.00    -0.066 P 
HETATM    6  C12 UNL     1      25.291  -0.540  53.216  1.00  0.00     0.010 C 
HETATM    7  C13 UNL     1      26.733  -0.891  52.913  1.00  0.00    -0.000 C 
HETATM    8  C14 UNL     1      27.565   0.164  52.743  1.00  0.00     0.005 C 
HETATM    9  C15 UNL     1      27.351   1.653  52.795  1.00  0.00     0.149 C 
HETATM   10  C16 UNL     1      26.281   2.026  53.729  1.00  0.00     0.078 C 
HETATM   11  O1  UNL     1      27.382   2.294  51.631  1.00  0.00    -0.381 OA
HETATM   12  C17 UNL     1      26.397   2.444  50.755  1.00  0.00     0.173 C 
HETATM   13  C18 UNL     1      25.264   3.304  51.199  1.00  0.00     0.062 C 
ENDROOT
BRANCH   3  14
HETATM   14  N1  UNL     1      22.303   2.003  50.055  1.00  0.00    -0.356 N 
HETATM   15  H4  UNL     1      22.463   1.881  49.029  1.00  0.00     0.166 HD
BRANCH  14  16
HETATM   16  C4  UNL     1      20.994   1.982  50.551  1.00  0.00     0.029 C 
HETATM   17  C5  UNL     1      20.338   0.846  50.483  1.00  0.00     0.006 C 
HETATM   18  C6  UNL     1      19.006   0.329  50.848  1.00  0.00     0.056 C 
HETATM   19  C7  UNL     1      18.019   1.357  51.188  1.00  0.00    -0.023 C 
HETATM   20  C8  UNL     1      18.037   2.649  51.461  1.00  0.00    -0.004 C 
HETATM   21  C9  UNL     1      19.211   3.520  51.501  1.00  0.00     0.002 C 
HETATM   22  C10 UNL     1      20.440   3.204  51.109  1.00  0.00     0.029 C 
ENDBRANCH  14  16
ENDBRANCH   3  14
TORSDOF 2
ENDMDL
MODEL 9
REMARK VINA RESULT:      -6.8      3.824      6.241
REMARK  2 active torsions:
REMARK  status: ('A' for Active; 'I' for Inactive)
REMARK    1  A    between atoms: C3_3  and  N1_4 
REMARK    2  A    between atoms: N1_4  and  C4_5 
ROOT
HETATM    1  C1  UNL     1      21.885   6.554  50.897  1.00  0.00     0.046 C 
HETATM    2  C2  UNL     1      21.723   5.087  50.961  1.00  0.00    -0.055 C 
HETATM    3  C3  UNL     1      22.874   4.370  51.038  1.00  0.00     0.035 C 
HETATM    4  C11 UNL     1      23.150   2.940  51.141  1.00  0.00     0.040 C 
HETATM    5  P1  UNL     1      22.586   1.380  51.193  1.00  0.00    -0.066 P 
HETATM    6  C12 UNL     1      23.099   0.679  52.673  1.00  0.00     0.010 C 
HETATM    7  C13 UNL     1      22.129   0.322  53.781  1.00  0.00    -0.000 C 
HETATM    8  C14 UNL     1      20.828   0.601  53.528  1.00  0.00     0.005 C 
HETATM    9  C15 UNL     1      20.125   1.206  52.343  1.00  0.00     0.149 C 
HETATM   10  C16 UNL     1      20.810   0.905  51.080  1.00  0.00     0.078 C 
HETATM   11  O1  UNL     1      19.668   2.444  52.498  1.00  0.00    -0.381 OA
HETATM   12  C17 UNL     1      20.333   3.584  52.356  1.00  0.00     0.173 C 
HETATM   13  C18 UNL     1      20.759   3.914  50.967  1.00  0.00     0.062 C 
ENDROOT
BRANCH   3  14
HETATM   14  N1  UNL     1      23.861   5.378  51.023  1.00  0.00    -0.356 N 
HETATM   15  H4  UNL     1      23.754   6.162  51.706  1.00  0.00     0.166 HD
BRANCH  14  16
HETATM   16  C4  UNL     1      24.957   5.375  50.151  1.00  0.00     0.029 C 
HETATM   17  C5  UNL     1      25.667   4.273  50.073  1.00  0.00     0.006 C 
HETATM   18  C6  UNL     1      26.852   3.786  49.344  1.00  0.00     0.056 C 
HETATM   19  C7  UNL     1      27.629   4.827  48.665  1.00  0.00    -0.023 C 
HETATM   20  C8  UNL     1      27.454   6.096  48.345  1.00  0.00    -0.004 C 
HETATM   21  C9  UNL     1      26.275   6.916  48.623  1.00  0.00     0.002 C 
HETATM   22  C10 UNL     1      25.244   6.579  49.388  1.00  0.00     0.029 C 
ENDBRANCH  14  16
ENDBRANCH   3  14
TORSDOF 2
ENDMDL
