MODEL 1
REMARK VINA RESULT:      -8.8      0.000      0.000
REMARK  3 active torsions:
REMARK  status: ('A' for Active; 'I' for Inactive)
REMARK    1  A    between atoms: O1_2  and  P1_3 
REMARK    2  A    between atoms: C4_6  and  N1_7 
REMARK    3  A    between atoms: N1_7  and  C5_8 
ROOT
HETATM    1  P1  UNL     1      22.063   2.239  52.478  1.00  0.00    -0.015 P 
HETATM    2  C2  UNL     1      23.679   2.517  51.754  1.00  0.00     0.145 C 
HETATM    3  C3  UNL     1      24.700   2.777  50.877  1.00  0.00     0.041 A 
HETATM    4  C4  UNL     1      25.924   2.764  51.469  1.00  0.00     0.142 A 
HETATM    5  N2  UNL     1      26.906   3.277  50.733  1.00  0.00    -0.224 NA
HETATM    6  C11 UNL     1      26.657   3.752  49.518  1.00  0.00     0.235 A 
HETATM    7  N3  UNL     1      25.416   3.755  48.927  1.00  0.00    -0.241 NA
HETATM    8  C12 UNL     1      24.395   3.238  49.641  1.00  0.00     0.069 A 
HETATM    9  C13 UNL     1      23.277   3.027  48.909  1.00  0.00     0.011 C 
HETATM   10  C14 UNL     1      21.995   2.268  49.014  1.00  0.00     0.045 C 
HETATM   11  C15 UNL     1      22.190   1.346  50.049  1.00  0.00    -0.019 C 
HETATM   12  C16 UNL     1      21.263   0.316  50.656  1.00  0.00     0.011 C 
HETATM   13  C17 UNL     1      21.269   0.604  52.173  1.00  0.00     0.029 C 
HETATM   14  C18 UNL     1      22.119  -0.467  52.802  1.00  0.00     0.016 C 
ENDROOT
BRANCH   4  15
HETATM   15  N1  UNL     1      26.182   2.223  52.749  1.00  0.00    -0.340 N 
HETATM   16  H5  UNL     1      25.626   2.456  53.578  1.00  0.00     0.167 HD
BRANCH  15  17
HETATM   17  C5  UNL     1      27.206   1.302  53.068  1.00  0.00     0.035 A 
HETATM   18  C6  UNL     1      28.409   1.687  53.654  1.00  0.00     0.032 A 
HETATM   19  C7  UNL     1      29.429   0.831  53.968  1.00  0.00     0.046 A 
HETATM   20  C8  UNL     1      29.313  -0.503  53.710  1.00  0.00     0.138 A 
HETATM   21  F1  UNL     1      30.336  -1.318  54.033  1.00  0.00    -0.204 F 
HETATM   22  C9  UNL     1      28.150  -0.969  53.128  1.00  0.00     0.074 A 
HETATM   23 CL1  UNL     1      28.018  -2.674  52.805  1.00  0.00    -0.081 Cl
HETATM   24  C10 UNL     1      27.164  -0.055  52.837  1.00  0.00     0.056 A 
ENDBRANCH  15  17
ENDBRANCH   4  15
BRANCH   1  25
HETATM   25  O1  UNL     1      21.006   3.577  52.487  1.00  0.00    -0.377 OA
HETATM   26  C1  UNL     1      21.372   4.664  51.748  1.00  0.00     0.206 C 
ENDBRANCH   1  25
TORSDOF 3
ENDMDL
MODEL 2
REMARK VINA RESULT:      -8.3      2.018      3.797
REMARK  3 active torsions:
REMARK  status: ('A' for Active; 'I' for Inactive)
REMARK    1  A    between atoms: O1_2  and  P1_3 
REMARK    2  A    between atoms: C4_6  and  N1_7 
REMARK    3  A    between atoms: N1_7  and  C5_8 
ROOT
HETATM    1  P1  UNL     1      22.828   3.070  49.979  1.00  0.00    -0.015 P 
HETATM    2  C2  UNL     1      23.205   1.976  51.348  1.00  0.00     0.145 C 
HETATM    3  C3  UNL     1      23.112   1.189  52.466  1.00  0.00     0.041 A 
HETATM    4  C4  UNL     1      24.298   0.621  52.815  1.00  0.00     0.142 A 
HETATM    5  N2  UNL     1      24.206  -0.358  53.711  1.00  0.00    -0.224 NA
HETATM    6  C11 UNL     1      23.023  -0.715  54.197  1.00  0.00     0.235 A 
HETATM    7  N3  UNL     1      21.831  -0.130  53.841  1.00  0.00    -0.241 NA
HETATM    8  C12 UNL     1      21.884   0.870  52.938  1.00  0.00     0.069 A 
HETATM    9  C13 UNL     1      20.730   1.569  52.839  1.00  0.00     0.011 C 
HETATM   10  C14 UNL     1      20.253   2.873  52.290  1.00  0.00     0.045 C 
HETATM   11  C15 UNL     1      21.408   3.633  52.073  1.00  0.00    -0.019 C 
HETATM   12  C16 UNL     1      21.597   5.023  51.506  1.00  0.00     0.011 C 
HETATM   13  C17 UNL     1      22.618   4.861  50.359  1.00  0.00     0.029 C 
HETATM   14  C18 UNL     1      23.925   5.397  50.879  1.00  0.00     0.016 C 
ENDROOT
BRANCH   4  15
HETATM   15  N1  UNL     1      25.554   1.035  52.316  1.00  0.00    -0.340 N 
HETATM   16  H5  UNL     1      25.660   1.747  51.588  1.00  0.00     0.167 HD
BRANCH  15  17
HETATM   17  C5  UNL     1      26.813   0.550  52.740  1.00  0.00     0.035 A 
HETATM   18  C6  UNL     1      27.821   1.386  53.214  1.00  0.00     0.032 A 
HETATM   19  C7  UNL     1      29.054   0.959  53.623  1.00  0.00     0.046 A 
HETATM   20  C8  UNL     1      29.374  -0.366  53.584  1.00  0.00     0.138 A 
HETATM   21  F1  UNL     1      30.597  -0.751  53.995  1.00  0.00    -0.204 F 
HETATM   22  C9  UNL     1      28.430  -1.263  53.125  1.00  0.00     0.074 A 
HETATM   23 CL1  UNL     1      28.853  -2.952  53.081  1.00  0.00    -0.081 Cl
HETATM   24  C10 UNL     1      27.209  -0.768  52.729  1.00  0.00     0.056 A 
ENDBRANCH  15  17
ENDBRANCH   4  15
BRANCH   1  25
HETATM   25  O1  UNL     1      21.777   2.446  48.790  1.00  0.00    -0.377 OA
HETATM   26  C1  UNL     1      21.255   1.205  49.011  1.00  0.00     0.206 C 
ENDBRANCH   1  25
TORSDOF 3
ENDMDL
MODEL 3
REMARK VINA RESULT:      -7.8      1.533      1.909
REMARK  3 active torsions:
REMARK  status: ('A' for Active; 'I' for Inactive)
REMARK    1  A    between atoms: O1_2  and  P1_3 
REMARK    2  A    between atoms: C4_6  and  N1_7 
REMARK    3  A    between atoms: N1_7  and  C5_8 
ROOT
HETATM    1  P1  UNL     1      21.150   2.246  52.175  1.00  0.00    -0.015 P 
HETATM    2  C2  UNL     1      22.640   2.930  51.450  1.00  0.00     0.145 C 
HETATM    3  C3  UNL     1      23.556   3.454  50.576  1.00  0.00     0.041 A 
HETATM    4  C4  UNL     1      24.753   3.726  51.161  1.00  0.00     0.142 A 
HETATM    5  N2  UNL     1      25.571   4.484  50.434  1.00  0.00    -0.224 NA
HETATM    6  C11 UNL     1      25.198   4.913  49.234  1.00  0.00     0.235 A 
HETATM    7  N3  UNL     1      23.988   4.627  48.650  1.00  0.00    -0.241 NA
HETATM    8  C12 UNL     1      23.133   3.858  49.355  1.00  0.00     0.069 A 
HETATM    9  C13 UNL     1      22.092   3.398  48.623  1.00  0.00     0.011 C 
HETATM   10  C14 UNL     1      21.037   2.346  48.713  1.00  0.00     0.045 C 
HETATM   11  C15 UNL     1      21.463   1.474  49.721  1.00  0.00    -0.019 C 
HETATM   12  C16 UNL     1      20.824   0.233  50.304  1.00  0.00     0.011 C 
HETATM   13  C17 UNL     1      20.777   0.475  51.828  1.00  0.00     0.029 C 
HETATM   14  C18 UNL     1      21.870  -0.371  52.423  1.00  0.00     0.016 C 
ENDROOT
BRANCH   4  15
HETATM   15  N1  UNL     1      25.150   3.233  52.424  1.00  0.00    -0.340 N 
HETATM   16  H5  UNL     1      24.855   3.656  53.309  1.00  0.00     0.167 HD
BRANCH  15  17
HETATM   17  C5  UNL     1      25.980   2.111  52.651  1.00  0.00     0.035 A 
HETATM   18  C6  UNL     1      25.692   0.846  52.143  1.00  0.00     0.032 A 
HETATM   19  C7  UNL     1      26.462  -0.266  52.347  1.00  0.00     0.046 A 
HETATM   20  C8  UNL     1      27.602  -0.188  53.092  1.00  0.00     0.138 A 
HETATM   21  F1  UNL     1      28.336  -1.303  53.272  1.00  0.00    -0.204 F 
HETATM   22  C9  UNL     1      27.959   1.031  53.634  1.00  0.00     0.074 A 
HETATM   23 CL1  UNL     1      29.417   1.112  54.583  1.00  0.00    -0.081 Cl
HETATM   24  C10 UNL     1      27.141   2.109  53.391  1.00  0.00     0.056 A 
ENDBRANCH  15  17
ENDBRANCH   4  15
BRANCH   1  25
HETATM   25  O1  UNL     1      19.798   3.283  52.226  1.00  0.00    -0.377 OA
HETATM   26  C1  UNL     1      19.800   4.350  51.376  1.00  0.00     0.206 C 
ENDBRANCH   1  25
TORSDOF 3
ENDMDL
MODEL 4
REMARK VINA RESULT:      -7.5      7.408     10.291
REMARK  3 active torsions:
REMARK  status: ('A' for Active; 'I' for Inactive)
REMARK    1  A    between atoms: O1_2  and  P1_3 
REMARK    2  A    between atoms: C4_6  and  N1_7 
REMARK    3  A    between atoms: N1_7  and  C5_8 
ROOT
HETATM    1  P1  UNL     1      32.940   4.901  45.711  1.00  0.00    -0.015 P 
HETATM    2  C2  UNL     1      32.107   5.960  46.892  1.00  0.00     0.145 C 
HETATM    3  C3  UNL     1      31.837   6.832  47.915  1.00  0.00     0.041 A 
HETATM    4  C4  UNL     1      30.508   7.086  48.059  1.00  0.00     0.142 A 
HETATM    5  N2  UNL     1      30.219   8.123  48.840  1.00  0.00    -0.224 NA
HETATM    6  C11 UNL     1      31.191   8.824  49.413  1.00  0.00     0.235 A 
HETATM    7  N3  UNL     1      32.531   8.555  49.265  1.00  0.00    -0.241 NA
HETATM    8  C12 UNL     1      32.863   7.508  48.483  1.00  0.00     0.069 A 
HETATM    9  C13 UNL     1      34.161   7.139  48.598  1.00  0.00     0.011 C 
HETATM   10  C14 UNL     1      35.028   5.972  48.261  1.00  0.00     0.045 C 
HETATM   11  C15 UNL     1      34.149   4.914  48.003  1.00  0.00    -0.019 C 
HETATM   12  C16 UNL     1      34.404   3.483  47.584  1.00  0.00     0.011 C 
HETATM   13  C17 UNL     1      33.547   3.270  46.317  1.00  0.00     0.029 C 
HETATM   14  C18 UNL     1      32.362   2.446  46.744  1.00  0.00     0.016 C 
ENDROOT
BRANCH   4  15
HETATM   15  N1  UNL     1      29.483   6.310  47.471  1.00  0.00    -0.340 N 
HETATM   16  H5  UNL     1      29.562   5.891  46.540  1.00  0.00     0.167 HD
BRANCH  15  17
HETATM   17  C5  UNL     1      28.238   5.998  48.065  1.00  0.00     0.035 A 
HETATM   18  C6  UNL     1      27.182   6.904  48.119  1.00  0.00     0.032 A 
HETATM   19  C7  UNL     1      25.967   6.646  48.692  1.00  0.00     0.046 A 
HETATM   20  C8  UNL     1      25.719   5.434  49.266  1.00  0.00     0.138 A 
HETATM   21  F1  UNL     1      24.511   5.214  49.821  1.00  0.00    -0.204 F 
HETATM   22  C9  UNL     1      26.715   4.478  49.257  1.00  0.00     0.074 A 
HETATM   23 CL1  UNL     1      26.382   2.936  49.994  1.00  0.00    -0.081 Cl
HETATM   24  C10 UNL     1      27.914   4.802  48.664  1.00  0.00     0.056 A 
ENDBRANCH  15  17
ENDBRANCH   4  15
BRANCH   1  25
HETATM   25  O1  UNL     1      33.952   5.686  44.585  1.00  0.00    -0.377 OA
HETATM   26  C1  UNL     1      33.984   7.050  44.622  1.00  0.00     0.206 C 
ENDBRANCH   1  25
TORSDOF 3
ENDMDL
MODEL 5
REMARK VINA RESULT:      -7.5      4.188      6.472
REMARK  3 active torsions:
REMARK  status: ('A' for Active; 'I' for Inactive)
REMARK    1  A    between atoms: O1_2  and  P1_3 
REMARK    2  A    between atoms: C4_6  and  N1_7 
REMARK    3  A    between atoms: N1_7  and  C5_8 
ROOT
HETATM    1  P1  UNL     1      23.084   4.930  51.321  1.00  0.00    -0.015 P 
HETATM    2  C2  UNL     1      23.436   3.265  51.883  1.00  0.00     0.145 C 
HETATM    3  C3  UNL     1      24.022   2.043  52.087  1.00  0.00     0.041 A 
HETATM    4  C4  UNL     1      23.307   1.245  52.925  1.00  0.00     0.142 A 
HETATM    5  N2  UNL     1      23.959   0.175  53.370  1.00  0.00    -0.224 NA
HETATM    6  C11 UNL     1      25.212  -0.052  52.992  1.00  0.00     0.235 A 
HETATM    7  N3  UNL     1      25.924   0.758  52.140  1.00  0.00    -0.241 NA
HETATM    8  C12 UNL     1      25.294   1.851  51.665  1.00  0.00     0.069 A 
HETATM    9  C13 UNL     1      25.945   2.445  50.638  1.00  0.00     0.011 C 
HETATM   10  C14 UNL     1      25.666   3.438  49.558  1.00  0.00     0.045 C 
HETATM   11  C15 UNL     1      24.272   3.535  49.490  1.00  0.00    -0.019 C 
HETATM   12  C16 UNL     1      23.372   4.387  48.623  1.00  0.00     0.011 C 
HETATM   13  C17 UNL     1      22.438   5.126  49.606  1.00  0.00     0.029 C 
HETATM   14  C18 UNL     1      21.102   4.441  49.515  1.00  0.00     0.016 C 
ENDROOT
BRANCH   4  15
HETATM   15  N1  UNL     1      21.962   1.480  53.289  1.00  0.00    -0.340 N 
HETATM   16  H5  UNL     1      21.690   2.104  54.055  1.00  0.00     0.167 HD
BRANCH  15  17
HETATM   17  C5  UNL     1      20.825   0.916  52.666  1.00  0.00     0.035 A 
HETATM   18  C6  UNL     1      20.442   1.236  51.366  1.00  0.00     0.032 A 
HETATM   19  C7  UNL     1      19.345   0.721  50.731  1.00  0.00     0.046 A 
HETATM   20  C8  UNL     1      18.534  -0.171  51.369  1.00  0.00     0.138 A 
HETATM   21  F1  UNL     1      17.463  -0.658  50.714  1.00  0.00    -0.204 F 
HETATM   22  C9  UNL     1      18.843  -0.541  52.663  1.00  0.00     0.074 A 
HETATM   23 CL1  UNL     1      17.798  -1.681  53.463  1.00  0.00    -0.081 Cl
HETATM   24  C10 UNL     1      19.960   0.014  53.244  1.00  0.00     0.056 A 
ENDBRANCH  15  17
ENDBRANCH   4  15
BRANCH   1  25
HETATM   25  O1  UNL     1      24.167   6.141  51.839  1.00  0.00    -0.377 OA
HETATM   26  C1  UNL     1      24.620   7.015  50.895  1.00  0.00     0.206 C 
ENDBRANCH   1  25
TORSDOF 3
ENDMDL
MODEL 6
REMARK VINA RESULT:      -7.4      4.030      5.999
REMARK  3 active torsions:
REMARK  status: ('A' for Active; 'I' for Inactive)
REMARK    1  A    between atoms: O1_2  and  P1_3 
REMARK    2  A    between atoms: C4_6  and  N1_7 
REMARK    3  A    between atoms: N1_7  and  C5_8 
ROOT
HETATM    1  P1  UNL     1      22.644   2.981  48.852  1.00  0.00    -0.015 P 
HETATM    2  C2  UNL     1      24.129   2.929  49.855  1.00  0.00     0.145 C 
HETATM    3  C3  UNL     1      25.002   2.834  50.907  1.00  0.00     0.041 A 
HETATM    4  C4  UNL     1      26.302   2.958  50.529  1.00  0.00     0.142 A 
HETATM    5  N2  UNL     1      27.189   2.599  51.454  1.00  0.00    -0.224 NA
HETATM    6  C11 UNL     1      26.782   2.163  52.641  1.00  0.00     0.235 A 
HETATM    7  N3  UNL     1      25.464   2.048  53.014  1.00  0.00    -0.241 NA
HETATM    8  C12 UNL     1      24.536   2.405  52.103  1.00  0.00     0.069 A 
HETATM    9  C13 UNL     1      23.290   2.525  52.621  1.00  0.00     0.011 C 
HETATM   10  C14 UNL     1      21.975   3.124  52.249  1.00  0.00     0.045 C 
HETATM   11  C15 UNL     1      22.250   4.007  51.198  1.00  0.00    -0.019 C 
HETATM   12  C16 UNL     1      21.341   4.891  50.373  1.00  0.00     0.011 C 
HETATM   13  C17 UNL     1      21.642   4.527  48.903  1.00  0.00     0.029 C 
HETATM   14  C18 UNL     1      22.472   5.655  48.351  1.00  0.00     0.016 C 
ENDROOT
BRANCH   4  15
HETATM   15  N1  UNL     1      26.722   3.457  49.276  1.00  0.00    -0.340 N 
HETATM   16  H5  UNL     1      26.828   2.868  48.445  1.00  0.00     0.167 HD
BRANCH  15  17
HETATM   17  C5  UNL     1      27.038   4.805  48.986  1.00  0.00     0.035 A 
HETATM   18  C6  UNL     1      28.249   5.188  48.415  1.00  0.00     0.032 A 
HETATM   19  C7  UNL     1      28.598   6.479  48.129  1.00  0.00     0.046 A 
HETATM   20  C8  UNL     1      27.738   7.502  48.401  1.00  0.00     0.138 A 
HETATM   21  F1  UNL     1      28.114   8.762  48.106  1.00  0.00    -0.204 F 
HETATM   22  C9  UNL     1      26.514   7.208  48.969  1.00  0.00     0.074 A 
HETATM   23 CL1  UNL     1      25.428   8.526  49.310  1.00  0.00    -0.081 Cl
HETATM   24  C10 UNL     1      26.226   5.889  49.232  1.00  0.00     0.056 A 
ENDBRANCH  15  17
ENDBRANCH   4  15
BRANCH   1  25
HETATM   25  O1  UNL     1      21.750   1.532  48.760  1.00  0.00    -0.377 OA
HETATM   26  C1  UNL     1      20.411   1.610  49.012  1.00  0.00     0.206 C 
ENDBRANCH   1  25
TORSDOF 3
ENDMDL
MODEL 7
REMARK VINA RESULT:      -7.4      2.928      4.638
REMARK  3 active torsions:
REMARK  status: ('A' for Active; 'I' for Inactive)
REMARK    1  A    between atoms: O1_2  and  P1_3 
REMARK    2  A    between atoms: C4_6  and  N1_7 
REMARK    3  A    between atoms: N1_7  and  C5_8 
ROOT
HETATM    1  P1  UNL     1      23.538   3.887  48.800  1.00  0.00    -0.015 P 
HETATM    2  C2  UNL     1      22.833   3.115  50.256  1.00  0.00     0.145 C 
HETATM    3  C3  UNL     1      22.075   2.849  51.366  1.00  0.00     0.041 A 
HETATM    4  C4  UNL     1      22.388   1.661  51.949  1.00  0.00     0.142 A 
HETATM    5  N2  UNL     1      21.507   1.231  52.849  1.00  0.00    -0.224 NA
HETATM    6  C11 UNL     1      20.422   1.947  53.122  1.00  0.00     0.235 A 
HETATM    7  N3  UNL     1      20.119   3.150  52.530  1.00  0.00    -0.241 NA
HETATM    8  C12 UNL     1      20.990   3.620  51.615  1.00  0.00     0.069 A 
HETATM    9  C13 UNL     1      20.774   4.913  51.278  1.00  0.00     0.011 C 
HETATM   10  C14 UNL     1      21.496   6.031  50.601  1.00  0.00     0.045 C 
HETATM   11  C15 UNL     1      22.841   5.644  50.572  1.00  0.00    -0.019 C 
HETATM   12  C16 UNL     1      24.063   6.326  49.998  1.00  0.00     0.011 C 
HETATM   13  C17 UNL     1      24.714   5.281  49.067  1.00  0.00     0.029 C 
HETATM   14  C18 UNL     1      25.920   4.757  49.798  1.00  0.00     0.016 C 
ENDROOT
BRANCH   4  15
HETATM   15  N1  UNL     1      23.564   0.927  51.676  1.00  0.00    -0.340 N 
HETATM   16  H5  UNL     1      23.733   0.453  50.784  1.00  0.00     0.167 HD
BRANCH  15  17
HETATM   17  C5  UNL     1      24.653   0.750  52.560  1.00  0.00     0.035 A 
HETATM   18  C6  UNL     1      24.694  -0.267  53.510  1.00  0.00     0.032 A 
HETATM   19  C7  UNL     1      25.722  -0.467  54.390  1.00  0.00     0.046 A 
HETATM   20  C8  UNL     1      26.808   0.358  54.380  1.00  0.00     0.138 A 
HETATM   21  F1  UNL     1      27.803   0.133  55.260  1.00  0.00    -0.204 F 
HETATM   22  C9  UNL     1      26.846   1.395  53.468  1.00  0.00     0.074 A 
HETATM   23 CL1  UNL     1      28.239   2.440  53.469  1.00  0.00    -0.081 Cl
HETATM   24  C10 UNL     1      25.779   1.540  52.612  1.00  0.00     0.056 A 
ENDBRANCH  15  17
ENDBRANCH   4  15
BRANCH   1  25
HETATM   25  O1  UNL     1      22.495   4.055  47.462  1.00  0.00    -0.377 OA
HETATM   26  C1  UNL     1      21.431   3.204  47.391  1.00  0.00     0.206 C 
ENDBRANCH   1  25
TORSDOF 3
ENDMDL
MODEL 8
REMARK VINA RESULT:      -7.1      3.196      4.582
REMARK  3 active torsions:
REMARK  status: ('A' for Active; 'I' for Inactive)
REMARK    1  A    between atoms: O1_2  and  P1_3 
REMARK    2  A    between atoms: C4_6  and  N1_7 
REMARK    3  A    between atoms: N1_7  and  C5_8 
ROOT
HETATM    1  P1  UNL     1      22.940   5.833  49.704  1.00  0.00    -0.015 P 
HETATM    2  C2  UNL     1      24.640   5.461  49.275  1.00  0.00     0.145 C 
HETATM    3  C3  UNL     1      25.915   5.528  48.778  1.00  0.00     0.041 A 
HETATM    4  C4  UNL     1      26.657   4.425  49.069  1.00  0.00     0.142 A 
HETATM    5  N2  UNL     1      27.963   4.558  48.856  1.00  0.00    -0.224 NA
HETATM    6  C11 UNL     1      28.455   5.702  48.391  1.00  0.00     0.235 A 
HETATM    7  N3  UNL     1      27.695   6.808  48.095  1.00  0.00    -0.241 NA
HETATM    8  C12 UNL     1      26.365   6.710  48.295  1.00  0.00     0.069 A 
HETATM    9  C13 UNL     1      25.659   7.721  47.736  1.00  0.00     0.011 C 
HETATM   10  C14 UNL     1      24.247   8.031  47.366  1.00  0.00     0.045 C 
HETATM   11  C15 UNL     1      23.576   6.803  47.387  1.00  0.00    -0.019 C 
HETATM   12  C16 UNL     1      22.127   6.452  47.132  1.00  0.00     0.011 C 
HETATM   13  C17 UNL     1      21.674   5.658  48.376  1.00  0.00     0.029 C 
HETATM   14  C18 UNL     1      21.615   4.214  47.956  1.00  0.00     0.016 C 
ENDROOT
BRANCH   4  15
HETATM   15  N1  UNL     1      26.116   3.203  49.528  1.00  0.00    -0.340 N 
HETATM   16  H5  UNL     1      25.667   2.522  48.910  1.00  0.00     0.167 HD
BRANCH  15  17
HETATM   17  C5  UNL     1      26.121   2.748  50.867  1.00  0.00     0.035 A 
HETATM   18  C6  UNL     1      24.954   2.476  51.575  1.00  0.00     0.032 A 
HETATM   19  C7  UNL     1      24.915   2.045  52.872  1.00  0.00     0.046 A 
HETATM   20  C8  UNL     1      26.071   1.850  53.569  1.00  0.00     0.138 A 
HETATM   21  F1  UNL     1      25.995   1.424  54.845  1.00  0.00    -0.204 F 
HETATM   22  C9  UNL     1      27.275   2.098  52.940  1.00  0.00     0.074 A 
HETATM   23 CL1  UNL     1      28.741   1.845  53.844  1.00  0.00    -0.081 Cl
HETATM   24  C10 UNL     1      27.243   2.530  51.635  1.00  0.00     0.056 A 
ENDBRANCH  15  17
ENDBRANCH   4  15
BRANCH   1  25
HETATM   25  O1  UNL     1      22.707   7.143  50.770  1.00  0.00    -0.377 OA
HETATM   26  C1  UNL     1      21.512   7.797  50.700  1.00  0.00     0.206 C 
ENDBRANCH   1  25
TORSDOF 3
ENDMDL
MODEL 9
REMARK VINA RESULT:      -7.0      5.973      8.737
REMARK  3 active torsions:
REMARK  status: ('A' for Active; 'I' for Inactive)
REMARK    1  A    between atoms: O1_2  and  P1_3 
REMARK    2  A    between atoms: C4_6  and  N1_7 
REMARK    3  A    between atoms: N1_7  and  C5_8 
ROOT
HETATM    1  P1  UNL     1      30.477   7.350  46.970  1.00  0.00    -0.015 P 
HETATM    2  C2  UNL     1      29.016   7.591  47.980  1.00  0.00     0.145 C 
HETATM    3  C3  UNL     1      28.093   8.097  48.857  1.00  0.00     0.041 A 
HETATM    4  C4  UNL     1      26.984   7.318  48.970  1.00  0.00     0.142 A 
HETATM    5  N2  UNL     1      25.955   7.896  49.583  1.00  0.00    -0.224 NA
HETATM    6  C11 UNL     1      26.056   9.141  50.035  1.00  0.00     0.235 A 
HETATM    7  N3  UNL     1      27.184   9.918  49.921  1.00  0.00    -0.241 NA
HETATM    8  C12 UNL     1      28.250   9.365  49.308  1.00  0.00     0.069 A 
HETATM    9  C13 UNL     1      29.392  10.072  49.469  1.00  0.00     0.011 C 
HETATM   10  C14 UNL     1      30.864   9.876  49.310  1.00  0.00     0.045 C 
HETATM   11  C15 UNL     1      31.050   8.492  49.225  1.00  0.00    -0.019 C 
HETATM   12  C16 UNL     1      32.300   7.662  49.030  1.00  0.00     0.011 C 
HETATM   13  C17 UNL     1      32.002   6.754  47.817  1.00  0.00     0.029 C 
HETATM   14  C18 UNL     1      31.737   5.381  48.373  1.00  0.00     0.016 C 
ENDROOT
BRANCH   4  15
HETATM   15  N1  UNL     1      26.903   5.982  48.516  1.00  0.00    -0.340 N 
HETATM   16  H5  UNL     1      27.395   5.642  47.685  1.00  0.00     0.167 HD
BRANCH  15  17
HETATM   17  C5  UNL     1      26.161   4.945  49.127  1.00  0.00     0.035 A 
HETATM   18  C6  UNL     1      24.773   4.864  49.049  1.00  0.00     0.032 A 
HETATM   19  C7  UNL     1      24.018   3.885  49.634  1.00  0.00     0.046 A 
HETATM   20  C8  UNL     1      24.614   2.893  50.355  1.00  0.00     0.138 A 
HETATM   21  F1  UNL     1      23.841   1.944  50.916  1.00  0.00    -0.204 F 
HETATM   22  C9  UNL     1      25.990   2.899  50.483  1.00  0.00     0.074 A 
HETATM   23 CL1  UNL     1      26.735   1.625  51.407  1.00  0.00    -0.081 Cl
HETATM   24  C10 UNL     1      26.689   3.913  49.870  1.00  0.00     0.056 A 
ENDBRANCH  15  17
ENDBRANCH   4  15
BRANCH   1  25
HETATM   25  O1  UNL     1      30.727   8.492  45.730  1.00  0.00    -0.377 OA
HETATM   26  C1  UNL     1      29.818   9.504  45.624  1.00  0.00     0.206 C 
ENDBRANCH   1  25
TORSDOF 3
ENDMDL
