MODEL 1
REMARK VINA RESULT:      -7.0      0.000      0.000
REMARK  10 active torsions:
REMARK  status: ('A' for Active; 'I' for Inactive)
REMARK    1  A    between atoms: C2_2  and  C3_3 
REMARK    2  A    between atoms: C3_3  and  C4_4 
REMARK    3  A    between atoms: C4_4  and  N1_5 
REMARK    4  A    between atoms: N1_5  and  C5_6 
REMARK    5  A    between atoms: C5_6  and  N2_7 
REMARK    6  A    between atoms: C8_10  and  O1_11 
REMARK    7  A    between atoms: O1_11  and  C9_12 
REMARK    8  A    between atoms: C13_18  and  O2_19 
REMARK    9  A    between atoms: C15_21  and  C16_22 
REMARK   10  A    between atoms: C16_22  and  O3_23 
ROOT
HETATM    1  C9  UNL     1      25.158   3.031  50.276  1.00  0.00     0.183 A 
HETATM    2  N3  UNL     1      23.890   2.679  50.564  1.00  0.00    -0.217 NA
HETATM    3  C10 UNL     1      22.895   3.525  50.165  1.00  0.00     0.236 A 
HETATM    4  N4  UNL     1      23.138   4.677  49.508  1.00  0.00    -0.241 NA
HETATM    5  C11 UNL     1      24.383   5.060  49.206  1.00  0.00     0.075 A 
HETATM    6  C12 UNL     1      24.546   6.246  48.536  1.00  0.00     0.070 A 
HETATM    7  C13 UNL     1      25.867   6.602  48.242  1.00  0.00     0.079 A 
HETATM    8  C15 UNL     1      26.964   5.810  48.603  1.00  0.00    -0.000 A 
HETATM    9  C18 UNL     1      26.685   4.638  49.274  1.00  0.00     0.030 A 
HETATM   10  C19 UNL     1      25.396   4.214  49.602  1.00  0.00     0.047 A 
ENDROOT
BRANCH   1  11
HETATM   11  O1  UNL     1      26.289   2.312  50.594  1.00  0.00    -0.296 OA
BRANCH  11  12
HETATM   12  C8  UNL     1      26.334   1.558  51.759  1.00  0.00     0.055 C 
HETATM   13  C7  UNL     1      26.807   0.297  51.757  1.00  0.00     0.036 C 
HETATM   14  C6  UNL     1      26.870  -0.542  52.987  1.00  0.00     0.304 C 
HETATM   15  N2  UNL     1      27.094   0.195  54.188  1.00  0.00     0.120 N 
HETATM   16  C21 UNL     1      27.099   1.636  54.011  1.00  0.00     0.281 C 
HETATM   17  C20 UNL     1      25.897   1.976  53.140  1.00  0.00     0.095 C 
BRANCH  15  18
HETATM   18  C5  UNL     1      26.201  -0.080  55.271  1.00  0.00     0.540 C 
BRANCH  18  19
HETATM   19  N1  UNL     1      25.339  -1.195  55.101  1.00  0.00     0.111 N 
HETATM   20  H10 UNL     1      25.515  -1.643  54.181  1.00  0.00     0.318 HD
BRANCH  19  21
HETATM   21  C4  UNL     1      23.945  -0.931  55.220  1.00  0.00     0.272 C 
BRANCH  21  22
HETATM   22  C3  UNL     1      23.188  -0.843  53.924  1.00  0.00     0.030 C 
BRANCH  22  23
HETATM   23  C2  UNL     1      21.746  -1.169  54.270  1.00  0.00    -0.003 C 
HETATM   24  C1  UNL     1      20.999   0.060  54.692  1.00  0.00     0.005 C 
ENDBRANCH  22  23
ENDBRANCH  21  22
ENDBRANCH  19  21
ENDBRANCH  18  19
ENDBRANCH  15  18
ENDBRANCH  11  12
ENDBRANCH   1  11
BRANCH   8  25
HETATM   25  C16 UNL     1      28.339   6.236  48.268  1.00  0.00     0.208 C 
BRANCH  25  26
HETATM   26  O3  UNL     1      29.201   5.156  48.449  1.00  0.00    -0.391 OA
HETATM   27  C17 UNL     1      30.441   5.451  47.906  1.00  0.00     0.201 C 
ENDBRANCH  25  26
ENDBRANCH   8  25
BRANCH   7  28
HETATM   28  O2  UNL     1      26.166   7.787  47.562  1.00  0.00    -0.355 OA
HETATM   29  C14 UNL     1      25.270   8.236  46.567  1.00  0.00     0.210 C 
ENDBRANCH   7  28
TORSDOF 10
ENDMDL
MODEL 2
REMARK VINA RESULT:      -7.0      3.239      9.088
REMARK  10 active torsions:
REMARK  status: ('A' for Active; 'I' for Inactive)
REMARK    1  A    between atoms: C2_2  and  C3_3 
REMARK    2  A    between atoms: C3_3  and  C4_4 
REMARK    3  A    between atoms: C4_4  and  N1_5 
REMARK    4  A    between atoms: N1_5  and  C5_6 
REMARK    5  A    between atoms: C5_6  and  N2_7 
REMARK    6  A    between atoms: C8_10  and  O1_11 
REMARK    7  A    between atoms: O1_11  and  C9_12 
REMARK    8  A    between atoms: C13_18  and  O2_19 
REMARK    9  A    between atoms: C15_21  and  C16_22 
REMARK   10  A    between atoms: C16_22  and  O3_23 
ROOT
HETATM    1  C9  UNL     1      25.928   2.443  51.125  1.00  0.00     0.183 A 
HETATM    2  N3  UNL     1      27.188   2.472  51.599  1.00  0.00    -0.217 NA
HETATM    3  C10 UNL     1      27.462   1.723  52.707  1.00  0.00     0.236 A 
HETATM    4  N4  UNL     1      26.530   0.973  53.328  1.00  0.00    -0.241 NA
HETATM    5  C11 UNL     1      25.269   0.920  52.887  1.00  0.00     0.075 A 
HETATM    6  C12 UNL     1      24.379   0.133  53.574  1.00  0.00     0.070 A 
HETATM    7  C13 UNL     1      23.073   0.110  53.072  1.00  0.00     0.079 A 
HETATM    8  C15 UNL     1      22.682   0.839  51.943  1.00  0.00    -0.000 A 
HETATM    9  C18 UNL     1      23.656   1.597  51.329  1.00  0.00     0.030 A 
HETATM   10  C19 UNL     1      24.980   1.671  51.768  1.00  0.00     0.047 A 
ENDROOT
BRANCH   1  11
HETATM   11  O1  UNL     1      25.462   3.127  50.023  1.00  0.00    -0.296 OA
BRANCH  11  12
HETATM   12  C8  UNL     1      26.038   4.336  49.655  1.00  0.00     0.055 C 
HETATM   13  C7  UNL     1      27.170   4.376  48.926  1.00  0.00     0.036 C 
HETATM   14  C6  UNL     1      27.817   5.654  48.513  1.00  0.00     0.304 C 
HETATM   15  N2  UNL     1      26.905   6.728  48.290  1.00  0.00     0.120 N 
HETATM   16  C21 UNL     1      25.526   6.416  48.621  1.00  0.00     0.281 C 
HETATM   17  C20 UNL     1      25.544   5.723  49.976  1.00  0.00     0.095 C 
BRANCH  15  18
HETATM   18  C5  UNL     1      27.213   7.962  48.944  1.00  0.00     0.540 C 
BRANCH  18  19
HETATM   19  N1  UNL     1      28.551   8.113  49.392  1.00  0.00     0.111 N 
HETATM   20  H10 UNL     1      28.654   7.714  50.345  1.00  0.00     0.318 HD
BRANCH  19  21
HETATM   21  C4  UNL     1      29.061   9.442  49.397  1.00  0.00     0.272 C 
BRANCH  21  22
HETATM   22  C3  UNL     1      30.559   9.564  49.437  1.00  0.00     0.030 C 
BRANCH  22  23
HETATM   23  C2  UNL     1      30.904  10.687  48.475  1.00  0.00    -0.003 C 
HETATM   24  C1  UNL     1      30.713  12.028  49.117  1.00  0.00     0.005 C 
ENDBRANCH  22  23
ENDBRANCH  21  22
ENDBRANCH  19  21
ENDBRANCH  18  19
ENDBRANCH  15  18
ENDBRANCH  11  12
ENDBRANCH   1  11
BRANCH   8  25
HETATM   25  C16 UNL     1      21.287   0.778  51.458  1.00  0.00     0.208 C 
BRANCH  25  26
HETATM   26  O3  UNL     1      20.817   2.077  51.277  1.00  0.00    -0.391 OA
HETATM   27  C17 UNL     1      20.161   2.501  52.423  1.00  0.00     0.201 C 
ENDBRANCH  25  26
ENDBRANCH   8  25
BRANCH   7  28
HETATM   28  O2  UNL     1      22.074  -0.655  53.684  1.00  0.00    -0.355 OA
HETATM   29  C14 UNL     1      22.369  -1.289  54.911  1.00  0.00     0.210 C 
ENDBRANCH   7  28
TORSDOF 10
ENDMDL
MODEL 3
REMARK VINA RESULT:      -6.9      2.624      7.423
REMARK  10 active torsions:
REMARK  status: ('A' for Active; 'I' for Inactive)
REMARK    1  A    between atoms: C2_2  and  C3_3 
REMARK    2  A    between atoms: C3_3  and  C4_4 
REMARK    3  A    between atoms: C4_4  and  N1_5 
REMARK    4  A    between atoms: N1_5  and  C5_6 
REMARK    5  A    between atoms: C5_6  and  N2_7 
REMARK    6  A    between atoms: C8_10  and  O1_11 
REMARK    7  A    between atoms: O1_11  and  C9_12 
REMARK    8  A    between atoms: C13_18  and  O2_19 
REMARK    9  A    between atoms: C15_21  and  C16_22 
REMARK   10  A    between atoms: C16_22  and  O3_23 
ROOT
HETATM    1  C9  UNL     1      22.776  -0.351  53.114  1.00  0.00     0.183 A 
HETATM    2  N3  UNL     1      22.017  -1.099  53.938  1.00  0.00    -0.217 NA
HETATM    3  C10 UNL     1      22.586  -1.525  55.104  1.00  0.00     0.236 A 
HETATM    4  N4  UNL     1      23.854  -1.227  55.448  1.00  0.00    -0.241 NA
HETATM    5  C11 UNL     1      24.637  -0.487  54.656  1.00  0.00     0.075 A 
HETATM    6  C12 UNL     1      25.917  -0.227  55.077  1.00  0.00     0.070 A 
HETATM    7  C13 UNL     1      26.695   0.552  54.214  1.00  0.00     0.079 A 
HETATM    8  C15 UNL     1      26.215   1.041  52.993  1.00  0.00    -0.000 A 
HETATM    9  C18 UNL     1      24.915   0.720  52.668  1.00  0.00     0.030 A 
HETATM   10  C19 UNL     1      24.075  -0.050  53.476  1.00  0.00     0.047 A 
ENDROOT
BRANCH   1  11
HETATM   11  O1  UNL     1      22.381   0.169  51.901  1.00  0.00    -0.296 OA
BRANCH  11  12
HETATM   12  C8  UNL     1      22.006   1.502  51.800  1.00  0.00     0.055 C 
HETATM   13  C7  UNL     1      20.942   1.981  52.473  1.00  0.00     0.036 C 
HETATM   14  C6  UNL     1      20.509   3.405  52.390  1.00  0.00     0.304 C 
HETATM   15  N2  UNL     1      21.576   4.331  52.190  1.00  0.00     0.120 N 
HETATM   16  C21 UNL     1      22.872   3.711  51.984  1.00  0.00     0.281 C 
HETATM   17  C20 UNL     1      22.667   2.583  50.983  1.00  0.00     0.095 C 
BRANCH  15  18
HETATM   18  C5  UNL     1      21.401   5.273  51.128  1.00  0.00     0.540 C 
BRANCH  18  19
HETATM   19  N1  UNL     1      21.803   6.606  51.404  1.00  0.00     0.111 N 
HETATM   20  H10 UNL     1      20.975   7.234  51.403  1.00  0.00     0.318 HD
BRANCH  19  21
HETATM   21  C4  UNL     1      22.790   7.153  50.537  1.00  0.00     0.272 C 
BRANCH  21  22
HETATM   22  C3  UNL     1      24.191   7.182  51.083  1.00  0.00     0.030 C 
BRANCH  22  23
HETATM   23  C2  UNL     1      24.991   6.234  50.207  1.00  0.00    -0.003 C 
HETATM   24  C1  UNL     1      24.319   6.019  48.885  1.00  0.00     0.005 C 
ENDBRANCH  22  23
ENDBRANCH  21  22
ENDBRANCH  19  21
ENDBRANCH  18  19
ENDBRANCH  15  18
ENDBRANCH  11  12
ENDBRANCH   1  11
BRANCH   8  25
HETATM   25  C16 UNL     1      27.083   1.858  52.120  1.00  0.00     0.208 C 
BRANCH  25  26
HETATM   26  O3  UNL     1      26.327   2.897  51.581  1.00  0.00    -0.391 OA
HETATM   27  C17 UNL     1      26.512   2.947  50.208  1.00  0.00     0.201 C 
ENDBRANCH  25  26
ENDBRANCH   8  25
BRANCH   7  28
HETATM   28  O2  UNL     1      28.016   0.886  54.531  1.00  0.00    -0.355 OA
HETATM   29  C14 UNL     1      28.992  -0.135  54.509  1.00  0.00     0.210 C 
ENDBRANCH   7  28
TORSDOF 10
ENDMDL
MODEL 4
REMARK VINA RESULT:      -6.9      2.560      8.401
REMARK  10 active torsions:
REMARK  status: ('A' for Active; 'I' for Inactive)
REMARK    1  A    between atoms: C2_2  and  C3_3 
REMARK    2  A    between atoms: C3_3  and  C4_4 
REMARK    3  A    between atoms: C4_4  and  N1_5 
REMARK    4  A    between atoms: N1_5  and  C5_6 
REMARK    5  A    between atoms: C5_6  and  N2_7 
REMARK    6  A    between atoms: C8_10  and  O1_11 
REMARK    7  A    between atoms: O1_11  and  C9_12 
REMARK    8  A    between atoms: C13_18  and  O2_19 
REMARK    9  A    between atoms: C15_21  and  C16_22 
REMARK   10  A    between atoms: C16_22  and  O3_23 
ROOT
HETATM    1  C9  UNL     1      24.334   2.589  50.461  1.00  0.00     0.183 A 
HETATM    2  N3  UNL     1      23.352   3.047  49.660  1.00  0.00    -0.217 NA
HETATM    3  C10 UNL     1      22.084   2.601  49.901  1.00  0.00     0.236 A 
HETATM    4  N4  UNL     1      21.791   1.736  50.892  1.00  0.00    -0.241 NA
HETATM    5  C11 UNL     1      22.739   1.260  51.706  1.00  0.00     0.075 A 
HETATM    6  C12 UNL     1      22.360   0.384  52.692  1.00  0.00     0.070 A 
HETATM    7  C13 UNL     1      23.388  -0.084  53.518  1.00  0.00     0.079 A 
HETATM    8  C15 UNL     1      24.724   0.306  53.362  1.00  0.00    -0.000 A 
HETATM    9  C18 UNL     1      24.993   1.191  52.340  1.00  0.00     0.030 A 
HETATM   10  C19 UNL     1      24.024   1.704  51.475  1.00  0.00     0.047 A 
ENDROOT
BRANCH   1  11
HETATM   11  O1  UNL     1      25.668   2.923  50.376  1.00  0.00    -0.296 OA
BRANCH  11  12
HETATM   12  C8  UNL     1      26.048   4.168  49.895  1.00  0.00     0.055 C 
HETATM   13  C7  UNL     1      27.089   4.303  49.052  1.00  0.00     0.036 C 
HETATM   14  C6  UNL     1      27.527   5.624  48.516  1.00  0.00     0.304 C 
HETATM   15  N2  UNL     1      26.468   6.564  48.339  1.00  0.00     0.120 N 
HETATM   16  C21 UNL     1      25.179   6.108  48.825  1.00  0.00     0.281 C 
HETATM   17  C20 UNL     1      25.416   5.502  50.202  1.00  0.00     0.095 C 
BRANCH  15  18
HETATM   18  C5  UNL     1      26.680   7.862  48.900  1.00  0.00     0.540 C 
BRANCH  18  19
HETATM   19  N1  UNL     1      27.903   8.050  49.595  1.00  0.00     0.111 N 
HETATM   20  H10 UNL     1      27.730   8.071  50.619  1.00  0.00     0.318 HD
BRANCH  19  21
HETATM   21  C4  UNL     1      28.654   9.205  49.237  1.00  0.00     0.272 C 
BRANCH  21  22
HETATM   22  C3  UNL     1      30.145   9.080  49.381  1.00  0.00     0.030 C 
BRANCH  22  23
HETATM   23  C2  UNL     1      30.529   7.834  48.603  1.00  0.00    -0.003 C 
HETATM   24  C1  UNL     1      31.561   7.033  49.338  1.00  0.00     0.005 C 
ENDBRANCH  22  23
ENDBRANCH  21  22
ENDBRANCH  19  21
ENDBRANCH  18  19
ENDBRANCH  15  18
ENDBRANCH  11  12
ENDBRANCH   1  11
BRANCH   8  25
HETATM   25  C16 UNL     1      25.769  -0.222  54.263  1.00  0.00     0.208 C 
BRANCH  25  26
HETATM   26  O3  UNL     1      26.575   0.834  54.683  1.00  0.00    -0.391 OA
HETATM   27  C17 UNL     1      27.905   0.445  54.662  1.00  0.00     0.201 C 
ENDBRANCH  25  26
ENDBRANCH   8  25
BRANCH   7  28
HETATM   28  O2  UNL     1      23.130  -0.982  54.559  1.00  0.00    -0.355 OA
HETATM   29  C14 UNL     1      21.852  -1.578  54.632  1.00  0.00     0.210 C 
ENDBRANCH   7  28
TORSDOF 10
ENDMDL
MODEL 5
REMARK VINA RESULT:      -6.7      3.726      7.422
REMARK  10 active torsions:
REMARK  status: ('A' for Active; 'I' for Inactive)
REMARK    1  A    between atoms: C2_2  and  C3_3 
REMARK    2  A    between atoms: C3_3  and  C4_4 
REMARK    3  A    between atoms: C4_4  and  N1_5 
REMARK    4  A    between atoms: N1_5  and  C5_6 
REMARK    5  A    between atoms: C5_6  and  N2_7 
REMARK    6  A    between atoms: C8_10  and  O1_11 
REMARK    7  A    between atoms: O1_11  and  C9_12 
REMARK    8  A    between atoms: C13_18  and  O2_19 
REMARK    9  A    between atoms: C15_21  and  C16_22 
REMARK   10  A    between atoms: C16_22  and  O3_23 
ROOT
HETATM    1  C9  UNL     1      22.036   0.873  53.222  1.00  0.00     0.183 A 
HETATM    2  N3  UNL     1      21.276   0.092  54.013  1.00  0.00    -0.217 NA
HETATM    3  C10 UNL     1      21.905  -0.890  54.723  1.00  0.00     0.236 A 
HETATM    4  N4  UNL     1      23.236  -1.098  54.657  1.00  0.00    -0.241 NA
HETATM    5  C11 UNL     1      24.023  -0.344  53.883  1.00  0.00     0.075 A 
HETATM    6  C12 UNL     1      25.367  -0.618  53.870  1.00  0.00     0.070 A 
HETATM    7  C13 UNL     1      26.147   0.199  53.046  1.00  0.00     0.079 A 
HETATM    8  C15 UNL     1      25.607   1.235  52.274  1.00  0.00    -0.000 A 
HETATM    9  C18 UNL     1      24.244   1.424  52.362  1.00  0.00     0.030 A 
HETATM   10  C19 UNL     1      23.398   0.652  53.162  1.00  0.00     0.047 A 
ENDROOT
BRANCH   1  11
HETATM   11  O1  UNL     1      21.586   1.910  52.435  1.00  0.00    -0.296 OA
BRANCH  11  12
HETATM   12  C8  UNL     1      20.371   1.806  51.770  1.00  0.00     0.055 C 
HETATM   13  C7  UNL     1      19.362   2.660  52.021  1.00  0.00     0.036 C 
HETATM   14  C6  UNL     1      18.045   2.579  51.327  1.00  0.00     0.304 C 
HETATM   15  N2  UNL     1      18.118   2.094  49.987  1.00  0.00     0.120 N 
HETATM   16  C21 UNL     1      19.441   1.653  49.585  1.00  0.00     0.281 C 
HETATM   17  C20 UNL     1      19.985   0.796  50.719  1.00  0.00     0.095 C 
BRANCH  15  18
HETATM   18  C5  UNL     1      17.216   1.036  49.652  1.00  0.00     0.540 C 
BRANCH  18  19
HETATM   19  N1  UNL     1      16.320   0.631  50.676  1.00  0.00     0.111 N 
HETATM   20  H10 UNL     1      16.328   1.324  51.449  1.00  0.00     0.318 HD
BRANCH  19  21
HETATM   21  C4  UNL     1      16.541  -0.664  51.223  1.00  0.00     0.272 C 
BRANCH  21  22
HETATM   22  C3  UNL     1      16.537  -0.745  52.724  1.00  0.00     0.030 C 
BRANCH  22  23
HETATM   23  C2  UNL     1      17.939  -1.181  53.114  1.00  0.00    -0.003 C 
HETATM   24  C1  UNL     1      17.934  -2.558  53.704  1.00  0.00     0.005 C 
ENDBRANCH  22  23
ENDBRANCH  21  22
ENDBRANCH  19  21
ENDBRANCH  18  19
ENDBRANCH  15  18
ENDBRANCH  11  12
ENDBRANCH   1  11
BRANCH   8  25
HETATM   25  C16 UNL     1      26.480   2.067  51.419  1.00  0.00     0.208 C 
BRANCH  25  26
HETATM   26  O3  UNL     1      25.686   2.756  50.504  1.00  0.00    -0.391 OA
HETATM   27  C17 UNL     1      26.493   3.455  49.619  1.00  0.00     0.201 C 
ENDBRANCH  25  26
ENDBRANCH   8  25
BRANCH   7  28
HETATM   28  O2  UNL     1      27.531   0.020  52.946  1.00  0.00    -0.355 OA
HETATM   29  C14 UNL     1      28.049  -1.290  53.051  1.00  0.00     0.210 C 
ENDBRANCH   7  28
TORSDOF 10
ENDMDL
MODEL 6
REMARK VINA RESULT:      -6.6      2.794      5.807
REMARK  10 active torsions:
REMARK  status: ('A' for Active; 'I' for Inactive)
REMARK    1  A    between atoms: C2_2  and  C3_3 
REMARK    2  A    between atoms: C3_3  and  C4_4 
REMARK    3  A    between atoms: C4_4  and  N1_5 
REMARK    4  A    between atoms: N1_5  and  C5_6 
REMARK    5  A    between atoms: C5_6  and  N2_7 
REMARK    6  A    between atoms: C8_10  and  O1_11 
REMARK    7  A    between atoms: O1_11  and  C9_12 
REMARK    8  A    between atoms: C13_18  and  O2_19 
REMARK    9  A    between atoms: C15_21  and  C16_22 
REMARK   10  A    between atoms: C16_22  and  O3_23 
ROOT
HETATM    1  C9  UNL     1      28.021   7.015  48.590  1.00  0.00     0.183 A 
HETATM    2  N3  UNL     1      27.527   8.154  49.112  1.00  0.00    -0.217 NA
HETATM    3  C10 UNL     1      28.415   9.150  49.406  1.00  0.00     0.236 A 
HETATM    4  N4  UNL     1      29.741   9.029  49.195  1.00  0.00    -0.241 NA
HETATM    5  C11 UNL     1      30.267   7.913  48.680  1.00  0.00     0.075 A 
HETATM    6  C12 UNL     1      31.627   7.868  48.495  1.00  0.00     0.070 A 
HETATM    7  C13 UNL     1      32.128   6.680  47.953  1.00  0.00     0.079 A 
HETATM    8  C15 UNL     1      31.309   5.595  47.615  1.00  0.00    -0.000 A 
HETATM    9  C18 UNL     1      29.958   5.748  47.841  1.00  0.00     0.030 A 
HETATM   10  C19 UNL     1      29.381   6.901  48.378  1.00  0.00     0.047 A 
ENDROOT
BRANCH   1  11
HETATM   11  O1  UNL     1      27.287   5.906  48.231  1.00  0.00    -0.296 OA
BRANCH  11  12
HETATM   12  C8  UNL     1      26.430   5.308  49.145  1.00  0.00     0.055 C 
HETATM   13  C7  UNL     1      25.298   5.918  49.543  1.00  0.00     0.036 C 
HETATM   14  C6  UNL     1      24.354   5.308  50.522  1.00  0.00     0.304 C 
HETATM   15  N2  UNL     1      24.297   3.883  50.471  1.00  0.00     0.120 N 
HETATM   16  C21 UNL     1      25.255   3.281  49.562  1.00  0.00     0.281 C 
HETATM   17  C20 UNL     1      26.591   3.965  49.812  1.00  0.00     0.095 C 
BRANCH  15  18
HETATM   18  C5  UNL     1      24.438   3.203  51.721  1.00  0.00     0.540 C 
BRANCH  18  19
HETATM   19  N1  UNL     1      24.381   1.785  51.671  1.00  0.00     0.111 N 
HETATM   20  H10 UNL     1      23.414   1.462  51.868  1.00  0.00     0.318 HD
BRANCH  19  21
HETATM   21  C4  UNL     1      25.278   1.093  52.532  1.00  0.00     0.272 C 
BRANCH  21  22
HETATM   22  C3  UNL     1      26.555   0.619  51.896  1.00  0.00     0.030 C 
BRANCH  22  23
HETATM   23  C2  UNL     1      26.728  -0.820  52.348  1.00  0.00    -0.003 C 
HETATM   24  C1  UNL     1      27.991  -0.991  53.138  1.00  0.00     0.005 C 
ENDBRANCH  22  23
ENDBRANCH  21  22
ENDBRANCH  19  21
ENDBRANCH  18  19
ENDBRANCH  15  18
ENDBRANCH  11  12
ENDBRANCH   1  11
BRANCH   8  25
HETATM   25  C16 UNL     1      31.895   4.363  47.046  1.00  0.00     0.208 C 
BRANCH  25  26
HETATM   26  O3  UNL     1      32.384   3.577  48.086  1.00  0.00    -0.391 OA
HETATM   27  C17 UNL     1      33.238   2.609  47.580  1.00  0.00     0.201 C 
ENDBRANCH  25  26
ENDBRANCH   8  25
BRANCH   7  28
HETATM   28  O2  UNL     1      33.496   6.511  47.717  1.00  0.00    -0.355 OA
HETATM   29  C14 UNL     1      34.412   7.103  48.614  1.00  0.00     0.210 C 
ENDBRANCH   7  28
TORSDOF 10
ENDMDL
MODEL 7
REMARK VINA RESULT:      -6.6      2.676      7.959
REMARK  10 active torsions:
REMARK  status: ('A' for Active; 'I' for Inactive)
REMARK    1  A    between atoms: C2_2  and  C3_3 
REMARK    2  A    between atoms: C3_3  and  C4_4 
REMARK    3  A    between atoms: C4_4  and  N1_5 
REMARK    4  A    between atoms: N1_5  and  C5_6 
REMARK    5  A    between atoms: C5_6  and  N2_7 
REMARK    6  A    between atoms: C8_10  and  O1_11 
REMARK    7  A    between atoms: O1_11  and  C9_12 
REMARK    8  A    between atoms: C13_18  and  O2_19 
REMARK    9  A    between atoms: C15_21  and  C16_22 
REMARK   10  A    between atoms: C16_22  and  O3_23 
ROOT
HETATM    1  C9  UNL     1      23.183   2.142  50.773  1.00  0.00     0.183 A 
HETATM    2  N3  UNL     1      21.848   2.093  50.605  1.00  0.00    -0.217 NA
HETATM    3  C10 UNL     1      21.142   1.243  51.408  1.00  0.00     0.236 A 
HETATM    4  N4  UNL     1      21.729   0.469  52.343  1.00  0.00    -0.241 NA
HETATM    5  C11 UNL     1      23.051   0.490  52.538  1.00  0.00     0.075 A 
HETATM    6  C12 UNL     1      23.572  -0.329  53.508  1.00  0.00     0.070 A 
HETATM    7  C13 UNL     1      24.960  -0.269  53.674  1.00  0.00     0.079 A 
HETATM    8  C15 UNL     1      25.780   0.567  52.906  1.00  0.00    -0.000 A 
HETATM    9  C18 UNL     1      25.153   1.347  51.959  1.00  0.00     0.030 A 
HETATM   10  C19 UNL     1      23.774   1.345  51.734  1.00  0.00     0.047 A 
ENDROOT
BRANCH   1  11
HETATM   11  O1  UNL     1      24.059   2.934  50.063  1.00  0.00    -0.296 OA
BRANCH  11  12
HETATM   12  C8  UNL     1      23.790   4.284  49.880  1.00  0.00     0.055 C 
HETATM   13  C7  UNL     1      23.395   4.761  48.685  1.00  0.00     0.036 C 
HETATM   14  C6  UNL     1      23.099   6.204  48.451  1.00  0.00     0.304 C 
HETATM   15  N2  UNL     1      22.573   6.886  49.589  1.00  0.00     0.120 N 
HETATM   16  C21 UNL     1      22.535   6.084  50.798  1.00  0.00     0.281 C 
HETATM   17  C20 UNL     1      23.882   5.385  50.906  1.00  0.00     0.095 C 
BRANCH  15  18
HETATM   18  C5  UNL     1      23.212   8.117  49.935  1.00  0.00     0.540 C 
BRANCH  18  19
HETATM   19  N1  UNL     1      24.227   8.564  49.050  1.00  0.00     0.111 N 
HETATM   20  H10 UNL     1      24.401   7.848  48.318  1.00  0.00     0.318 HD
BRANCH  19  21
HETATM   21  C4  UNL     1      25.470   8.913  49.649  1.00  0.00     0.272 C 
BRANCH  21  22
HETATM   22  C3  UNL     1      26.436   7.779  49.849  1.00  0.00     0.030 C 
BRANCH  22  23
HETATM   23  C2  UNL     1      26.542   7.089  48.501  1.00  0.00    -0.003 C 
HETATM   24  C1  UNL     1      27.064   5.691  48.647  1.00  0.00     0.005 C 
ENDBRANCH  22  23
ENDBRANCH  21  22
ENDBRANCH  19  21
ENDBRANCH  18  19
ENDBRANCH  15  18
ENDBRANCH  11  12
ENDBRANCH   1  11
BRANCH   8  25
HETATM   25  C16 UNL     1      27.242   0.587  53.124  1.00  0.00     0.208 C 
BRANCH  25  26
HETATM   26  O3  UNL     1      27.542   1.576  54.060  1.00  0.00    -0.391 OA
HETATM   27  C17 UNL     1      28.917   1.689  54.196  1.00  0.00     0.201 C 
ENDBRANCH  25  26
ENDBRANCH   8  25
BRANCH   7  28
HETATM   28  O2  UNL     1      25.611  -1.054  54.632  1.00  0.00    -0.355 OA
HETATM   29  C14 UNL     1      25.144  -1.016  55.964  1.00  0.00     0.210 C 
ENDBRANCH   7  28
TORSDOF 10
ENDMDL
MODEL 8
REMARK VINA RESULT:      -6.4      3.332      7.270
REMARK  10 active torsions:
REMARK  status: ('A' for Active; 'I' for Inactive)
REMARK    1  A    between atoms: C2_2  and  C3_3 
REMARK    2  A    between atoms: C3_3  and  C4_4 
REMARK    3  A    between atoms: C4_4  and  N1_5 
REMARK    4  A    between atoms: N1_5  and  C5_6 
REMARK    5  A    between atoms: C5_6  and  N2_7 
REMARK    6  A    between atoms: C8_10  and  O1_11 
REMARK    7  A    between atoms: O1_11  and  C9_12 
REMARK    8  A    between atoms: C13_18  and  O2_19 
REMARK    9  A    between atoms: C15_21  and  C16_22 
REMARK   10  A    between atoms: C16_22  and  O3_23 
ROOT
HETATM    1  C9  UNL     1      24.272   3.588  51.422  1.00  0.00     0.183 A 
HETATM    2  N3  UNL     1      24.820   4.446  50.540  1.00  0.00    -0.217 NA
HETATM    3  C10 UNL     1      26.059   4.144  50.052  1.00  0.00     0.236 A 
HETATM    4  N4  UNL     1      26.736   3.038  50.420  1.00  0.00    -0.241 NA
HETATM    5  C11 UNL     1      26.226   2.164  51.293  1.00  0.00     0.075 A 
HETATM    6  C12 UNL     1      26.978   1.063  51.616  1.00  0.00     0.070 A 
HETATM    7  C13 UNL     1      26.400   0.178  52.533  1.00  0.00     0.079 A 
HETATM    8  C15 UNL     1      25.135   0.389  53.096  1.00  0.00    -0.000 A 
HETATM    9  C18 UNL     1      24.466   1.528  52.702  1.00  0.00     0.030 A 
HETATM   10  C19 UNL     1      24.975   2.458  51.792  1.00  0.00     0.047 A 
ENDROOT
BRANCH   1  11
HETATM   11  O1  UNL     1      23.039   3.720  52.020  1.00  0.00    -0.296 OA
BRANCH  11  12
HETATM   12  C8  UNL     1      21.879   3.526  51.281  1.00  0.00     0.055 C 
HETATM   13  C7  UNL     1      20.692   4.000  51.707  1.00  0.00     0.036 C 
HETATM   14  C6  UNL     1      19.427   3.811  50.941  1.00  0.00     0.304 C 
HETATM   15  N2  UNL     1      19.600   3.771  49.525  1.00  0.00     0.120 N 
HETATM   16  C21 UNL     1      20.985   3.801  49.093  1.00  0.00     0.281 C 
HETATM   17  C20 UNL     1      21.740   2.806  49.964  1.00  0.00     0.095 C 
BRANCH  15  18
HETATM   18  C5  UNL     1      18.984   2.673  48.847  1.00  0.00     0.540 C 
BRANCH  18  19
HETATM   19  N1  UNL     1      19.174   1.393  49.430  1.00  0.00     0.111 N 
HETATM   20  H10 UNL     1      19.559   0.735  48.725  1.00  0.00     0.318 HD
BRANCH  19  21
HETATM   21  C4  UNL     1      18.025   0.802  50.026  1.00  0.00     0.272 C 
BRANCH  21  22
HETATM   22  C3  UNL     1      18.284  -0.042  51.242  1.00  0.00     0.030 C 
BRANCH  22  23
HETATM   23  C2  UNL     1      19.767   0.105  51.534  1.00  0.00    -0.003 C 
HETATM   24  C1  UNL     1      20.001   0.542  52.948  1.00  0.00     0.005 C 
ENDBRANCH  22  23
ENDBRANCH  21  22
ENDBRANCH  19  21
ENDBRANCH  18  19
ENDBRANCH  15  18
ENDBRANCH  11  12
ENDBRANCH   1  11
BRANCH   8  25
HETATM   25  C16 UNL     1      24.574  -0.579  54.062  1.00  0.00     0.208 C 
BRANCH  25  26
HETATM   26  O3  UNL     1      23.183  -0.513  54.006  1.00  0.00    -0.391 OA
HETATM   27  C17 UNL     1      22.638  -1.275  55.028  1.00  0.00     0.201 C 
ENDBRANCH  25  26
ENDBRANCH   8  25
BRANCH   7  28
HETATM   28  O2  UNL     1      27.067  -0.981  52.942  1.00  0.00    -0.355 OA
HETATM   29  C14 UNL     1      28.415  -0.874  53.348  1.00  0.00     0.210 C 
ENDBRANCH   7  28
TORSDOF 10
ENDMDL
MODEL 9
REMARK VINA RESULT:      -6.3      3.726      7.813
REMARK  10 active torsions:
REMARK  status: ('A' for Active; 'I' for Inactive)
REMARK    1  A    between atoms: C2_2  and  C3_3 
REMARK    2  A    between atoms: C3_3  and  C4_4 
REMARK    3  A    between atoms: C4_4  and  N1_5 
REMARK    4  A    between atoms: N1_5  and  C5_6 
REMARK    5  A    between atoms: C5_6  and  N2_7 
REMARK    6  A    between atoms: C8_10  and  O1_11 
REMARK    7  A    between atoms: O1_11  and  C9_12 
REMARK    8  A    between atoms: C13_18  and  O2_19 
REMARK    9  A    between atoms: C15_21  and  C16_22 
REMARK   10  A    between atoms: C16_22  and  O3_23 
ROOT
HETATM    1  C9  UNL     1      20.719   0.757  53.534  1.00  0.00     0.183 A 
HETATM    2  N3  UNL     1      20.226  -0.373  54.076  1.00  0.00    -0.217 NA
HETATM    3  C10 UNL     1      21.085  -1.424  54.233  1.00  0.00     0.236 A 
HETATM    4  N4  UNL     1      22.382  -1.365  53.870  1.00  0.00    -0.241 NA
HETATM    5  C11 UNL     1      22.906  -0.260  53.328  1.00  0.00     0.075 A 
HETATM    6  C12 UNL     1      24.235  -0.280  52.985  1.00  0.00     0.070 A 
HETATM    7  C13 UNL     1      24.736   0.899  52.424  1.00  0.00     0.079 A 
HETATM    8  C15 UNL     1      23.945   2.036  52.216  1.00  0.00    -0.000 A 
HETATM    9  C18 UNL     1      22.623   1.947  52.597  1.00  0.00     0.030 A 
HETATM   10  C19 UNL     1      22.049   0.807  53.165  1.00  0.00     0.047 A 
ENDROOT
BRANCH   1  11
HETATM   11  O1  UNL     1      20.012   1.915  53.298  1.00  0.00    -0.296 OA
BRANCH  11  12
HETATM   12  C8  UNL     1      19.442   2.145  52.053  1.00  0.00     0.055 C 
HETATM   13  C7  UNL     1      18.844   1.154  51.365  1.00  0.00     0.036 C 
HETATM   14  C6  UNL     1      18.221   1.363  50.027  1.00  0.00     0.304 C 
HETATM   15  N2  UNL     1      17.667   2.664  49.835  1.00  0.00     0.120 N 
HETATM   16  C21 UNL     1      17.915   3.584  50.930  1.00  0.00     0.281 C 
HETATM   17  C20 UNL     1      19.387   3.448  51.295  1.00  0.00     0.095 C 
BRANCH  15  18
HETATM   18  C5  UNL     1      18.052   3.342  48.636  1.00  0.00     0.540 C 
BRANCH  18  19
HETATM   19  N1  UNL     1      19.001   2.674  47.819  1.00  0.00     0.111 N 
HETATM   20  H10 UNL     1      19.341   1.817  48.297  1.00  0.00     0.318 HD
BRANCH  19  21
HETATM   21  C4  UNL     1      20.125   3.444  47.409  1.00  0.00     0.272 C 
BRANCH  21  22
HETATM   22  C3  UNL     1      21.437   2.711  47.374  1.00  0.00     0.030 C 
BRANCH  22  23
HETATM   23  C2  UNL     1      21.813   2.474  48.826  1.00  0.00    -0.003 C 
HETATM   24  C1  UNL     1      21.767   1.015  49.167  1.00  0.00     0.005 C 
ENDBRANCH  22  23
ENDBRANCH  21  22
ENDBRANCH  19  21
ENDBRANCH  18  19
ENDBRANCH  15  18
ENDBRANCH  11  12
ENDBRANCH   1  11
BRANCH   8  25
HETATM   25  C16 UNL     1      24.528   3.255  51.617  1.00  0.00     0.208 C 
BRANCH  25  26
HETATM   26  O3  UNL     1      23.882   4.370  52.149  1.00  0.00    -0.391 OA
HETATM   27  C17 UNL     1      23.577   5.263  51.134  1.00  0.00     0.201 C 
ENDBRANCH  25  26
ENDBRANCH   8  25
BRANCH   7  28
HETATM   28  O2  UNL     1      26.074   1.005  52.032  1.00  0.00    -0.355 OA
HETATM   29  C14 UNL     1      26.970  -0.019  52.414  1.00  0.00     0.210 C 
ENDBRANCH   7  28
TORSDOF 10
ENDMDL
