MODEL 1
REMARK VINA RESULT:      -8.8      0.000      0.000
REMARK  6 active torsions:
REMARK  status: ('A' for Active; 'I' for Inactive)
REMARK    1  A    between atoms: N1_2  and  C2_3 
REMARK    2  A    between atoms: C3_4  and  C4_5 
REMARK    3  A    between atoms: C7_8  and  O1_9 
REMARK    4  A    between atoms: C12_17  and  C13_18 
REMARK    5  A    between atoms: C13_18  and  C14_19 
REMARK    6  A    between atoms: C14_19  and  C15_20 
ROOT
HETATM    1  C2  UNL     1      23.027  -0.086  52.916  1.00  0.00     0.037 C 
HETATM    2  C3  UNL     1      24.115   0.539  52.489  1.00  0.00     0.062 C 
HETATM    3  N2  UNL     1      24.383   1.543  51.467  1.00  0.00    -0.370 N 
HETATM    4  C10 UNL     1      23.371   2.607  51.334  1.00  0.00     0.272 C 
HETATM    5  N3  UNL     1      22.161   1.870  51.159  1.00  0.00    -0.263 NA
HETATM    6  C11 UNL     1      21.942   1.259  50.023  1.00  0.00     0.228 C 
HETATM    7  N4  UNL     1      20.772   0.924  50.773  1.00  0.00    -0.251 NA
HETATM    8  C12 UNL     1      20.791   0.271  51.903  1.00  0.00     0.019 C 
HETATM    9  C22 UNL     1      21.619  -0.414  52.960  1.00  0.00     0.113 C 
HETATM   10  H10 UNL     1      25.215   1.569  50.829  1.00  0.00     0.161 HD
ENDROOT
BRANCH   8  11
HETATM   11  C13 UNL     1      19.347   0.169  52.273  1.00  0.00     0.059 C 
BRANCH  11  12
HETATM   12  C14 UNL     1      19.036  -0.764  53.386  1.00  0.00     0.044 C 
BRANCH  12  13
HETATM   13  C15 UNL     1      17.774  -1.503  53.031  1.00  0.00    -0.057 A 
HETATM   14  C16 UNL     1      16.729  -1.017  52.281  1.00  0.00     0.007 A 
HETATM   15  C17 UNL     1      15.669  -1.871  52.079  1.00  0.00     0.001 A 
HETATM   16  C18 UNL     1      15.581  -3.173  52.574  1.00  0.00     0.007 A 
HETATM   17  C19 UNL     1      16.653  -3.626  53.322  1.00  0.00    -0.061 A 
HETATM   18  C20 UNL     1      16.574  -5.000  53.856  1.00  0.00     0.048 C 
HETATM   19  C21 UNL     1      17.723  -2.791  53.537  1.00  0.00     0.013 A 
ENDBRANCH  12  13
ENDBRANCH  11  12
ENDBRANCH   8  11
BRANCH   1  20
HETATM   20  N1  UNL     1      23.453  -0.995  53.984  1.00  0.00    -0.395 N 
HETATM   21  C1  UNL     1      22.872  -1.340  55.281  1.00  0.00     0.146 C 
HETATM   22  H4  UNL     1      24.377  -1.534  53.901  1.00  0.00     0.159 HD
ENDBRANCH   1  20
BRANCH   2  23
HETATM   23  C4  UNL     1      25.458   0.325  52.996  1.00  0.00    -0.008 A 
HETATM   24  C5  UNL     1      26.358  -0.601  52.566  1.00  0.00     0.016 A 
HETATM   25  C6  UNL     1      27.636  -0.936  52.925  1.00  0.00     0.037 A 
HETATM   26  C7  UNL     1      28.117  -0.131  53.975  1.00  0.00     0.065 A 
HETATM   27  C8  UNL     1      27.323   0.857  54.522  1.00  0.00     0.037 A 
HETATM   28  C9  UNL     1      26.049   1.072  54.051  1.00  0.00     0.016 A 
BRANCH  26  29
HETATM   29  O1  UNL     1      29.412  -0.427  54.378  1.00  0.00    -0.361 OA
HETATM   30  H7  UNL     1      29.986  -1.126  53.908  1.00  0.00     0.217 HD
ENDBRANCH  26  29
ENDBRANCH   2  23
TORSDOF 6
ENDMDL
MODEL 2
REMARK VINA RESULT:      -8.3      0.777      1.734
REMARK  6 active torsions:
REMARK  status: ('A' for Active; 'I' for Inactive)
REMARK    1  A    between atoms: N1_2  and  C2_3 
REMARK    2  A    between atoms: C3_4  and  C4_5 
REMARK    3  A    between atoms: C7_8  and  O1_9 
REMARK    4  A    between atoms: C12_17  and  C13_18 
REMARK    5  A    between atoms: C13_18  and  C14_19 
REMARK    6  A    between atoms: C14_19  and  C15_20 
ROOT
HETATM    1  C2  UNL     1      22.748   0.268  52.712  1.00  0.00     0.037 C 
HETATM    2  C3  UNL     1      23.733   0.956  52.154  1.00  0.00     0.062 C 
HETATM    3  N2  UNL     1      23.840   1.832  50.994  1.00  0.00    -0.370 N 
HETATM    4  C10 UNL     1      22.695   2.734  50.766  1.00  0.00     0.272 C 
HETATM    5  N3  UNL     1      21.586   1.836  50.750  1.00  0.00    -0.263 NA
HETATM    6  C11 UNL     1      21.414   1.049  49.718  1.00  0.00     0.228 C 
HETATM    7  N4  UNL     1      20.320   0.680  50.560  1.00  0.00    -0.251 NA
HETATM    8  C12 UNL     1      20.456   0.199  51.766  1.00  0.00     0.019 C 
HETATM    9  C22 UNL     1      21.396  -0.223  52.865  1.00  0.00     0.113 C 
HETATM   10  H10 UNL     1      24.642   1.872  50.320  1.00  0.00     0.161 HD
ENDROOT
BRANCH   8  11
HETATM   11  C13 UNL     1      19.048  -0.028  52.214  1.00  0.00     0.059 C 
BRANCH  11  12
HETATM   12  C14 UNL     1      18.893  -0.828  53.454  1.00  0.00     0.044 C 
BRANCH  12  13
HETATM   13  C15 UNL     1      17.785  -1.821  53.229  1.00  0.00    -0.057 A 
HETATM   14  C16 UNL     1      17.748  -3.117  53.686  1.00  0.00     0.007 A 
HETATM   15  C17 UNL     1      16.631  -3.851  53.361  1.00  0.00     0.001 A 
HETATM   16  C18 UNL     1      15.551  -3.381  52.611  1.00  0.00     0.007 A 
HETATM   17  C19 UNL     1      15.625  -2.072  52.171  1.00  0.00    -0.061 A 
HETATM   18  C20 UNL     1      14.493  -1.560  51.373  1.00  0.00     0.048 C 
HETATM   19  C21 UNL     1      16.732  -1.319  52.483  1.00  0.00     0.013 A 
ENDBRANCH  12  13
ENDBRANCH  11  12
ENDBRANCH   8  11
BRANCH   1  20
HETATM   20  N1  UNL     1      23.319  -0.424  53.871  1.00  0.00    -0.395 N 
HETATM   21  C1  UNL     1      22.724  -1.241  54.928  1.00  0.00     0.146 C 
HETATM   22  H4  UNL     1      24.367  -0.346  54.088  1.00  0.00     0.159 HD
ENDBRANCH   1  20
BRANCH   2  23
HETATM   23  C4  UNL     1      25.107   0.982  52.621  1.00  0.00    -0.008 A 
HETATM   24  C5  UNL     1      25.699   1.951  53.371  1.00  0.00     0.016 A 
HETATM   25  C6  UNL     1      26.955   2.134  53.884  1.00  0.00     0.037 A 
HETATM   26  C7  UNL     1      27.819   1.072  53.556  1.00  0.00     0.065 A 
HETATM   27  C8  UNL     1      27.368   0.010  52.799  1.00  0.00     0.037 A 
HETATM   28  C9  UNL     1      26.068  -0.030  52.352  1.00  0.00     0.016 A 
BRANCH  26  29
HETATM   29  O1  UNL     1      29.108   1.206  54.054  1.00  0.00    -0.361 OA
HETATM   30  H7  UNL     1      29.723   0.406  54.207  1.00  0.00     0.217 HD
ENDBRANCH  26  29
ENDBRANCH   2  23
TORSDOF 6
ENDMDL
MODEL 3
REMARK VINA RESULT:      -8.3      4.421      9.432
REMARK  6 active torsions:
REMARK  status: ('A' for Active; 'I' for Inactive)
REMARK    1  A    between atoms: N1_2  and  C2_3 
REMARK    2  A    between atoms: C3_4  and  C4_5 
REMARK    3  A    between atoms: C7_8  and  O1_9 
REMARK    4  A    between atoms: C12_17  and  C13_18 
REMARK    5  A    between atoms: C13_18  and  C14_19 
REMARK    6  A    between atoms: C14_19  and  C15_20 
ROOT
HETATM    1  C2  UNL     1      24.016   1.708  51.395  1.00  0.00     0.037 C 
HETATM    2  C3  UNL     1      23.869   1.038  52.528  1.00  0.00     0.062 C 
HETATM    3  N2  UNL     1      24.738   0.734  53.658  1.00  0.00    -0.370 N 
HETATM    4  C10 UNL     1      25.638   1.822  54.083  1.00  0.00     0.272 C 
HETATM    5  N3  UNL     1      26.312   2.165  52.873  1.00  0.00    -0.263 NA
HETATM    6  C11 UNL     1      27.216   1.351  52.391  1.00  0.00     0.228 C 
HETATM    7  N4  UNL     1      27.212   2.402  51.422  1.00  0.00    -0.251 NA
HETATM    8  C12 UNL     1      26.166   2.746  50.722  1.00  0.00     0.019 C 
HETATM    9  C22 UNL     1      24.713   2.503  50.407  1.00  0.00     0.113 C 
HETATM   10  H10 UNL     1      24.780  -0.175  54.179  1.00  0.00     0.161 HD
ENDROOT
BRANCH   8  11
HETATM   11  C13 UNL     1      26.669   3.864  49.866  1.00  0.00     0.059 C 
BRANCH  11  12
HETATM   12  C14 UNL     1      25.637   4.815  49.383  1.00  0.00     0.044 C 
BRANCH  12  13
HETATM   13  C15 UNL     1      26.333   5.902  48.610  1.00  0.00    -0.057 A 
HETATM   14  C16 UNL     1      25.742   7.011  48.053  1.00  0.00     0.007 A 
HETATM   15  C17 UNL     1      26.574   7.880  47.386  1.00  0.00     0.001 A 
HETATM   16  C18 UNL     1      27.952   7.718  47.237  1.00  0.00     0.007 A 
HETATM   17  C19 UNL     1      28.510   6.590  47.814  1.00  0.00    -0.061 A 
HETATM   18  C20 UNL     1      29.967   6.402  47.663  1.00  0.00     0.048 C 
HETATM   19  C21 UNL     1      27.699   5.708  48.485  1.00  0.00     0.013 A 
ENDBRANCH  12  13
ENDBRANCH  11  12
ENDBRANCH   8  11
BRANCH   1  20
HETATM   20  N1  UNL     1      22.736   1.628  50.686  1.00  0.00    -0.395 N 
HETATM   21  C1  UNL     1      22.316   2.052  49.351  1.00  0.00     0.146 C 
HETATM   22  H4  UNL     1      21.870   1.223  51.173  1.00  0.00     0.159 HD
ENDBRANCH   1  20
BRANCH   2  23
HETATM   23  C4  UNL     1      22.659   0.354  52.946  1.00  0.00    -0.008 A 
HETATM   24  C5  UNL     1      21.382   0.814  52.850  1.00  0.00     0.016 A 
HETATM   25  C6  UNL     1      20.153   0.314  53.190  1.00  0.00     0.037 A 
HETATM   26  C7  UNL     1      20.246  -0.967  53.766  1.00  0.00     0.065 A 
HETATM   27  C8  UNL     1      21.475  -1.573  53.934  1.00  0.00     0.037 A 
HETATM   28  C9  UNL     1      22.629  -0.938  53.540  1.00  0.00     0.016 A 
BRANCH  26  29
HETATM   29  O1  UNL     1      19.027  -1.522  54.129  1.00  0.00    -0.361 OA
HETATM   30  H7  UNL     1      18.363  -1.039  54.734  1.00  0.00     0.217 HD
ENDBRANCH  26  29
ENDBRANCH   2  23
TORSDOF 6
ENDMDL
MODEL 4
REMARK VINA RESULT:      -8.2      4.112      6.518
REMARK  6 active torsions:
REMARK  status: ('A' for Active; 'I' for Inactive)
REMARK    1  A    between atoms: N1_2  and  C2_3 
REMARK    2  A    between atoms: C3_4  and  C4_5 
REMARK    3  A    between atoms: C7_8  and  O1_9 
REMARK    4  A    between atoms: C12_17  and  C13_18 
REMARK    5  A    between atoms: C13_18  and  C14_19 
REMARK    6  A    between atoms: C14_19  and  C15_20 
ROOT
HETATM    1  C2  UNL     1      24.980   3.916  50.291  1.00  0.00     0.037 C 
HETATM    2  C3  UNL     1      25.125   4.872  49.386  1.00  0.00     0.062 C 
HETATM    3  N2  UNL     1      24.215   5.587  48.498  1.00  0.00    -0.370 N 
HETATM    4  C10 UNL     1      22.902   5.932  49.072  1.00  0.00     0.272 C 
HETATM    5  N3  UNL     1      22.424   4.674  49.546  1.00  0.00    -0.263 NA
HETATM    6  C11 UNL     1      22.022   3.776  48.683  1.00  0.00     0.228 C 
HETATM    7  N4  UNL     1      21.834   3.099  49.928  1.00  0.00    -0.251 NA
HETATM    8  C12 UNL     1      22.796   2.846  50.774  1.00  0.00     0.019 C 
HETATM    9  C22 UNL     1      24.264   2.952  51.096  1.00  0.00     0.113 C 
HETATM   10  H10 UNL     1      24.410   5.867  47.507  1.00  0.00     0.161 HD
ENDROOT
BRANCH   8  11
HETATM   11  C13 UNL     1      22.102   2.132  51.889  1.00  0.00     0.059 C 
BRANCH  11  12
HETATM   12  C14 UNL     1      21.891   0.677  51.684  1.00  0.00     0.044 C 
BRANCH  12  13
HETATM   13  C15 UNL     1      22.331  -0.036  52.934  1.00  0.00    -0.057 A 
HETATM   14  C16 UNL     1      21.518  -0.704  53.819  1.00  0.00     0.007 A 
HETATM   15  C17 UNL     1      22.136  -1.287  54.901  1.00  0.00     0.001 A 
HETATM   16  C18 UNL     1      23.507  -1.247  55.160  1.00  0.00     0.007 A 
HETATM   17  C19 UNL     1      24.292  -0.566  54.246  1.00  0.00    -0.061 A 
HETATM   18  C20 UNL     1      25.744  -0.512  54.507  1.00  0.00     0.048 C 
HETATM   19  C21 UNL     1      23.697   0.024  53.157  1.00  0.00     0.013 A 
ENDBRANCH  12  13
ENDBRANCH  11  12
ENDBRANCH   8  11
BRANCH   1  20
HETATM   20  N1  UNL     1      26.315   3.638  50.829  1.00  0.00    -0.395 N 
HETATM   21  C1  UNL     1      26.849   2.539  51.632  1.00  0.00     0.146 C 
HETATM   22  H4  UNL     1      27.116   4.338  50.684  1.00  0.00     0.159 HD
ENDBRANCH   1  20
BRANCH   2  23
HETATM   23  C4  UNL     1      26.384   5.490  49.012  1.00  0.00    -0.008 A 
HETATM   24  C5  UNL     1      26.656   6.822  48.946  1.00  0.00     0.016 A 
HETATM   25  C6  UNL     1      27.760   7.561  48.617  1.00  0.00     0.037 A 
HETATM   26  C7  UNL     1      28.856   6.747  48.272  1.00  0.00     0.065 A 
HETATM   27  C8  UNL     1      28.741   5.371  48.289  1.00  0.00     0.037 A 
HETATM   28  C9  UNL     1      27.555   4.772  48.644  1.00  0.00     0.016 A 
BRANCH  26  29
HETATM   29  O1  UNL     1      30.005   7.447  47.930  1.00  0.00    -0.361 OA
HETATM   30  H7  UNL     1      30.884   6.981  47.705  1.00  0.00     0.217 HD
ENDBRANCH  26  29
ENDBRANCH   2  23
TORSDOF 6
ENDMDL
MODEL 5
REMARK VINA RESULT:      -8.2      1.344      2.066
REMARK  6 active torsions:
REMARK  status: ('A' for Active; 'I' for Inactive)
REMARK    1  A    between atoms: N1_2  and  C2_3 
REMARK    2  A    between atoms: C3_4  and  C4_5 
REMARK    3  A    between atoms: C7_8  and  O1_9 
REMARK    4  A    between atoms: C12_17  and  C13_18 
REMARK    5  A    between atoms: C13_18  and  C14_19 
REMARK    6  A    between atoms: C14_19  and  C15_20 
ROOT
HETATM    1  C2  UNL     1      24.152   0.193  53.227  1.00  0.00     0.037 C 
HETATM    2  C3  UNL     1      25.285   0.631  52.698  1.00  0.00     0.062 C 
HETATM    3  N2  UNL     1      25.626   1.627  51.689  1.00  0.00    -0.370 N 
HETATM    4  C10 UNL     1      24.825   2.865  51.717  1.00  0.00     0.272 C 
HETATM    5  N3  UNL     1      23.485   2.375  51.659  1.00  0.00    -0.263 NA
HETATM    6  C11 UNL     1      23.032   1.882  50.534  1.00  0.00     0.228 C 
HETATM    7  N4  UNL     1      21.909   1.725  51.404  1.00  0.00    -0.251 NA
HETATM    8  C12 UNL     1      21.927   1.014  52.499  1.00  0.00     0.019 C 
HETATM    9  C22 UNL     1      22.720   0.128  53.424  1.00  0.00     0.113 C 
HETATM   10  H10 UNL     1      26.373   1.538  50.960  1.00  0.00     0.161 HD
ENDROOT
BRANCH   8  11
HETATM   11  C13 UNL     1      20.538   1.158  53.033  1.00  0.00     0.059 C 
BRANCH  11  12
HETATM   12  C14 UNL     1      19.801  -0.112  53.250  1.00  0.00     0.044 C 
BRANCH  12  13
HETATM   13  C15 UNL     1      18.696  -0.187  52.232  1.00  0.00    -0.057 A 
HETATM   14  C16 UNL     1      18.686   0.415  50.997  1.00  0.00     0.007 A 
HETATM   15  C17 UNL     1      17.565   0.213  50.224  1.00  0.00     0.001 A 
HETATM   16  C18 UNL     1      16.458  -0.548  50.600  1.00  0.00     0.007 A 
HETATM   17  C19 UNL     1      16.506  -1.139  51.850  1.00  0.00    -0.061 A 
HETATM   18  C20 UNL     1      15.340  -1.944  52.265  1.00  0.00     0.048 C 
HETATM   19  C21 UNL     1      17.615  -0.950  52.640  1.00  0.00     0.013 A 
ENDBRANCH  12  13
ENDBRANCH  11  12
ENDBRANCH   8  11
BRANCH   1  20
HETATM   20  N1  UNL     1      24.511  -0.840  54.202  1.00  0.00    -0.395 N 
HETATM   21  C1  UNL     1      23.893  -1.279  55.452  1.00  0.00     0.146 C 
HETATM   22  H4  UNL     1      25.406  -1.419  54.075  1.00  0.00     0.159 HD
ENDBRANCH   1  20
BRANCH   2  23
HETATM   23  C4  UNL     1      26.610   0.144  53.034  1.00  0.00    -0.008 A 
HETATM   24  C5  UNL     1      27.559   0.789  53.766  1.00  0.00     0.016 A 
HETATM   25  C6  UNL     1      28.833   0.486  54.166  1.00  0.00     0.037 A 
HETATM   26  C7  UNL     1      29.240  -0.784  53.712  1.00  0.00     0.065 A 
HETATM   27  C8  UNL     1      28.389  -1.564  52.955  1.00  0.00     0.037 A 
HETATM   28  C9  UNL     1      27.130  -1.117  52.632  1.00  0.00     0.016 A 
BRANCH  26  29
HETATM   29  O1  UNL     1      30.526  -1.142  54.091  1.00  0.00    -0.361 OA
HETATM   30  H7  UNL     1      31.237  -1.428  53.418  1.00  0.00     0.217 HD
ENDBRANCH  26  29
ENDBRANCH   2  23
TORSDOF 6
ENDMDL
MODEL 6
REMARK VINA RESULT:      -8.1      3.057      5.308
REMARK  6 active torsions:
REMARK  status: ('A' for Active; 'I' for Inactive)
REMARK    1  A    between atoms: N1_2  and  C2_3 
REMARK    2  A    between atoms: C3_4  and  C4_5 
REMARK    3  A    between atoms: C7_8  and  O1_9 
REMARK    4  A    between atoms: C12_17  and  C13_18 
REMARK    5  A    between atoms: C13_18  and  C14_19 
REMARK    6  A    between atoms: C14_19  and  C15_20 
ROOT
HETATM    1  C2  UNL     1      23.571   1.242  52.766  1.00  0.00     0.037 C 
HETATM    2  C3  UNL     1      24.103   0.234  53.441  1.00  0.00     0.062 C 
HETATM    3  N2  UNL     1      23.563  -0.865  54.233  1.00  0.00    -0.370 N 
HETATM    4  C10 UNL     1      22.333  -1.487  53.709  1.00  0.00     0.272 C 
HETATM    5  N3  UNL     1      21.460  -0.370  53.544  1.00  0.00    -0.263 NA
HETATM    6  C11 UNL     1      20.945   0.200  54.604  1.00  0.00     0.228 C 
HETATM    7  N4  UNL     1      20.404   0.993  53.544  1.00  0.00    -0.251 NA
HETATM    8  C12 UNL     1      21.128   1.667  52.694  1.00  0.00     0.019 C 
HETATM    9  C22 UNL     1      22.507   2.068  52.238  1.00  0.00     0.113 C 
HETATM   10  H10 UNL     1      23.964  -1.239  55.126  1.00  0.00     0.161 HD
ENDROOT
BRANCH   8  11
HETATM   11  C13 UNL     1      20.114   2.319  51.809  1.00  0.00     0.059 C 
BRANCH  11  12
HETATM   12  C14 UNL     1      19.741   1.555  50.593  1.00  0.00     0.044 C 
BRANCH  12  13
HETATM   13  C15 UNL     1      20.666   1.972  49.482  1.00  0.00    -0.057 A 
HETATM   14  C16 UNL     1      21.503   1.148  48.767  1.00  0.00     0.007 A 
HETATM   15  C17 UNL     1      22.265   1.746  47.790  1.00  0.00     0.001 A 
HETATM   16  C18 UNL     1      22.250   3.107  47.480  1.00  0.00     0.007 A 
HETATM   17  C19 UNL     1      21.395   3.902  48.221  1.00  0.00    -0.061 A 
HETATM   18  C20 UNL     1      21.369   5.345  47.907  1.00  0.00     0.048 C 
HETATM   19  C21 UNL     1      20.623   3.328  49.202  1.00  0.00     0.013 A 
ENDBRANCH  12  13
ENDBRANCH  11  12
ENDBRANCH   8  11
BRANCH   1  20
HETATM   20  N1  UNL     1      24.685   2.001  52.190  1.00  0.00    -0.395 N 
HETATM   21  C1  UNL     1      24.826   2.768  50.953  1.00  0.00     0.146 C 
HETATM   22  H4  UNL     1      25.636   2.030  52.687  1.00  0.00     0.159 HD
ENDBRANCH   1  20
BRANCH   2  23
HETATM   23  C4  UNL     1      25.524  -0.028  53.576  1.00  0.00    -0.008 A 
HETATM   24  C5  UNL     1      26.292  -0.815  52.774  1.00  0.00     0.016 A 
HETATM   25  C6  UNL     1      27.615  -1.167  52.758  1.00  0.00     0.037 A 
HETATM   26  C7  UNL     1      28.331  -0.574  53.815  1.00  0.00     0.065 A 
HETATM   27  C8  UNL     1      27.693   0.253  54.718  1.00  0.00     0.037 A 
HETATM   28  C9  UNL     1      26.348   0.512  54.601  1.00  0.00     0.016 A 
BRANCH  26  29
HETATM   29  O1  UNL     1      29.681  -0.898  53.845  1.00  0.00    -0.361 OA
HETATM   30  H7  UNL     1      30.415  -0.191  53.811  1.00  0.00     0.217 HD
ENDBRANCH  26  29
ENDBRANCH   2  23
TORSDOF 6
ENDMDL
MODEL 7
REMARK VINA RESULT:      -8.0      0.980      1.811
REMARK  6 active torsions:
REMARK  status: ('A' for Active; 'I' for Inactive)
REMARK    1  A    between atoms: N1_2  and  C2_3 
REMARK    2  A    between atoms: C3_4  and  C4_5 
REMARK    3  A    between atoms: C7_8  and  O1_9 
REMARK    4  A    between atoms: C12_17  and  C13_18 
REMARK    5  A    between atoms: C13_18  and  C14_19 
REMARK    6  A    between atoms: C14_19  and  C15_20 
ROOT
HETATM    1  C2  UNL     1      23.343   0.204  52.827  1.00  0.00     0.037 C 
HETATM    2  C3  UNL     1      24.481   0.769  52.454  1.00  0.00     0.062 C 
HETATM    3  N2  UNL     1      24.842   1.810  51.499  1.00  0.00    -0.370 N 
HETATM    4  C10 UNL     1      23.915   2.954  51.419  1.00  0.00     0.272 C 
HETATM    5  N3  UNL     1      22.656   2.323  51.184  1.00  0.00    -0.263 NA
HETATM    6  C11 UNL     1      22.412   1.800  50.009  1.00  0.00     0.228 C 
HETATM    7  N4  UNL     1      21.207   1.510  50.723  1.00  0.00    -0.251 NA
HETATM    8  C12 UNL     1      21.158   0.790  51.810  1.00  0.00     0.019 C 
HETATM    9  C22 UNL     1      21.914  -0.018  52.833  1.00  0.00     0.113 C 
HETATM   10  H10 UNL     1      25.684   1.812  50.874  1.00  0.00     0.161 HD
ENDROOT
BRANCH   8  11
HETATM   11  C13 UNL     1      19.703   0.776  52.155  1.00  0.00     0.059 C 
BRANCH  11  12
HETATM   12  C14 UNL     1      19.249  -0.385  52.961  1.00  0.00     0.044 C 
BRANCH  12  13
HETATM   13  C15 UNL     1      17.924  -0.840  52.411  1.00  0.00    -0.057 A 
HETATM   14  C16 UNL     1      17.057  -1.726  53.005  1.00  0.00     0.007 A 
HETATM   15  C17 UNL     1      15.895  -2.000  52.322  1.00  0.00     0.001 A 
HETATM   16  C18 UNL     1      15.541  -1.453  51.088  1.00  0.00     0.007 A 
HETATM   17  C19 UNL     1      16.439  -0.564  50.523  1.00  0.00    -0.061 A 
HETATM   18  C20 UNL     1      16.081   0.022  49.216  1.00  0.00     0.048 C 
HETATM   19  C21 UNL     1      17.606  -0.275  51.188  1.00  0.00     0.013 A 
ENDBRANCH  12  13
ENDBRANCH  11  12
ENDBRANCH   8  11
BRANCH   1  20
HETATM   20  N1  UNL     1      23.681  -0.798  53.842  1.00  0.00    -0.395 N 
HETATM   21  C1  UNL     1      23.049  -1.181  55.104  1.00  0.00     0.146 C 
HETATM   22  H4  UNL     1      24.567  -1.395  53.741  1.00  0.00     0.159 HD
ENDBRANCH   1  20
BRANCH   2  23
HETATM   23  C4  UNL     1      25.796   0.423  52.963  1.00  0.00    -0.008 A 
HETATM   24  C5  UNL     1      26.605  -0.580  52.527  1.00  0.00     0.016 A 
HETATM   25  C6  UNL     1      27.845  -1.038  52.887  1.00  0.00     0.037 A 
HETATM   26  C7  UNL     1      28.395  -0.292  53.947  1.00  0.00     0.065 A 
HETATM   27  C8  UNL     1      27.696   0.761  54.501  1.00  0.00     0.037 A 
HETATM   28  C9  UNL     1      26.450   1.101  54.028  1.00  0.00     0.016 A 
BRANCH  26  29
HETATM   29  O1  UNL     1      29.654  -0.714  54.352  1.00  0.00    -0.361 OA
HETATM   30  H7  UNL     1      29.921  -1.698  54.375  1.00  0.00     0.217 HD
ENDBRANCH  26  29
ENDBRANCH   2  23
TORSDOF 6
ENDMDL
MODEL 8
REMARK VINA RESULT:      -8.0      3.638      5.426
REMARK  6 active torsions:
REMARK  status: ('A' for Active; 'I' for Inactive)
REMARK    1  A    between atoms: N1_2  and  C2_3 
REMARK    2  A    between atoms: C3_4  and  C4_5 
REMARK    3  A    between atoms: C7_8  and  O1_9 
REMARK    4  A    between atoms: C12_17  and  C13_18 
REMARK    5  A    between atoms: C13_18  and  C14_19 
REMARK    6  A    between atoms: C14_19  and  C15_20 
ROOT
HETATM    1  C2  UNL     1      24.170   3.224  49.977  1.00  0.00     0.037 C 
HETATM    2  C3  UNL     1      25.391   3.610  50.316  1.00  0.00     0.062 C 
HETATM    3  N2  UNL     1      26.332   3.227  51.361  1.00  0.00    -0.370 N 
HETATM    4  C10 UNL     1      26.391   1.786  51.672  1.00  0.00     0.272 C 
HETATM    5  N3  UNL     1      25.025   1.465  51.936  1.00  0.00    -0.263 NA
HETATM    6  C11 UNL     1      24.475   1.876  53.050  1.00  0.00     0.228 C 
HETATM    7  N4  UNL     1      23.392   1.190  52.417  1.00  0.00    -0.251 NA
HETATM    8  C12 UNL     1      22.899   1.519  51.255  1.00  0.00     0.019 C 
HETATM    9  C22 UNL     1      22.951   2.451  50.072  1.00  0.00     0.113 C 
HETATM   10  H10 UNL     1      26.954   3.874  51.902  1.00  0.00     0.161 HD
ENDROOT
BRANCH   8  11
HETATM   11  C13 UNL     1      21.805   0.523  51.043  1.00  0.00     0.059 C 
BRANCH  11  12
HETATM   12  C14 UNL     1      20.471   1.095  50.732  1.00  0.00     0.044 C 
BRANCH  12  13
HETATM   13  C15 UNL     1      19.438   0.296  51.481  1.00  0.00    -0.057 A 
HETATM   14  C16 UNL     1      19.591  -0.270  52.724  1.00  0.00     0.007 A 
HETATM   15  C17 UNL     1      18.511  -0.962  53.221  1.00  0.00     0.001 A 
HETATM   16  C18 UNL     1      17.292  -1.127  52.562  1.00  0.00     0.007 A 
HETATM   17  C19 UNL     1      17.176  -0.541  51.314  1.00  0.00    -0.061 A 
HETATM   18  C20 UNL     1      15.893  -0.709  50.603  1.00  0.00     0.048 C 
HETATM   19  C21 UNL     1      18.242   0.154  50.797  1.00  0.00     0.013 A 
ENDBRANCH  12  13
ENDBRANCH  11  12
ENDBRANCH   8  11
BRANCH   1  20
HETATM   20  N1  UNL     1      23.779   4.027  48.815  1.00  0.00    -0.395 N 
HETATM   21  C1  UNL     1      22.500   4.590  48.385  1.00  0.00     0.146 C 
HETATM   22  H4  UNL     1      24.500   4.274  48.059  1.00  0.00     0.159 HD
ENDBRANCH   1  20
BRANCH   2  23
HETATM   23  C4  UNL     1      26.158   4.647  49.650  1.00  0.00    -0.008 A 
HETATM   24  C5  UNL     1      27.316   4.490  48.953  1.00  0.00     0.016 A 
HETATM   25  C6  UNL     1      28.154   5.339  48.281  1.00  0.00     0.037 A 
HETATM   26  C7  UNL     1      27.703   6.672  48.327  1.00  0.00     0.065 A 
HETATM   27  C8  UNL     1      26.541   6.996  48.998  1.00  0.00     0.037 A 
HETATM   28  C9  UNL     1      25.803   6.024  49.631  1.00  0.00     0.016 A 
BRANCH  26  29
HETATM   29  O1  UNL     1      28.517   7.576  47.659  1.00  0.00    -0.361 OA
HETATM   30  H7  UNL     1      28.638   7.559  46.646  1.00  0.00     0.217 HD
ENDBRANCH  26  29
ENDBRANCH   2  23
TORSDOF 6
ENDMDL
MODEL 9
REMARK VINA RESULT:      -7.9      1.596      3.016
REMARK  6 active torsions:
REMARK  status: ('A' for Active; 'I' for Inactive)
REMARK    1  A    between atoms: N1_2  and  C2_3 
REMARK    2  A    between atoms: C3_4  and  C4_5 
REMARK    3  A    between atoms: C7_8  and  O1_9 
REMARK    4  A    between atoms: C12_17  and  C13_18 
REMARK    5  A    between atoms: C13_18  and  C14_19 
REMARK    6  A    between atoms: C14_19  and  C15_20 
ROOT
HETATM    1  C2  UNL     1      23.576   0.953  52.608  1.00  0.00     0.037 C 
HETATM    2  C3  UNL     1      24.132   0.091  53.446  1.00  0.00     0.062 C 
HETATM    3  N2  UNL     1      23.621  -0.845  54.439  1.00  0.00    -0.370 N 
HETATM    4  C10 UNL     1      22.387  -1.562  54.068  1.00  0.00     0.272 C 
HETATM    5  N3  UNL     1      21.499  -0.501  53.719  1.00  0.00    -0.263 NA
HETATM    6  C11 UNL     1      21.001   0.253  54.666  1.00  0.00     0.228 C 
HETATM    7  N4  UNL     1      20.429   0.832  53.491  1.00  0.00    -0.251 NA
HETATM    8  C12 UNL     1      21.128   1.341  52.513  1.00  0.00     0.019 C 
HETATM    9  C22 UNL     1      22.492   1.660  51.960  1.00  0.00     0.113 C 
HETATM   10  H10 UNL     1      24.045  -1.045  55.377  1.00  0.00     0.161 HD
ENDROOT
BRANCH   8  11
HETATM   11  C13 UNL     1      20.088   1.811  51.547  1.00  0.00     0.059 C 
BRANCH  11  12
HETATM   12  C14 UNL     1      19.786   0.880  50.431  1.00  0.00     0.044 C 
BRANCH  12  13
HETATM   13  C15 UNL     1      18.308   0.596  50.452  1.00  0.00    -0.057 A 
HETATM   14  C16 UNL     1      17.352   1.199  49.671  1.00  0.00     0.007 A 
HETATM   15  C17 UNL     1      16.054   0.783  49.858  1.00  0.00     0.001 A 
HETATM   16  C18 UNL     1      15.647  -0.192  50.770  1.00  0.00     0.007 A 
HETATM   17  C19 UNL     1      16.639  -0.777  51.537  1.00  0.00    -0.061 A 
HETATM   18  C20 UNL     1      16.225  -1.808  52.509  1.00  0.00     0.048 C 
HETATM   19  C21 UNL     1      17.942  -0.377  51.368  1.00  0.00     0.013 A 
ENDBRANCH  12  13
ENDBRANCH  11  12
ENDBRANCH   8  11
BRANCH   1  20
HETATM   20  N1  UNL     1      24.669   1.599  51.876  1.00  0.00    -0.395 N 
HETATM   21  C1  UNL     1      24.872   2.968  51.405  1.00  0.00     0.146 C 
HETATM   22  H4  UNL     1      25.517   1.027  51.552  1.00  0.00     0.159 HD
ENDBRANCH   1  20
BRANCH   2  23
HETATM   23  C4  UNL     1      25.559  -0.132  53.594  1.00  0.00    -0.008 A 
HETATM   24  C5  UNL     1      26.338  -0.972  52.859  1.00  0.00     0.016 A 
HETATM   25  C6  UNL     1      27.667  -1.300  52.867  1.00  0.00     0.037 A 
HETATM   26  C7  UNL     1      28.377  -0.604  53.863  1.00  0.00     0.065 A 
HETATM   27  C8  UNL     1      27.727   0.287  54.694  1.00  0.00     0.037 A 
HETATM   28  C9  UNL     1      26.377   0.511  54.563  1.00  0.00     0.016 A 
BRANCH  26  29
HETATM   29  O1  UNL     1      29.732  -0.899  53.914  1.00  0.00    -0.361 OA
HETATM   30  H7  UNL     1      30.402  -0.519  53.245  1.00  0.00     0.217 HD
ENDBRANCH  26  29
ENDBRANCH   2  23
TORSDOF 6
ENDMDL
