MODEL 1
REMARK VINA RESULT:      -7.6      0.000      0.000
REMARK  9 active torsions:
REMARK  status: ('A' for Active; 'I' for Inactive)
REMARK    1  A    between atoms: C2_2  and  N1_3 
REMARK    2  A    between atoms: C2_2  and  N2_9 
REMARK    3  A    between atoms: N1_3  and  C3_4 
REMARK    4  A    between atoms: N2_9  and  C8_10 
REMARK    5  A    between atoms: N2_9  and  C15_18 
REMARK    6  A    between atoms: C8_10  and  C9_11 
REMARK    7  A    between atoms: C12_14  and  O1_15 
REMARK    8  A    between atoms: C16_19  and  O2_20 
REMARK    9  A    between atoms: C20_25  and  O3_26 
ROOT
HETATM    1  N2  UNL     1      24.080   2.694  51.542  1.00  0.00    -0.328 N 
ENDROOT
BRANCH   1   2
HETATM    2  C2  UNL     1      25.089   2.280  52.481  1.00  0.00     0.081 C 
HETATM    3  C1  UNL     1      24.999   2.842  53.682  1.00  0.00     0.084 C 
BRANCH   2   4
HETATM    4  N1  UNL     1      26.093   1.337  52.113  1.00  0.00    -0.368 N 
HETATM    5  H3  UNL     1      26.311   1.647  51.142  1.00  0.00     0.161 HD
BRANCH   4   6
HETATM    6  C3  UNL     1      26.436   0.359  53.124  1.00  0.00     0.129 A 
HETATM    7  C4  UNL     1      26.277  -1.033  52.699  1.00  0.00     0.002 A 
HETATM    8  C5  UNL     1      27.436  -1.712  52.767  1.00  0.00    -0.002 A 
HETATM    9  C6  UNL     1      28.452  -0.764  53.259  1.00  0.00    -0.002 A 
HETATM   10  C7  UNL     1      27.888   0.419  53.464  1.00  0.00     0.002 A 
ENDBRANCH   4   6
ENDBRANCH   2   4
ENDBRANCH   1   2
BRANCH   1  11
HETATM   11  C8  UNL     1      23.006   1.877  51.008  1.00  0.00     0.169 C 
BRANCH  11  12
HETATM   12  C9  UNL     1      22.335   1.090  52.079  1.00  0.00    -0.040 A 
HETATM   13  C10 UNL     1      21.296   1.514  52.904  1.00  0.00     0.011 A 
HETATM   14  C11 UNL     1      20.787   0.653  53.852  1.00  0.00     0.037 A 
HETATM   15  C12 UNL     1      21.293  -0.643  54.002  1.00  0.00     0.065 A 
HETATM   16  C13 UNL     1      22.321  -1.094  53.201  1.00  0.00     0.037 A 
HETATM   17  C14 UNL     1      22.815  -0.200  52.253  1.00  0.00     0.011 A 
BRANCH  15  18
HETATM   18  O1  UNL     1      20.770  -1.487  54.954  1.00  0.00    -0.361 OA
HETATM   19  H13 UNL     1      21.195  -1.484  55.876  1.00  0.00     0.217 HD
ENDBRANCH  15  18
ENDBRANCH  11  12
ENDBRANCH   1  11
BRANCH   1  20
HETATM   20  C15 UNL     1      24.322   4.071  51.222  1.00  0.00     0.104 A 
HETATM   21  C16 UNL     1      23.668   5.194  51.723  1.00  0.00     0.095 A 
HETATM   22  C17 UNL     1      24.064   6.430  51.276  1.00  0.00     0.040 A 
HETATM   23  C18 UNL     1      25.068   6.596  50.368  1.00  0.00     0.025 A 
HETATM   24  C19 UNL     1      25.737   5.504  49.852  1.00  0.00     0.046 A 
HETATM   25 BR1  UNL     1      27.136   5.755  48.585  1.00  0.00    -0.048 Br
HETATM   26  C20 UNL     1      25.339   4.241  50.302  1.00  0.00     0.112 A 
BRANCH  21  27
HETATM   27  O2  UNL     1      22.668   4.907  52.636  1.00  0.00    -0.358 OA
HETATM   28  H16 UNL     1      21.964   5.598  52.807  1.00  0.00     0.217 HD
ENDBRANCH  21  27
BRANCH  26  29
HETATM   29  O3  UNL     1      26.060   3.196  49.737  1.00  0.00    -0.357 OA
HETATM   30  H19 UNL     1      26.977   3.405  49.392  1.00  0.00     0.217 HD
ENDBRANCH  26  29
ENDBRANCH   1  20
TORSDOF 9
ENDMDL
MODEL 2
REMARK VINA RESULT:      -7.4      2.290      4.411
REMARK  9 active torsions:
REMARK  status: ('A' for Active; 'I' for Inactive)
REMARK    1  A    between atoms: C2_2  and  N1_3 
REMARK    2  A    between atoms: C2_2  and  N2_9 
REMARK    3  A    between atoms: N1_3  and  C3_4 
REMARK    4  A    between atoms: N2_9  and  C8_10 
REMARK    5  A    between atoms: N2_9  and  C15_18 
REMARK    6  A    between atoms: C8_10  and  C9_11 
REMARK    7  A    between atoms: C12_14  and  O1_15 
REMARK    8  A    between atoms: C16_19  and  O2_20 
REMARK    9  A    between atoms: C20_25  and  O3_26 
ROOT
HETATM    1  N2  UNL     1      24.976   2.698  50.678  1.00  0.00    -0.328 N 
ENDROOT
BRANCH   1   2
HETATM    2  C2  UNL     1      24.107   2.453  51.799  1.00  0.00     0.081 C 
HETATM    3  C1  UNL     1      24.054   3.437  52.690  1.00  0.00     0.084 C 
BRANCH   2   4
HETATM    4  N1  UNL     1      23.376   1.234  51.909  1.00  0.00    -0.368 N 
HETATM    5  H3  UNL     1      23.413   0.889  50.928  1.00  0.00     0.161 HD
BRANCH   4   6
HETATM    6  C3  UNL     1      22.875   0.921  53.232  1.00  0.00     0.129 A 
HETATM    7  C4  UNL     1      21.421   0.769  53.310  1.00  0.00     0.002 A 
HETATM    8  C5  UNL     1      21.069  -0.455  53.741  1.00  0.00    -0.002 A 
HETATM    9  C6  UNL     1      22.321  -1.195  53.978  1.00  0.00    -0.002 A 
HETATM   10  C7  UNL     1      23.355  -0.416  53.690  1.00  0.00     0.002 A 
ENDBRANCH   4   6
ENDBRANCH   2   4
ENDBRANCH   1   2
BRANCH   1  11
HETATM   11  C8  UNL     1      26.328   2.199  50.504  1.00  0.00     0.169 C 
BRANCH  11  12
HETATM   12  C9  UNL     1      26.782   1.430  51.696  1.00  0.00    -0.040 A 
HETATM   13  C10 UNL     1      26.601   0.070  51.933  1.00  0.00     0.011 A 
HETATM   14  C11 UNL     1      27.089  -0.487  53.097  1.00  0.00     0.037 A 
HETATM   15  C12 UNL     1      27.764   0.288  54.046  1.00  0.00     0.065 A 
HETATM   16  C13 UNL     1      27.960   1.638  53.840  1.00  0.00     0.037 A 
HETATM   17  C14 UNL     1      27.456   2.171  52.656  1.00  0.00     0.011 A 
BRANCH  15  18
HETATM   18  O1  UNL     1      28.242  -0.287  55.199  1.00  0.00    -0.361 OA
HETATM   19  H13 UNL     1      27.799  -0.033  56.076  1.00  0.00     0.217 HD
ENDBRANCH  15  18
ENDBRANCH  11  12
ENDBRANCH   1  11
BRANCH   1  20
HETATM   20  C15 UNL     1      24.266   3.529  49.750  1.00  0.00     0.104 A 
HETATM   21  C16 UNL     1      23.141   3.202  48.996  1.00  0.00     0.095 A 
HETATM   22  C17 UNL     1      22.617   4.159  48.162  1.00  0.00     0.040 A 
HETATM   23  C18 UNL     1      23.153   5.409  48.050  1.00  0.00     0.025 A 
HETATM   24  C19 UNL     1      24.267   5.764  48.784  1.00  0.00     0.046 A 
HETATM   25 BR1  UNL     1      25.002   7.512  48.613  1.00  0.00    -0.048 Br
HETATM   26  C20 UNL     1      24.807   4.795  49.635  1.00  0.00     0.112 A 
BRANCH  21  27
HETATM   27  O2  UNL     1      22.684   1.910  49.190  1.00  0.00    -0.358 OA
HETATM   28  H16 UNL     1      22.759   1.258  48.433  1.00  0.00     0.217 HD
ENDBRANCH  21  27
BRANCH  26  29
HETATM   29  O3  UNL     1      25.924   5.230  50.337  1.00  0.00    -0.357 OA
HETATM   30  H19 UNL     1      26.193   6.188  50.224  1.00  0.00     0.217 HD
ENDBRANCH  26  29
ENDBRANCH   1  20
TORSDOF 9
ENDMDL
MODEL 3
REMARK VINA RESULT:      -7.3      2.559      4.488
REMARK  9 active torsions:
REMARK  status: ('A' for Active; 'I' for Inactive)
REMARK    1  A    between atoms: C2_2  and  N1_3 
REMARK    2  A    between atoms: C2_2  and  N2_9 
REMARK    3  A    between atoms: N1_3  and  C3_4 
REMARK    4  A    between atoms: N2_9  and  C8_10 
REMARK    5  A    between atoms: N2_9  and  C15_18 
REMARK    6  A    between atoms: C8_10  and  C9_11 
REMARK    7  A    between atoms: C12_14  and  O1_15 
REMARK    8  A    between atoms: C16_19  and  O2_20 
REMARK    9  A    between atoms: C20_25  and  O3_26 
ROOT
HETATM    1  N2  UNL     1      24.963   2.888  50.599  1.00  0.00    -0.328 N 
ENDROOT
BRANCH   1   2
HETATM    2  C2  UNL     1      24.044   2.661  51.683  1.00  0.00     0.081 C 
HETATM    3  C1  UNL     1      23.969   3.650  52.568  1.00  0.00     0.084 C 
BRANCH   2   4
HETATM    4  N1  UNL     1      23.290   1.455  51.766  1.00  0.00    -0.368 N 
HETATM    5  H3  UNL     1      23.276   1.159  50.768  1.00  0.00     0.161 HD
BRANCH   4   6
HETATM    6  C3  UNL     1      22.840   1.086  53.093  1.00  0.00     0.129 A 
HETATM    7  C4  UNL     1      21.397   0.868  53.205  1.00  0.00     0.002 A 
HETATM    8  C5  UNL     1      21.110  -0.380  53.614  1.00  0.00    -0.002 A 
HETATM    9  C6  UNL     1      22.399  -1.071  53.797  1.00  0.00    -0.002 A 
HETATM   10  C7  UNL     1      23.390  -0.240  53.501  1.00  0.00     0.002 A 
ENDBRANCH   4   6
ENDBRANCH   2   4
ENDBRANCH   1   2
BRANCH   1  11
HETATM   11  C8  UNL     1      26.235   2.221  50.387  1.00  0.00     0.169 C 
BRANCH  11  12
HETATM   12  C9  UNL     1      26.772   1.656  51.656  1.00  0.00    -0.040 A 
HETATM   13  C10 UNL     1      27.408   2.354  52.680  1.00  0.00     0.011 A 
HETATM   14  C11 UNL     1      27.847   1.673  53.795  1.00  0.00     0.037 A 
HETATM   15  C12 UNL     1      27.667   0.291  53.921  1.00  0.00     0.065 A 
HETATM   16  C13 UNL     1      27.041  -0.429  52.924  1.00  0.00     0.037 A 
HETATM   17  C14 UNL     1      26.608   0.288  51.810  1.00  0.00     0.011 A 
BRANCH  15  18
HETATM   18  O1  UNL     1      28.112  -0.369  55.041  1.00  0.00    -0.361 OA
HETATM   19  H13 UNL     1      28.856  -1.050  54.926  1.00  0.00     0.217 HD
ENDBRANCH  15  18
ENDBRANCH  11  12
ENDBRANCH   1  11
BRANCH   1  20
HETATM   20  C15 UNL     1      24.399   3.900  49.755  1.00  0.00     0.104 A 
HETATM   21  C16 UNL     1      24.769   5.240  49.660  1.00  0.00     0.095 A 
HETATM   22  C17 UNL     1      24.088   6.041  48.776  1.00  0.00     0.040 A 
HETATM   23  C18 UNL     1      23.073   5.574  47.993  1.00  0.00     0.025 A 
HETATM   24  C19 UNL     1      22.683   4.251  48.063  1.00  0.00     0.046 A 
HETATM   25 BR1  UNL     1      21.263   3.618  46.963  1.00  0.00    -0.048 Br
HETATM   26  C20 UNL     1      23.371   3.429  48.961  1.00  0.00     0.112 A 
BRANCH  21  27
HETATM   27  O2  UNL     1      25.808   5.602  50.499  1.00  0.00    -0.358 OA
HETATM   28  H16 UNL     1      26.357   4.877  50.920  1.00  0.00     0.217 HD
ENDBRANCH  21  27
BRANCH  26  29
HETATM   29  O3  UNL     1      22.919   2.115  48.971  1.00  0.00    -0.357 OA
HETATM   30  H19 UNL     1      23.610   1.393  49.030  1.00  0.00     0.217 HD
ENDBRANCH  26  29
ENDBRANCH   1  20
TORSDOF 9
ENDMDL
MODEL 4
REMARK VINA RESULT:      -7.3      1.196      2.255
REMARK  9 active torsions:
REMARK  status: ('A' for Active; 'I' for Inactive)
REMARK    1  A    between atoms: C2_2  and  N1_3 
REMARK    2  A    between atoms: C2_2  and  N2_9 
REMARK    3  A    between atoms: N1_3  and  C3_4 
REMARK    4  A    between atoms: N2_9  and  C8_10 
REMARK    5  A    between atoms: N2_9  and  C15_18 
REMARK    6  A    between atoms: C8_10  and  C9_11 
REMARK    7  A    between atoms: C12_14  and  O1_15 
REMARK    8  A    between atoms: C16_19  and  O2_20 
REMARK    9  A    between atoms: C20_25  and  O3_26 
ROOT
HETATM    1  N2  UNL     1      24.685   2.565  51.238  1.00  0.00    -0.328 N 
ENDROOT
BRANCH   1   2
HETATM    2  C2  UNL     1      25.580   2.302  52.333  1.00  0.00     0.081 C 
HETATM    3  C1  UNL     1      25.208   2.824  53.497  1.00  0.00     0.084 C 
BRANCH   2   4
HETATM    4  N1  UNL     1      26.767   1.534  52.144  1.00  0.00    -0.368 N 
HETATM    5  H3  UNL     1      26.996   1.762  51.155  1.00  0.00     0.161 HD
BRANCH   4   6
HETATM    6  C3  UNL     1      27.207   0.768  53.292  1.00  0.00     0.129 A 
HETATM    7  C4  UNL     1      27.338  -0.670  53.047  1.00  0.00     0.002 A 
HETATM    8  C5  UNL     1      28.592  -1.102  53.262  1.00  0.00    -0.002 A 
HETATM    9  C6  UNL     1      29.379   0.075  53.675  1.00  0.00    -0.002 A 
HETATM   10  C7  UNL     1      28.595   1.144  53.693  1.00  0.00     0.002 A 
ENDBRANCH   4   6
ENDBRANCH   2   4
ENDBRANCH   1   2
BRANCH   1  11
HETATM   11  C8  UNL     1      23.520   1.785  50.864  1.00  0.00     0.169 C 
BRANCH  11  12
HETATM   12  C9  UNL     1      23.012   0.980  52.010  1.00  0.00    -0.040 A 
HETATM   13  C10 UNL     1      23.602  -0.153  52.563  1.00  0.00     0.011 A 
HETATM   14  C11 UNL     1      22.995  -0.782  53.630  1.00  0.00     0.037 A 
HETATM   15  C12 UNL     1      21.796  -0.303  54.170  1.00  0.00     0.065 A 
HETATM   16  C13 UNL     1      21.187   0.817  53.644  1.00  0.00     0.037 A 
HETATM   17  C14 UNL     1      21.824   1.431  52.567  1.00  0.00     0.011 A 
BRANCH  15  18
HETATM   18  O1  UNL     1      21.208  -0.945  55.233  1.00  0.00    -0.361 OA
HETATM   19  H13 UNL     1      20.749  -0.375  55.937  1.00  0.00     0.217 HD
ENDBRANCH  15  18
ENDBRANCH  11  12
ENDBRANCH   1  11
BRANCH   1  20
HETATM   20  C15 UNL     1      25.149   3.747  50.571  1.00  0.00     0.104 A 
HETATM   21  C16 UNL     1      26.228   3.869  49.697  1.00  0.00     0.095 A 
HETATM   22  C17 UNL     1      26.497   5.107  49.167  1.00  0.00     0.040 A 
HETATM   23  C18 UNL     1      25.752   6.211  49.462  1.00  0.00     0.025 A 
HETATM   24  C19 UNL     1      24.676   6.123  50.324  1.00  0.00     0.046 A 
HETATM   25 BR1  UNL     1      23.649   7.675  50.725  1.00  0.00    -0.048 Br
HETATM   26  C20 UNL     1      24.395   4.866  50.869  1.00  0.00     0.112 A 
BRANCH  21  27
HETATM   27  O2  UNL     1      26.911   2.687  49.471  1.00  0.00    -0.358 OA
HETATM   28  H16 UNL     1      27.671   2.692  48.819  1.00  0.00     0.217 HD
ENDBRANCH  21  27
BRANCH  26  29
HETATM   29  O3  UNL     1      23.301   4.862  51.724  1.00  0.00    -0.357 OA
HETATM   30  H19 UNL     1      22.550   4.237  51.505  1.00  0.00     0.217 HD
ENDBRANCH  26  29
ENDBRANCH   1  20
TORSDOF 9
ENDMDL
MODEL 5
REMARK VINA RESULT:      -7.3      2.125      4.283
REMARK  9 active torsions:
REMARK  status: ('A' for Active; 'I' for Inactive)
REMARK    1  A    between atoms: C2_2  and  N1_3 
REMARK    2  A    between atoms: C2_2  and  N2_9 
REMARK    3  A    between atoms: N1_3  and  C3_4 
REMARK    4  A    between atoms: N2_9  and  C8_10 
REMARK    5  A    between atoms: N2_9  and  C15_18 
REMARK    6  A    between atoms: C8_10  and  C9_11 
REMARK    7  A    between atoms: C12_14  and  O1_15 
REMARK    8  A    between atoms: C16_19  and  O2_20 
REMARK    9  A    between atoms: C20_25  and  O3_26 
ROOT
HETATM    1  N2  UNL     1      24.506   2.678  50.996  1.00  0.00    -0.328 N 
ENDROOT
BRANCH   1   2
HETATM    2  C2  UNL     1      23.414   1.840  51.413  1.00  0.00     0.081 C 
HETATM    3  C1  UNL     1      22.598   1.458  50.436  1.00  0.00     0.084 C 
BRANCH   2   4
HETATM    4  N1  UNL     1      23.251   1.469  52.780  1.00  0.00    -0.368 N 
HETATM    5  H3  UNL     1      23.613   2.319  53.261  1.00  0.00     0.161 HD
BRANCH   4   6
HETATM    6  C3  UNL     1      22.689   0.155  53.011  1.00  0.00     0.129 A 
HETATM    7  C4  UNL     1      23.490  -0.702  53.888  1.00  0.00     0.002 A 
HETATM    8  C5  UNL     1      22.805  -1.076  54.982  1.00  0.00    -0.002 A 
HETATM    9  C6  UNL     1      21.469  -0.461  54.875  1.00  0.00    -0.002 A 
HETATM   10  C7  UNL     1      21.397   0.242  53.753  1.00  0.00     0.002 A 
ENDBRANCH   4   6
ENDBRANCH   2   4
ENDBRANCH   1   2
BRANCH   1  11
HETATM   11  C8  UNL     1      25.849   2.244  50.653  1.00  0.00     0.169 C 
BRANCH  11  12
HETATM   12  C9  UNL     1      26.465   1.456  51.756  1.00  0.00    -0.040 A 
HETATM   13  C10 UNL     1      26.529   0.069  51.858  1.00  0.00     0.011 A 
HETATM   14  C11 UNL     1      27.140  -0.504  52.954  1.00  0.00     0.037 A 
HETATM   15  C12 UNL     1      27.701   0.283  53.966  1.00  0.00     0.065 A 
HETATM   16  C13 UNL     1      27.654   1.660  53.894  1.00  0.00     0.037 A 
HETATM   17  C14 UNL     1      27.030   2.208  52.775  1.00  0.00     0.011 A 
BRANCH  15  18
HETATM   18  O1  UNL     1      28.306  -0.308  55.050  1.00  0.00    -0.361 OA
HETATM   19  H13 UNL     1      28.191   0.134  55.957  1.00  0.00     0.217 HD
ENDBRANCH  15  18
ENDBRANCH  11  12
ENDBRANCH   1  11
BRANCH   1  20
HETATM   20  C15 UNL     1      24.035   4.031  50.977  1.00  0.00     0.104 A 
HETATM   21  C16 UNL     1      23.837   4.884  52.062  1.00  0.00     0.095 A 
HETATM   22  C17 UNL     1      23.375   6.153  51.815  1.00  0.00     0.040 A 
HETATM   23  C18 UNL     1      23.106   6.605  50.556  1.00  0.00     0.025 A 
HETATM   24  C19 UNL     1      23.291   5.786  49.460  1.00  0.00     0.046 A 
HETATM   25 BR1  UNL     1      22.909   6.434  47.711  1.00  0.00    -0.048 Br
HETATM   26  C20 UNL     1      23.762   4.491  49.703  1.00  0.00     0.112 A 
BRANCH  21  27
HETATM   27  O2  UNL     1      24.142   4.320  53.289  1.00  0.00    -0.358 OA
HETATM   28  H16 UNL     1      23.679   4.672  54.104  1.00  0.00     0.217 HD
ENDBRANCH  21  27
BRANCH  26  29
HETATM   29  O3  UNL     1      23.921   3.732  48.551  1.00  0.00    -0.357 OA
HETATM   30  H19 UNL     1      23.109   3.272  48.189  1.00  0.00     0.217 HD
ENDBRANCH  26  29
ENDBRANCH   1  20
TORSDOF 9
ENDMDL
MODEL 6
REMARK VINA RESULT:      -7.3      2.155      4.472
REMARK  9 active torsions:
REMARK  status: ('A' for Active; 'I' for Inactive)
REMARK    1  A    between atoms: C2_2  and  N1_3 
REMARK    2  A    between atoms: C2_2  and  N2_9 
REMARK    3  A    between atoms: N1_3  and  C3_4 
REMARK    4  A    between atoms: N2_9  and  C8_10 
REMARK    5  A    between atoms: N2_9  and  C15_18 
REMARK    6  A    between atoms: C8_10  and  C9_11 
REMARK    7  A    between atoms: C12_14  and  O1_15 
REMARK    8  A    between atoms: C16_19  and  O2_20 
REMARK    9  A    between atoms: C20_25  and  O3_26 
ROOT
HETATM    1  N2  UNL     1      24.014   3.140  51.912  1.00  0.00    -0.328 N 
ENDROOT
BRANCH   1   2
HETATM    2  C2  UNL     1      22.899   2.261  51.682  1.00  0.00     0.081 C 
HETATM    3  C1  UNL     1      22.819   1.770  50.449  1.00  0.00     0.084 C 
BRANCH   2   4
HETATM    4  N1  UNL     1      21.971   1.962  52.722  1.00  0.00    -0.368 N 
HETATM    5  H3  UNL     1      21.790   2.913  53.106  1.00  0.00     0.161 HD
BRANCH   4   6
HETATM    6  C3  UNL     1      21.630   0.563  52.876  1.00  0.00     0.129 A 
HETATM    7  C4  UNL     1      22.780  -0.328  53.043  1.00  0.00     0.002 A 
HETATM    8  C5  UNL     1      22.730  -0.995  54.209  1.00  0.00    -0.002 A 
HETATM    9  C6  UNL     1      21.498  -0.561  54.891  1.00  0.00    -0.002 A 
HETATM   10  C7  UNL     1      20.866   0.328  54.137  1.00  0.00     0.002 A 
ENDBRANCH   4   6
ENDBRANCH   2   4
ENDBRANCH   1   2
BRANCH   1  11
HETATM   11  C8  UNL     1      25.003   3.028  52.969  1.00  0.00     0.169 C 
BRANCH  11  12
HETATM   12  C9  UNL     1      25.675   1.700  52.947  1.00  0.00    -0.040 A 
HETATM   13  C10 UNL     1      26.092   0.991  51.824  1.00  0.00     0.011 A 
HETATM   14  C11 UNL     1      26.703  -0.235  51.982  1.00  0.00     0.037 A 
HETATM   15  C12 UNL     1      26.916  -0.781  53.252  1.00  0.00     0.065 A 
HETATM   16  C13 UNL     1      26.516  -0.104  54.386  1.00  0.00     0.037 A 
HETATM   17  C14 UNL     1      25.901   1.132  54.193  1.00  0.00     0.011 A 
BRANCH  15  18
HETATM   18  O1  UNL     1      27.528  -2.005  53.389  1.00  0.00    -0.361 OA
HETATM   19  H13 UNL     1      27.437  -2.669  52.627  1.00  0.00     0.217 HD
ENDBRANCH  15  18
ENDBRANCH  11  12
ENDBRANCH   1  11
BRANCH   1  20
HETATM   20  C15 UNL     1      23.979   4.160  50.904  1.00  0.00     0.104 A 
HETATM   21  C16 UNL     1      24.758   4.251  49.752  1.00  0.00     0.095 A 
HETATM   22  C17 UNL     1      24.558   5.321  48.916  1.00  0.00     0.040 A 
HETATM   23  C18 UNL     1      23.630   6.289  49.170  1.00  0.00     0.025 A 
HETATM   24  C19 UNL     1      22.842   6.227  50.303  1.00  0.00     0.046 A 
HETATM   25 BR1  UNL     1      21.554   7.588  50.641  1.00  0.00    -0.048 Br
HETATM   26  C20 UNL     1      23.041   5.141  51.160  1.00  0.00     0.112 A 
BRANCH  21  27
HETATM   27  O2  UNL     1      25.663   3.216  49.597  1.00  0.00    -0.358 OA
HETATM   28  H16 UNL     1      25.845   2.618  50.380  1.00  0.00     0.217 HD
ENDBRANCH  21  27
BRANCH  26  29
HETATM   29  O3  UNL     1      22.211   5.152  52.274  1.00  0.00    -0.357 OA
HETATM   30  H19 UNL     1      22.618   5.430  53.146  1.00  0.00     0.217 HD
ENDBRANCH  26  29
ENDBRANCH   1  20
TORSDOF 9
ENDMDL
MODEL 7
REMARK VINA RESULT:      -7.3      2.859      4.969
REMARK  9 active torsions:
REMARK  status: ('A' for Active; 'I' for Inactive)
REMARK    1  A    between atoms: C2_2  and  N1_3 
REMARK    2  A    between atoms: C2_2  and  N2_9 
REMARK    3  A    between atoms: N1_3  and  C3_4 
REMARK    4  A    between atoms: N2_9  and  C8_10 
REMARK    5  A    between atoms: N2_9  and  C15_18 
REMARK    6  A    between atoms: C8_10  and  C9_11 
REMARK    7  A    between atoms: C12_14  and  O1_15 
REMARK    8  A    between atoms: C16_19  and  O2_20 
REMARK    9  A    between atoms: C20_25  and  O3_26 
ROOT
HETATM    1  N2  UNL     1      23.964   4.150  51.817  1.00  0.00    -0.328 N 
ENDROOT
BRANCH   1   2
HETATM    2  C2  UNL     1      24.848   3.799  50.738  1.00  0.00     0.081 C 
HETATM    3  C1  UNL     1      24.468   2.745  50.024  1.00  0.00     0.084 C 
BRANCH   2   4
HETATM    4  N1  UNL     1      26.033   4.550  50.485  1.00  0.00    -0.368 N 
HETATM    5  H3  UNL     1      26.406   4.665  51.450  1.00  0.00     0.161 HD
BRANCH   4   6
HETATM    6  C3  UNL     1      26.289   4.869  49.095  1.00  0.00     0.129 A 
HETATM    7  C4  UNL     1      26.102   6.280  48.752  1.00  0.00     0.002 A 
HETATM    8  C5  UNL     1      27.230   6.832  48.272  1.00  0.00    -0.002 A 
HETATM    9  C6  UNL     1      28.254   5.771  48.277  1.00  0.00    -0.002 A 
HETATM   10  C7  UNL     1      27.724   4.649  48.745  1.00  0.00     0.002 A 
ENDBRANCH   4   6
ENDBRANCH   2   4
ENDBRANCH   1   2
BRANCH   1  11
HETATM   11  C8  UNL     1      23.962   3.585  53.155  1.00  0.00     0.169 C 
BRANCH  11  12
HETATM   12  C9  UNL     1      24.741   2.317  53.211  1.00  0.00    -0.040 A 
HETATM   13  C10 UNL     1      26.116   2.186  53.384  1.00  0.00     0.011 A 
HETATM   14  C11 UNL     1      26.680   0.928  53.413  1.00  0.00     0.037 A 
HETATM   15  C12 UNL     1      25.897  -0.223  53.274  1.00  0.00     0.065 A 
HETATM   16  C13 UNL     1      24.531  -0.127  53.102  1.00  0.00     0.037 A 
HETATM   17  C14 UNL     1      23.991   1.157  53.076  1.00  0.00     0.011 A 
BRANCH  15  18
HETATM   18  O1  UNL     1      26.479  -1.468  53.306  1.00  0.00    -0.361 OA
HETATM   19  H13 UNL     1      25.962  -2.222  53.747  1.00  0.00     0.217 HD
ENDBRANCH  15  18
ENDBRANCH  11  12
ENDBRANCH   1  11
BRANCH   1  20
HETATM   20  C15 UNL     1      23.074   5.167  51.338  1.00  0.00     0.104 A 
HETATM   21  C16 UNL     1      23.304   6.540  51.265  1.00  0.00     0.095 A 
HETATM   22  C17 UNL     1      22.305   7.340  50.767  1.00  0.00     0.040 A 
HETATM   23  C18 UNL     1      21.107   6.842  50.345  1.00  0.00     0.025 A 
HETATM   24  C19 UNL     1      20.848   5.487  50.404  1.00  0.00     0.046 A 
HETATM   25 BR1  UNL     1      19.170   4.811  49.811  1.00  0.00    -0.048 Br
HETATM   26  C20 UNL     1      21.861   4.665  50.910  1.00  0.00     0.112 A 
BRANCH  21  27
HETATM   27  O2  UNL     1      24.551   6.931  51.719  1.00  0.00    -0.358 OA
HETATM   28  H16 UNL     1      24.622   7.780  52.246  1.00  0.00     0.217 HD
ENDBRANCH  21  27
BRANCH  26  29
HETATM   29  O3  UNL     1      21.523   3.318  50.937  1.00  0.00    -0.357 OA
HETATM   30  H19 UNL     1      21.870   2.743  50.194  1.00  0.00     0.217 HD
ENDBRANCH  26  29
ENDBRANCH   1  20
TORSDOF 9
ENDMDL
MODEL 8
REMARK VINA RESULT:      -7.3      2.743      5.694
REMARK  9 active torsions:
REMARK  status: ('A' for Active; 'I' for Inactive)
REMARK    1  A    between atoms: C2_2  and  N1_3 
REMARK    2  A    between atoms: C2_2  and  N2_9 
REMARK    3  A    between atoms: N1_3  and  C3_4 
REMARK    4  A    between atoms: N2_9  and  C8_10 
REMARK    5  A    between atoms: N2_9  and  C15_18 
REMARK    6  A    between atoms: C8_10  and  C9_11 
REMARK    7  A    between atoms: C12_14  and  O1_15 
REMARK    8  A    between atoms: C16_19  and  O2_20 
REMARK    9  A    between atoms: C20_25  and  O3_26 
ROOT
HETATM    1  N2  UNL     1      23.871   2.308  51.532  1.00  0.00    -0.328 N 
ENDROOT
BRANCH   1   2
HETATM    2  C2  UNL     1      24.836   2.496  52.582  1.00  0.00     0.081 C 
HETATM    3  C1  UNL     1      24.524   3.438  53.466  1.00  0.00     0.084 C 
BRANCH   2   4
HETATM    4  N1  UNL     1      26.025   1.712  52.636  1.00  0.00    -0.368 N 
HETATM    5  H3  UNL     1      25.992   1.235  51.711  1.00  0.00     0.161 HD
BRANCH   4   6
HETATM    6  C3  UNL     1      26.804   1.835  53.851  1.00  0.00     0.129 A 
HETATM    7  C4  UNL     1      26.968   0.586  54.596  1.00  0.00     0.002 A 
HETATM    8  C5  UNL     1      28.263   0.250  54.731  1.00  0.00    -0.002 A 
HETATM    9  C6  UNL     1      29.044   1.303  54.056  1.00  0.00    -0.002 A 
HETATM   10  C7  UNL     1      28.218   2.210  53.552  1.00  0.00     0.002 A 
ENDBRANCH   4   6
ENDBRANCH   2   4
ENDBRANCH   1   2
BRANCH   1  11
HETATM   11  C8  UNL     1      24.098   2.464  50.106  1.00  0.00     0.169 C 
BRANCH  11  12
HETATM   12  C9  UNL     1      24.945   3.654  49.817  1.00  0.00    -0.040 A 
HETATM   13  C10 UNL     1      24.573   4.992  49.924  1.00  0.00     0.011 A 
HETATM   14  C11 UNL     1      25.487   5.978  49.615  1.00  0.00     0.037 A 
HETATM   15  C12 UNL     1      26.784   5.660  49.197  1.00  0.00     0.065 A 
HETATM   16  C13 UNL     1      27.184   4.345  49.082  1.00  0.00     0.037 A 
HETATM   17  C14 UNL     1      26.238   3.372  49.401  1.00  0.00     0.011 A 
BRANCH  15  18
HETATM   18  O1  UNL     1      27.680   6.658  48.895  1.00  0.00    -0.361 OA
HETATM   19  H13 UNL     1      27.698   7.007  47.942  1.00  0.00     0.217 HD
ENDBRANCH  15  18
ENDBRANCH  11  12
ENDBRANCH   1  11
BRANCH   1  20
HETATM   20  C15 UNL     1      22.629   1.934  52.144  1.00  0.00     0.104 A 
HETATM   21  C16 UNL     1      21.446   2.668  52.196  1.00  0.00     0.095 A 
HETATM   22  C17 UNL     1      20.366   2.115  52.839  1.00  0.00     0.040 A 
HETATM   23  C18 UNL     1      20.410   0.882  53.422  1.00  0.00     0.025 A 
HETATM   24  C19 UNL     1      21.567   0.129  53.387  1.00  0.00     0.046 A 
HETATM   25 BR1  UNL     1      21.610  -1.589  54.207  1.00  0.00    -0.048 Br
HETATM   26  C20 UNL     1      22.672   0.686  52.734  1.00  0.00     0.112 A 
BRANCH  21  27
HETATM   27  O2  UNL     1      21.516   3.902  51.573  1.00  0.00    -0.358 OA
HETATM   28  H16 UNL     1      22.318   4.108  51.010  1.00  0.00     0.217 HD
ENDBRANCH  21  27
BRANCH  26  29
HETATM   29  O3  UNL     1      23.794  -0.132  52.744  1.00  0.00    -0.357 OA
HETATM   30  H19 UNL     1      23.826  -0.875  52.072  1.00  0.00     0.217 HD
ENDBRANCH  26  29
ENDBRANCH   1  20
TORSDOF 9
ENDMDL
MODEL 9
REMARK VINA RESULT:      -7.2      2.666      5.087
REMARK  9 active torsions:
REMARK  status: ('A' for Active; 'I' for Inactive)
REMARK    1  A    between atoms: C2_2  and  N1_3 
REMARK    2  A    between atoms: C2_2  and  N2_9 
REMARK    3  A    between atoms: N1_3  and  C3_4 
REMARK    4  A    between atoms: N2_9  and  C8_10 
REMARK    5  A    between atoms: N2_9  and  C15_18 
REMARK    6  A    between atoms: C8_10  and  C9_11 
REMARK    7  A    between atoms: C12_14  and  O1_15 
REMARK    8  A    between atoms: C16_19  and  O2_20 
REMARK    9  A    between atoms: C20_25  and  O3_26 
ROOT
HETATM    1  N2  UNL     1      23.911   3.678  51.837  1.00  0.00    -0.328 N 
ENDROOT
BRANCH   1   2
HETATM    2  C2  UNL     1      24.790   3.625  50.699  1.00  0.00     0.081 C 
HETATM    3  C1  UNL     1      24.551   2.629  49.853  1.00  0.00     0.084 C 
BRANCH   2   4
HETATM    4  N1  UNL     1      25.829   4.587  50.528  1.00  0.00    -0.368 N 
HETATM    5  H3  UNL     1      26.090   4.776  51.518  1.00  0.00     0.161 HD
BRANCH   4   6
HETATM    6  C3  UNL     1      26.137   4.941  49.158  1.00  0.00     0.129 A 
HETATM    7  C4  UNL     1      26.160   6.380  48.894  1.00  0.00     0.002 A 
HETATM    8  C5  UNL     1      27.359   6.787  48.443  1.00  0.00    -0.002 A 
HETATM    9  C6  UNL     1      28.217   5.589  48.386  1.00  0.00    -0.002 A 
HETATM   10  C7  UNL     1      27.526   4.533  48.793  1.00  0.00     0.002 A 
ENDBRANCH   4   6
ENDBRANCH   2   4
ENDBRANCH   1   2
BRANCH   1  11
HETATM   11  C8  UNL     1      24.262   3.400  53.218  1.00  0.00     0.169 C 
BRANCH  11  12
HETATM   12  C9  UNL     1      24.991   2.108  53.345  1.00  0.00    -0.040 A 
HETATM   13  C10 UNL     1      24.481   0.832  53.116  1.00  0.00     0.011 A 
HETATM   14  C11 UNL     1      25.298  -0.266  53.281  1.00  0.00     0.037 A 
HETATM   15  C12 UNL     1      26.634  -0.125  53.673  1.00  0.00     0.065 A 
HETATM   16  C13 UNL     1      27.169   1.124  53.908  1.00  0.00     0.037 A 
HETATM   17  C14 UNL     1      26.319   2.214  53.733  1.00  0.00     0.011 A 
BRANCH  15  18
HETATM   18  O1  UNL     1      27.432  -1.233  53.832  1.00  0.00    -0.361 OA
HETATM   19  H13 UNL     1      28.316  -1.256  53.334  1.00  0.00     0.217 HD
ENDBRANCH  15  18
ENDBRANCH  11  12
ENDBRANCH   1  11
BRANCH   1  20
HETATM   20  C15 UNL     1      22.611   4.057  51.365  1.00  0.00     0.104 A 
HETATM   21  C16 UNL     1      21.519   3.230  51.106  1.00  0.00     0.095 A 
HETATM   22  C17 UNL     1      20.358   3.809  50.656  1.00  0.00     0.040 A 
HETATM   23  C18 UNL     1      20.237   5.153  50.457  1.00  0.00     0.025 A 
HETATM   24  C19 UNL     1      21.299   6.000  50.704  1.00  0.00     0.046 A 
HETATM   25 BR1  UNL     1      21.111   7.873  50.419  1.00  0.00    -0.048 Br
HETATM   26  C20 UNL     1      22.486   5.418  51.162  1.00  0.00     0.112 A 
BRANCH  21  27
HETATM   27  O2  UNL     1      21.757   1.888  51.343  1.00  0.00    -0.358 OA
HETATM   28  H16 UNL     1      21.598   1.530  52.265  1.00  0.00     0.217 HD
ENDBRANCH  21  27
BRANCH  26  29
HETATM   29  O3  UNL     1      23.505   6.335  51.387  1.00  0.00    -0.357 OA
HETATM   30  H19 UNL     1      23.514   6.803  52.272  1.00  0.00     0.217 HD
ENDBRANCH  26  29
ENDBRANCH   1  20
TORSDOF 9
ENDMDL
