MODEL 1
REMARK VINA RESULT:      -7.7      0.000      0.000
REMARK  5 active torsions:
REMARK  status: ('A' for Active; 'I' for Inactive)
REMARK    1  A    between atoms: O1_2  and  C2_3 
REMARK    2  A    between atoms: C2_3  and  C3_4 
REMARK    3  A    between atoms: C3_4  and  O2_22 
REMARK    4  A    between atoms: C4_5  and  C5_6 
REMARK    5  A    between atoms: C7_10  and  N3_11 
ROOT
HETATM    1  C5  UNL     1      25.855   0.863  52.154  1.00  0.00     0.066 C 
HETATM    2  N1  UNL     1      25.921   1.448  50.959  1.00  0.00    -0.242 NA
HETATM    3  C6  UNL     1      25.702   2.853  50.671  1.00  0.00     0.231 C 
HETATM    4  N2  UNL     1      25.131   3.715  51.445  1.00  0.00    -0.234 NA
HETATM    5  C7  UNL     1      24.003   3.494  52.331  1.00  0.00     0.285 C 
HETATM    6  C8  UNL     1      22.766   3.250  51.604  1.00  0.00     0.042 C 
HETATM    7  C9  UNL     1      21.608   2.714  51.222  1.00  0.00     0.000 C 
HETATM    8  C10 UNL     1      20.677   1.647  51.536  1.00  0.00    -0.003 C 
HETATM    9  C11 UNL     1      20.558   0.660  52.407  1.00  0.00    -0.007 C 
HETATM   10  C12 UNL     1      21.757   0.694  53.314  1.00  0.00     0.105 C 
HETATM   11 CL1  UNL     1      21.251  -0.022  54.895  1.00  0.00    -0.121 Cl
HETATM   12  C13 UNL     1      22.745  -0.257  52.740  1.00  0.00     0.029 C 
HETATM   13  C14 UNL     1      24.079  -0.173  53.443  1.00  0.00     0.042 C 
HETATM   14  C15 UNL     1      24.667   1.157  53.016  1.00  0.00    -0.028 C 
HETATM   15  C16 UNL     1      24.274   2.388  53.286  1.00  0.00     0.052 C 
ENDROOT
BRANCH   1  16
HETATM   16  C4  UNL     1      26.833  -0.095  52.714  1.00  0.00     0.066 C 
HETATM   17  C3  UNL     1      27.803  -0.449  53.534  1.00  0.00     0.071 C 
BRANCH  17  18
HETATM   18  C2  UNL     1      28.559   0.248  54.593  1.00  0.00     0.231 C 
BRANCH  18  19
HETATM   19  O1  UNL     1      28.416   1.583  54.698  1.00  0.00    -0.390 OA
HETATM   20  C1  UNL     1      28.934   2.429  53.783  1.00  0.00     0.201 C 
ENDBRANCH  18  19
ENDBRANCH  17  18
BRANCH  17  21
HETATM   21  O2  UNL     1      28.324  -1.760  53.482  1.00  0.00    -0.358 OA
HETATM   22  C17 UNL     1      29.706  -2.018  53.478  1.00  0.00     0.209 C 
ENDBRANCH  17  21
ENDBRANCH   1  16
BRANCH   5  23
HETATM   23  N3  UNL     1      23.847   4.748  53.092  1.00  0.00     0.117 N 
HETATM   24  H8  UNL     1      23.994   5.506  52.384  1.00  0.00     0.317 HD
HETATM   25  H9  UNL     1      24.651   4.805  53.751  1.00  0.00     0.317 HD
ENDBRANCH   5  23
TORSDOF 5
ENDMDL
MODEL 2
REMARK VINA RESULT:      -7.6      1.193      2.061
REMARK  5 active torsions:
REMARK  status: ('A' for Active; 'I' for Inactive)
REMARK    1  A    between atoms: O1_2  and  C2_3 
REMARK    2  A    between atoms: C2_3  and  C3_4 
REMARK    3  A    between atoms: C3_4  and  O2_22 
REMARK    4  A    between atoms: C4_5  and  C5_6 
REMARK    5  A    between atoms: C7_10  and  N3_11 
ROOT
HETATM    1  C5  UNL     1      26.332   1.979  52.237  1.00  0.00     0.066 C 
HETATM    2  N1  UNL     1      26.574   2.244  50.954  1.00  0.00    -0.242 NA
HETATM    3  C6  UNL     1      26.093   3.387  50.201  1.00  0.00     0.231 C 
HETATM    4  N2  UNL     1      25.130   4.178  50.540  1.00  0.00    -0.234 NA
HETATM    5  C7  UNL     1      23.896   3.825  51.218  1.00  0.00     0.285 C 
HETATM    6  C8  UNL     1      23.013   3.024  50.383  1.00  0.00     0.042 C 
HETATM    7  C9  UNL     1      22.183   2.065  49.976  1.00  0.00     0.000 C 
HETATM    8  C10 UNL     1      21.506   0.864  50.426  1.00  0.00    -0.003 C 
HETATM    9  C11 UNL     1      21.407   0.136  51.525  1.00  0.00    -0.007 C 
HETATM   10  C12 UNL     1      22.258   0.777  52.586  1.00  0.00     0.105 C 
HETATM   11 CL1  UNL     1      21.534   0.344  54.185  1.00  0.00    -0.121 Cl
HETATM   12  C13 UNL     1      23.575   0.089  52.541  1.00  0.00     0.029 C 
HETATM   13  C14 UNL     1      24.594   0.770  53.423  1.00  0.00     0.042 C 
HETATM   14  C15 UNL     1      24.918   2.072  52.719  1.00  0.00    -0.028 C 
HETATM   15  C16 UNL     1      24.165   3.136  52.506  1.00  0.00     0.052 C 
ENDROOT
BRANCH   1  16
HETATM   16  C4  UNL     1      27.328   1.557  53.246  1.00  0.00     0.066 C 
HETATM   17  C3  UNL     1      28.135   0.684  53.815  1.00  0.00     0.071 C 
BRANCH  17  18
HETATM   18  C2  UNL     1      28.461  -0.732  53.559  1.00  0.00     0.231 C 
BRANCH  18  19
HETATM   19  O1  UNL     1      27.453  -1.625  53.566  1.00  0.00    -0.390 OA
HETATM   20  C1  UNL     1      26.894  -2.078  52.424  1.00  0.00     0.201 C 
ENDBRANCH  18  19
ENDBRANCH  17  18
BRANCH  17  21
HETATM   21  O2  UNL     1      28.912   1.068  54.929  1.00  0.00    -0.358 OA
HETATM   22  C17 UNL     1      29.834   2.128  54.871  1.00  0.00     0.209 C 
ENDBRANCH  17  21
ENDBRANCH   1  16
BRANCH   5  23
HETATM   23  N3  UNL     1      23.220   5.106  51.500  1.00  0.00     0.117 N 
HETATM   24  H8  UNL     1      22.276   4.832  51.864  1.00  0.00     0.317 HD
HETATM   25  H9  UNL     1      23.054   5.570  50.583  1.00  0.00     0.317 HD
ENDBRANCH   5  23
TORSDOF 5
ENDMDL
MODEL 3
REMARK VINA RESULT:      -7.5      1.831      2.294
REMARK  5 active torsions:
REMARK  status: ('A' for Active; 'I' for Inactive)
REMARK    1  A    between atoms: O1_2  and  C2_3 
REMARK    2  A    between atoms: C2_3  and  C3_4 
REMARK    3  A    between atoms: C3_4  and  O2_22 
REMARK    4  A    between atoms: C4_5  and  C5_6 
REMARK    5  A    between atoms: C7_10  and  N3_11 
ROOT
HETATM    1  C5  UNL     1      25.365   1.308  52.406  1.00  0.00     0.066 C 
HETATM    2  N1  UNL     1      26.202   1.445  51.379  1.00  0.00    -0.242 NA
HETATM    3  C6  UNL     1      26.473   2.664  50.641  1.00  0.00     0.231 C 
HETATM    4  N2  UNL     1      25.758   3.740  50.648  1.00  0.00    -0.234 NA
HETATM    5  C7  UNL     1      24.311   3.837  50.712  1.00  0.00     0.285 C 
HETATM    6  C8  UNL     1      23.669   3.357  49.496  1.00  0.00     0.042 C 
HETATM    7  C9  UNL     1      22.839   2.722  48.671  1.00  0.00     0.000 C 
HETATM    8  C10 UNL     1      21.697   1.828  48.652  1.00  0.00    -0.003 C 
HETATM    9  C11 UNL     1      20.916   1.202  49.515  1.00  0.00    -0.007 C 
HETATM   10  C12 UNL     1      21.384   1.547  50.902  1.00  0.00     0.105 C 
HETATM   11 CL1  UNL     1      19.951   1.420  51.997  1.00  0.00    -0.121 Cl
HETATM   12  C13 UNL     1      22.305   0.457  51.317  1.00  0.00     0.029 C 
HETATM   13  C14 UNL     1      23.005   0.778  52.616  1.00  0.00     0.042 C 
HETATM   14  C15 UNL     1      23.988   1.880  52.272  1.00  0.00    -0.028 C 
HETATM   15  C16 UNL     1      23.772   3.129  51.901  1.00  0.00     0.052 C 
ENDROOT
BRANCH   1  16
HETATM   16  C4  UNL     1      25.646   0.601  53.675  1.00  0.00     0.066 C 
HETATM   17  C3  UNL     1      26.445   0.125  54.609  1.00  0.00     0.071 C 
BRANCH  17  18
HETATM   18  C2  UNL     1      27.908   0.114  54.801  1.00  0.00     0.231 C 
BRANCH  18  19
HETATM   19  O1  UNL     1      28.536   1.296  54.953  1.00  0.00    -0.390 OA
HETATM   20  C1  UNL     1      28.946   2.026  53.895  1.00  0.00     0.201 C 
ENDBRANCH  18  19
ENDBRANCH  17  18
BRANCH  17  21
HETATM   21  O2  UNL     1      25.900  -0.549  55.723  1.00  0.00    -0.358 OA
HETATM   22  C17 UNL     1      24.651  -1.193  55.672  1.00  0.00     0.209 C 
ENDBRANCH  17  21
ENDBRANCH   1  16
BRANCH   5  23
HETATM   23  N3  UNL     1      24.017   5.276  50.846  1.00  0.00     0.117 N 
HETATM   24  H8  UNL     1      24.485   5.719  50.019  1.00  0.00     0.317 HD
HETATM   25  H9  UNL     1      24.532   5.614  51.686  1.00  0.00     0.317 HD
ENDBRANCH   5  23
TORSDOF 5
ENDMDL
MODEL 4
REMARK VINA RESULT:      -7.4      2.929      4.026
REMARK  5 active torsions:
REMARK  status: ('A' for Active; 'I' for Inactive)
REMARK    1  A    between atoms: O1_2  and  C2_3 
REMARK    2  A    between atoms: C2_3  and  C3_4 
REMARK    3  A    between atoms: C3_4  and  O2_22 
REMARK    4  A    between atoms: C4_5  and  C5_6 
REMARK    5  A    between atoms: C7_10  and  N3_11 
ROOT
HETATM    1  C5  UNL     1      23.129   0.193  53.356  1.00  0.00     0.066 C 
HETATM    2  N1  UNL     1      22.215   0.347  54.313  1.00  0.00    -0.242 NA
HETATM    3  C6  UNL     1      20.787   0.127  54.189  1.00  0.00     0.231 C 
HETATM    4  N2  UNL     1      20.118   0.032  53.087  1.00  0.00    -0.234 NA
HETATM    5  C7  UNL     1      20.336   0.769  51.856  1.00  0.00     0.285 C 
HETATM    6  C8  UNL     1      20.010   2.182  51.991  1.00  0.00     0.042 C 
HETATM    7  C9  UNL     1      20.086   3.509  51.918  1.00  0.00     0.000 C 
HETATM    8  C10 UNL     1      20.931   4.588  51.443  1.00  0.00    -0.003 C 
HETATM    9  C11 UNL     1      22.090   4.740  50.825  1.00  0.00    -0.007 C 
HETATM   10  C12 UNL     1      22.656   3.373  50.558  1.00  0.00     0.105 C 
HETATM   11 CL1  UNL     1      23.708   3.508  49.094  1.00  0.00    -0.121 Cl
HETATM   12  C13 UNL     1      23.575   3.071  51.687  1.00  0.00     0.029 C 
HETATM   13  C14 UNL     1      24.062   1.642  51.647  1.00  0.00     0.042 C 
HETATM   14  C15 UNL     1      22.854   0.803  52.017  1.00  0.00    -0.028 C 
HETATM   15  C16 UNL     1      21.727   0.599  51.362  1.00  0.00     0.052 C 
ENDROOT
BRANCH   1  16
HETATM   16  C4  UNL     1      24.429  -0.501  53.491  1.00  0.00     0.066 C 
HETATM   17  C3  UNL     1      25.651  -0.635  53.966  1.00  0.00     0.071 C 
BRANCH  17  18
HETATM   18  C2  UNL     1      26.492   0.163  54.880  1.00  0.00     0.231 C 
BRANCH  18  19
HETATM   19  O1  UNL     1      27.759  -0.242  55.090  1.00  0.00    -0.390 OA
HETATM   20  C1  UNL     1      28.817   0.491  54.686  1.00  0.00     0.201 C 
ENDBRANCH  18  19
ENDBRANCH  17  18
BRANCH  17  21
HETATM   21  O2  UNL     1      26.433  -1.747  53.587  1.00  0.00    -0.358 OA
HETATM   22  C17 UNL     1      26.791  -1.991  52.249  1.00  0.00     0.209 C 
ENDBRANCH  17  21
ENDBRANCH   1  16
BRANCH   5  23
HETATM   23  N3  UNL     1      19.409   0.178  50.873  1.00  0.00     0.117 N 
HETATM   24  H8  UNL     1      19.074  -0.706  51.325  1.00  0.00     0.317 HD
HETATM   25  H9  UNL     1      19.981  -0.113  50.053  1.00  0.00     0.317 HD
ENDBRANCH   5  23
TORSDOF 5
ENDMDL
MODEL 5
REMARK VINA RESULT:      -7.2      3.131      5.928
REMARK  5 active torsions:
REMARK  status: ('A' for Active; 'I' for Inactive)
REMARK    1  A    between atoms: O1_2  and  C2_3 
REMARK    2  A    between atoms: C2_3  and  C3_4 
REMARK    3  A    between atoms: C3_4  and  O2_22 
REMARK    4  A    between atoms: C4_5  and  C5_6 
REMARK    5  A    between atoms: C7_10  and  N3_11 
ROOT
HETATM    1  C5  UNL     1      23.462   1.535  52.963  1.00  0.00     0.066 C 
HETATM    2  N1  UNL     1      23.683   2.806  53.292  1.00  0.00    -0.242 NA
HETATM    3  C6  UNL     1      24.366   3.802  52.488  1.00  0.00     0.231 C 
HETATM    4  N2  UNL     1      25.124   3.575  51.467  1.00  0.00    -0.234 NA
HETATM    5  C7  UNL     1      26.047   2.469  51.282  1.00  0.00     0.285 C 
HETATM    6  C8  UNL     1      27.192   2.546  52.178  1.00  0.00     0.042 C 
HETATM    7  C9  UNL     1      28.139   2.208  53.051  1.00  0.00     0.000 C 
HETATM    8  C10 UNL     1      28.647   1.087  53.820  1.00  0.00    -0.003 C 
HETATM    9  C11 UNL     1      28.370  -0.192  54.006  1.00  0.00    -0.007 C 
HETATM   10  C12 UNL     1      27.181  -0.540  53.155  1.00  0.00     0.105 C 
HETATM   11 CL1  UNL     1      27.302  -2.299  52.760  1.00  0.00    -0.121 Cl
HETATM   12  C13 UNL     1      25.986  -0.405  54.029  1.00  0.00     0.029 C 
HETATM   13  C14 UNL     1      24.701  -0.533  53.246  1.00  0.00     0.042 C 
HETATM   14  C15 UNL     1      24.611   0.738  52.426  1.00  0.00    -0.028 C 
HETATM   15  C16 UNL     1      25.359   1.160  51.423  1.00  0.00     0.052 C 
ENDROOT
BRANCH   1  16
HETATM   16  C4  UNL     1      22.186   0.802  53.110  1.00  0.00     0.066 C 
HETATM   17  C3  UNL     1      20.883   0.658  52.966  1.00  0.00     0.071 C 
BRANCH  17  18
HETATM   18  C2  UNL     1      19.815   1.496  52.389  1.00  0.00     0.231 C 
BRANCH  18  19
HETATM   19  O1  UNL     1      19.819   2.813  52.675  1.00  0.00    -0.390 OA
HETATM   20  C1  UNL     1      20.357   3.722  51.835  1.00  0.00     0.201 C 
ENDBRANCH  18  19
ENDBRANCH  17  18
BRANCH  17  21
HETATM   21  O2  UNL     1      20.250  -0.515  53.431  1.00  0.00    -0.358 OA
HETATM   22  C17 UNL     1      20.936  -1.492  54.175  1.00  0.00     0.209 C 
ENDBRANCH  17  21
ENDBRANCH   1  16
BRANCH   5  23
HETATM   23  N3  UNL     1      26.542   2.596  49.898  1.00  0.00     0.117 N 
HETATM   24  H8  UNL     1      27.367   3.238  49.971  1.00  0.00     0.317 HD
HETATM   25  H9  UNL     1      25.816   3.115  49.362  1.00  0.00     0.317 HD
ENDBRANCH   5  23
TORSDOF 5
ENDMDL
MODEL 6
REMARK VINA RESULT:      -6.7      4.357      7.244
REMARK  5 active torsions:
REMARK  status: ('A' for Active; 'I' for Inactive)
REMARK    1  A    between atoms: O1_2  and  C2_3 
REMARK    2  A    between atoms: C2_3  and  C3_4 
REMARK    3  A    between atoms: C3_4  and  O2_22 
REMARK    4  A    between atoms: C4_5  and  C5_6 
REMARK    5  A    between atoms: C7_10  and  N3_11 
ROOT
HETATM    1  C5  UNL     1      22.041   2.462  51.785  1.00  0.00     0.066 C 
HETATM    2  N1  UNL     1      22.482   1.217  51.613  1.00  0.00    -0.242 NA
HETATM    3  C6  UNL     1      23.545   0.566  52.356  1.00  0.00     0.231 C 
HETATM    4  N2  UNL     1      24.432   1.146  53.094  1.00  0.00    -0.234 NA
HETATM    5  C7  UNL     1      25.079   2.423  52.855  1.00  0.00     0.285 C 
HETATM    6  C8  UNL     1      25.982   2.383  51.713  1.00  0.00     0.042 C 
HETATM    7  C9  UNL     1      26.603   2.706  50.581  1.00  0.00     0.000 C 
HETATM    8  C10 UNL     1      26.645   3.716  49.540  1.00  0.00    -0.003 C 
HETATM    9  C11 UNL     1      26.036   4.848  49.235  1.00  0.00    -0.007 C 
HETATM   10  C12 UNL     1      25.015   5.130  50.302  1.00  0.00     0.105 C 
HETATM   11 CL1  UNL     1      24.795   6.923  50.370  1.00  0.00    -0.121 Cl
HETATM   12  C13 UNL     1      23.725   4.585  49.804  1.00  0.00     0.029 C 
HETATM   13  C14 UNL     1      22.652   4.624  50.866  1.00  0.00     0.042 C 
HETATM   14  C15 UNL     1      23.053   3.561  51.870  1.00  0.00    -0.028 C 
HETATM   15  C16 UNL     1      24.083   3.514  52.695  1.00  0.00     0.052 C 
ENDROOT
BRANCH   1  16
HETATM   16  C4  UNL     1      20.625   2.885  51.863  1.00  0.00     0.066 C 
HETATM   17  C3  UNL     1      19.355   2.827  51.517  1.00  0.00     0.071 C 
BRANCH  17  18
HETATM   18  C2  UNL     1      18.589   2.012  50.554  1.00  0.00     0.231 C 
BRANCH  18  19
HETATM   19  O1  UNL     1      18.640   0.672  50.678  1.00  0.00    -0.390 OA
HETATM   20  C1  UNL     1      18.560   0.064  51.880  1.00  0.00     0.201 C 
ENDBRANCH  18  19
ENDBRANCH  17  18
BRANCH  17  21
HETATM   21  O2  UNL     1      18.419   3.689  52.129  1.00  0.00    -0.358 OA
HETATM   22  C17 UNL     1      17.098   3.814  51.664  1.00  0.00     0.209 C 
ENDBRANCH  17  21
ENDBRANCH   1  16
BRANCH   5  23
HETATM   23  N3  UNL     1      25.882   2.691  54.063  1.00  0.00     0.117 N 
HETATM   24  H8  UNL     1      26.850   2.376  53.811  1.00  0.00     0.317 HD
HETATM   25  H9  UNL     1      25.547   2.037  54.801  1.00  0.00     0.317 HD
ENDBRANCH   5  23
TORSDOF 5
ENDMDL
MODEL 7
REMARK VINA RESULT:      -6.5      2.941      4.235
REMARK  5 active torsions:
REMARK  status: ('A' for Active; 'I' for Inactive)
REMARK    1  A    between atoms: O1_2  and  C2_3 
REMARK    2  A    between atoms: C2_3  and  C3_4 
REMARK    3  A    between atoms: C3_4  and  O2_22 
REMARK    4  A    between atoms: C4_5  and  C5_6 
REMARK    5  A    between atoms: C7_10  and  N3_11 
ROOT
HETATM    1  C5  UNL     1      22.736   0.569  52.840  1.00  0.00     0.066 C 
HETATM    2  N1  UNL     1      21.449   0.426  53.155  1.00  0.00    -0.242 NA
HETATM    3  C6  UNL     1      20.350   0.219  52.231  1.00  0.00     0.231 C 
HETATM    4  N2  UNL     1      20.371   0.427  50.956  1.00  0.00    -0.234 NA
HETATM    5  C7  UNL     1      21.060   1.489  50.246  1.00  0.00     0.285 C 
HETATM    6  C8  UNL     1      20.475   2.797  50.501  1.00  0.00     0.042 C 
HETATM    7  C9  UNL     1      20.348   4.092  50.785  1.00  0.00     0.000 C 
HETATM    8  C10 UNL     1      21.118   5.279  51.105  1.00  0.00    -0.003 C 
HETATM    9  C11 UNL     1      22.384   5.625  51.267  1.00  0.00    -0.007 C 
HETATM   10  C12 UNL     1      23.232   4.403  51.045  1.00  0.00     0.105 C 
HETATM   11 CL1  UNL     1      24.845   4.971  50.462  1.00  0.00    -0.121 Cl
HETATM   12  C13 UNL     1      23.475   3.813  52.388  1.00  0.00     0.029 C 
HETATM   13  C14 UNL     1      24.150   2.465  52.294  1.00  0.00     0.042 C 
HETATM   14  C15 UNL     1      23.088   1.530  51.747  1.00  0.00    -0.028 C 
HETATM   15  C16 UNL     1      22.512   1.496  50.560  1.00  0.00     0.052 C 
ENDROOT
BRANCH   1  16
HETATM   16  C4  UNL     1      23.877  -0.106  53.496  1.00  0.00     0.066 C 
HETATM   17  C3  UNL     1      25.116  -0.555  53.541  1.00  0.00     0.071 C 
BRANCH  17  18
HETATM   18  C2  UNL     1      26.245  -0.551  52.591  1.00  0.00     0.231 C 
BRANCH  18  19
HETATM   19  O1  UNL     1      27.459  -0.191  53.051  1.00  0.00    -0.390 OA
HETATM   20  C1  UNL     1      27.839   1.101  53.121  1.00  0.00     0.201 C 
ENDBRANCH  18  19
ENDBRANCH  17  18
BRANCH  17  21
HETATM   21  O2  UNL     1      25.585  -1.206  54.702  1.00  0.00    -0.358 OA
HETATM   22  C17 UNL     1      25.067  -0.927  55.979  1.00  0.00     0.209 C 
ENDBRANCH  17  21
ENDBRANCH   1  16
BRANCH   5  23
HETATM   23  N3  UNL     1      20.888   1.182  48.814  1.00  0.00     0.117 N 
HETATM   24  H8  UNL     1      20.827   2.120  48.349  1.00  0.00     0.317 HD
HETATM   25  H9  UNL     1      19.950   0.744  48.708  1.00  0.00     0.317 HD
ENDBRANCH   5  23
TORSDOF 5
ENDMDL
MODEL 8
REMARK VINA RESULT:      -6.5      8.582     11.410
REMARK  5 active torsions:
REMARK  status: ('A' for Active; 'I' for Inactive)
REMARK    1  A    between atoms: O1_2  and  C2_3 
REMARK    2  A    between atoms: C2_3  and  C3_4 
REMARK    3  A    between atoms: C3_4  and  O2_22 
REMARK    4  A    between atoms: C4_5  and  C5_6 
REMARK    5  A    between atoms: C7_10  and  N3_11 
ROOT
HETATM    1  C5  UNL     1      30.313   6.807  47.635  1.00  0.00     0.066 C 
HETATM    2  N1  UNL     1      30.226   8.136  47.624  1.00  0.00    -0.242 NA
HETATM    3  C6  UNL     1      30.641   9.022  46.553  1.00  0.00     0.231 C 
HETATM    4  N2  UNL     1      31.418   8.720  45.566  1.00  0.00    -0.234 NA
HETATM    5  C7  UNL     1      32.576   7.845  45.590  1.00  0.00     0.285 C 
HETATM    6  C8  UNL     1      33.680   8.408  46.354  1.00  0.00     0.042 C 
HETATM    7  C9  UNL     1      34.692   8.531  47.211  1.00  0.00     0.000 C 
HETATM    8  C10 UNL     1      35.464   7.792  48.191  1.00  0.00    -0.003 C 
HETATM    9  C11 UNL     1      35.505   6.575  48.706  1.00  0.00    -0.007 C 
HETATM   10  C12 UNL     1      34.423   5.758  48.056  1.00  0.00     0.105 C 
HETATM   11 CL1  UNL     1      34.958   4.032  48.098  1.00  0.00    -0.121 Cl
HETATM   12  C13 UNL     1      33.242   5.835  48.957  1.00  0.00     0.029 C 
HETATM   13  C14 UNL     1      32.015   5.221  48.326  1.00  0.00     0.042 C 
HETATM   14  C15 UNL     1      31.612   6.184  47.227  1.00  0.00    -0.028 C 
HETATM   15  C16 UNL     1      32.224   6.495  46.100  1.00  0.00     0.052 C 
ENDROOT
BRANCH   1  16
HETATM   16  C4  UNL     1      29.252   5.865  48.052  1.00  0.00     0.066 C 
HETATM   17  C3  UNL     1      28.034   5.562  48.457  1.00  0.00     0.071 C 
BRANCH  17  18
HETATM   18  C2  UNL     1      26.827   6.353  48.763  1.00  0.00     0.231 C 
BRANCH  18  19
HETATM   19  O1  UNL     1      26.991   7.570  49.318  1.00  0.00    -0.390 OA
HETATM   20  C1  UNL     1      26.036   8.138  50.083  1.00  0.00     0.201 C 
ENDBRANCH  18  19
ENDBRANCH  17  18
BRANCH  17  21
HETATM   21  O2  UNL     1      27.686   4.214  48.688  1.00  0.00    -0.358 OA
HETATM   22  C17 UNL     1      26.641   3.848  49.555  1.00  0.00     0.209 C 
ENDBRANCH  17  21
ENDBRANCH   1  16
BRANCH   5  23
HETATM   23  N3  UNL     1      33.008   7.722  44.185  1.00  0.00     0.117 N 
HETATM   24  H8  UNL     1      32.490   6.885  43.823  1.00  0.00     0.317 HD
HETATM   25  H9  UNL     1      34.014   7.457  44.199  1.00  0.00     0.317 HD
ENDBRANCH   5  23
TORSDOF 5
ENDMDL
MODEL 9
REMARK VINA RESULT:      -6.2      5.114      6.938
REMARK  5 active torsions:
REMARK  status: ('A' for Active; 'I' for Inactive)
REMARK    1  A    between atoms: O1_2  and  C2_3 
REMARK    2  A    between atoms: C2_3  and  C3_4 
REMARK    3  A    between atoms: C3_4  and  O2_22 
REMARK    4  A    between atoms: C4_5  and  C5_6 
REMARK    5  A    between atoms: C7_10  and  N3_11 
ROOT
HETATM    1  C5  UNL     1      26.390   4.784  49.409  1.00  0.00     0.066 C 
HETATM    2  N1  UNL     1      27.392   4.529  48.570  1.00  0.00    -0.242 NA
HETATM    3  C6  UNL     1      28.570   5.347  48.354  1.00  0.00     0.231 C 
HETATM    4  N2  UNL     1      28.720   6.582  48.703  1.00  0.00    -0.234 NA
HETATM    5  C7  UNL     1      27.717   7.631  48.691  1.00  0.00     0.285 C 
HETATM    6  C8  UNL     1      27.325   8.008  47.340  1.00  0.00     0.042 C 
HETATM    7  C9  UNL     1      26.582   8.320  46.280  1.00  0.00     0.000 C 
HETATM    8  C10 UNL     1      25.208   8.492  45.850  1.00  0.00    -0.003 C 
HETATM    9  C11 UNL     1      23.992   8.407  46.362  1.00  0.00    -0.007 C 
HETATM   10  C12 UNL     1      24.123   8.019  47.809  1.00  0.00     0.105 C 
HETATM   11 CL1  UNL     1      22.677   8.677  48.671  1.00  0.00    -0.121 Cl
HETATM   12  C13 UNL     1      23.984   6.540  47.861  1.00  0.00     0.029 C 
HETATM   13  C14 UNL     1      24.294   5.996  49.235  1.00  0.00     0.042 C 
HETATM   14  C15 UNL     1      25.793   6.157  49.394  1.00  0.00    -0.028 C 
HETATM   15  C16 UNL     1      26.526   7.250  49.493  1.00  0.00     0.052 C 
ENDROOT
BRANCH   1  16
HETATM   16  C4  UNL     1      25.768   3.824  50.347  1.00  0.00     0.066 C 
HETATM   17  C3  UNL     1      25.797   2.821  51.203  1.00  0.00     0.071 C 
BRANCH  17  18
HETATM   18  C2  UNL     1      26.869   1.960  51.739  1.00  0.00     0.231 C 
BRANCH  18  19
HETATM   19  O1  UNL     1      27.969   2.556  52.239  1.00  0.00    -0.390 OA
HETATM   20  C1  UNL     1      28.406   2.309  53.491  1.00  0.00     0.201 C 
ENDBRANCH  18  19
ENDBRANCH  17  18
BRANCH  17  21
HETATM   21  O2  UNL     1      24.601   2.377  51.806  1.00  0.00    -0.358 OA
HETATM   22  C17 UNL     1      23.518   1.891  51.052  1.00  0.00     0.209 C 
ENDBRANCH  17  21
ENDBRANCH   1  16
BRANCH   5  23
HETATM   23  N3  UNL     1      28.359   8.799  49.323  1.00  0.00     0.117 N 
HETATM   24  H8  UNL     1      27.646   9.564  49.248  1.00  0.00     0.317 HD
HETATM   25  H9  UNL     1      29.151   9.079  48.709  1.00  0.00     0.317 HD
ENDBRANCH   5  23
TORSDOF 5
ENDMDL
