MODEL 1
REMARK VINA RESULT:     -11.6      0.000      0.000
REMARK  1 active torsions:
REMARK  status: ('A' for Active; 'I' for Inactive)
REMARK    1  A    between atoms: C12_16  and  O1_17 
ROOT
HETATM    1  C1  UNL     1      26.666   3.054  49.350  1.00  0.00     0.037 C 
HETATM    2  C2  UNL     1      26.031   3.587  50.619  1.00  0.00     0.112 C 
HETATM    3  N1  UNL     1      26.250   2.820  51.752  1.00  0.00    -0.369 N 
HETATM    4  C3  UNL     1      26.762   2.112  52.791  1.00  0.00     0.112 C 
HETATM    5  N2  UNL     1      28.014   2.108  52.494  1.00  0.00    -0.255 NA
HETATM    6  C4  UNL     1      28.873   1.359  53.502  1.00  0.00     0.301 C 
HETATM    7  N3  UNL     1      28.162   0.043  53.523  1.00  0.00    -0.254 NA
HETATM    8  C5  UNL     1      26.894  -0.015  53.774  1.00  0.00     0.116 C 
HETATM    9  N4  UNL     1      25.802  -0.920  53.897  1.00  0.00    -0.343 N 
HETATM   10  C6  UNL     1      24.708  -0.041  53.972  1.00  0.00     0.041 C 
HETATM   11  C7  UNL     1      24.890   1.229  53.948  1.00  0.00     0.023 C 
HETATM   12  C8  UNL     1      26.366   1.375  54.045  1.00  0.00     0.149 C 
HETATM   13  C9  UNL     1      23.329  -0.369  53.894  1.00  0.00    -0.009 A 
HETATM   14  C10 UNL     1      22.705  -1.323  54.621  1.00  0.00     0.016 A 
HETATM   15  C11 UNL     1      21.372  -1.433  54.281  1.00  0.00     0.038 A 
HETATM   16  C12 UNL     1      20.750  -0.659  53.311  1.00  0.00     0.076 A 
HETATM   17  C13 UNL     1      21.375   0.309  52.569  1.00  0.00     0.008 A 
HETATM   18  C14 UNL     1      22.705   0.427  52.901  1.00  0.00     0.029 A 
HETATM   19  C15 UNL     1      20.988   1.216  51.535  1.00  0.00    -0.023 C 
HETATM   20  C16 UNL     1      19.997   1.785  52.296  1.00  0.00     0.012 C 
HETATM   21  C17 UNL     1      20.384   3.068  52.573  1.00  0.00     0.001 C 
HETATM   22  C18 UNL     1      21.245   3.860  51.850  1.00  0.00     0.000 C 
HETATM   23  C19 UNL     1      22.510   4.371  51.722  1.00  0.00     0.001 C 
HETATM   24  C20 UNL     1      23.791   3.933  51.462  1.00  0.00     0.009 C 
HETATM   25  C21 UNL     1      24.517   3.478  50.348  1.00  0.00    -0.036 C 
HETATM   26  C22 UNL     1      23.491   3.107  49.523  1.00  0.00     0.009 C 
HETATM   27  C23 UNL     1      22.700   2.001  49.858  1.00  0.00     0.002 C 
HETATM   28  C24 UNL     1      21.546   1.338  50.280  1.00  0.00     0.012 C 
HETATM   29  H5  UNL     1      25.352   2.533  52.190  1.00  0.00     0.161 HD
HETATM   30  H8  UNL     1      25.844  -1.920  53.922  1.00  0.00     0.167 HD
ENDROOT
BRANCH  16  31
HETATM   31  O1  UNL     1      19.423  -0.734  52.938  1.00  0.00    -0.360 OA
HETATM   32  H13 UNL     1      18.773  -0.103  53.368  1.00  0.00     0.217 HD
ENDBRANCH  16  31
TORSDOF 1
ENDMDL
MODEL 2
REMARK VINA RESULT:     -10.3      2.262      5.116
REMARK  1 active torsions:
REMARK  status: ('A' for Active; 'I' for Inactive)
REMARK    1  A    between atoms: C12_16  and  O1_17 
ROOT
HETATM    1  C1  UNL     1      21.091   0.312  54.666  1.00  0.00     0.037 C 
HETATM    2  C2  UNL     1      21.694  -0.227  53.383  1.00  0.00     0.112 C 
HETATM    3  N1  UNL     1      23.059  -0.035  53.250  1.00  0.00    -0.369 N 
HETATM    4  C3  UNL     1      24.409   0.002  53.388  1.00  0.00     0.112 C 
HETATM    5  N2  UNL     1      24.550  -0.481  54.572  1.00  0.00    -0.255 NA
HETATM    6  C4  UNL     1      26.000  -0.560  55.026  1.00  0.00     0.301 C 
HETATM    7  N3  UNL     1      26.421   0.857  54.802  1.00  0.00    -0.254 NA
HETATM    8  C5  UNL     1      26.267   1.414  53.644  1.00  0.00     0.116 C 
HETATM    9  N4  UNL     1      26.461   2.633  52.936  1.00  0.00    -0.343 N 
HETATM   10  C6  UNL     1      25.772   2.382  51.737  1.00  0.00     0.041 C 
HETATM   11  C7  UNL     1      25.209   1.248  51.535  1.00  0.00     0.023 C 
HETATM   12  C8  UNL     1      25.673   0.416  52.676  1.00  0.00     0.149 C 
HETATM   13  C9  UNL     1      25.439   3.315  50.719  1.00  0.00    -0.009 A 
HETATM   14  C10 UNL     1      26.300   4.175  50.129  1.00  0.00     0.016 A 
HETATM   15  C11 UNL     1      25.662   4.985  49.212  1.00  0.00     0.038 A 
HETATM   16  C12 UNL     1      24.304   4.923  48.930  1.00  0.00     0.076 A 
HETATM   17  C13 UNL     1      23.425   4.054  49.524  1.00  0.00     0.008 A 
HETATM   18  C14 UNL     1      24.052   3.242  50.440  1.00  0.00     0.029 A 
HETATM   19  C15 UNL     1      22.024   3.793  49.431  1.00  0.00    -0.023 C 
HETATM   20  C16 UNL     1      22.080   3.543  48.082  1.00  0.00     0.012 C 
HETATM   21  C17 UNL     1      21.822   2.211  47.905  1.00  0.00     0.001 C 
HETATM   22  C18 UNL     1      21.114   1.375  48.736  1.00  0.00     0.000 C 
HETATM   23  C19 UNL     1      21.155   0.405  49.704  1.00  0.00     0.001 C 
HETATM   24  C20 UNL     1      21.540   0.259  51.019  1.00  0.00     0.009 C 
HETATM   25  C21 UNL     1      21.057   0.643  52.282  1.00  0.00    -0.036 C 
HETATM   26  C22 UNL     1      20.235   1.677  51.925  1.00  0.00     0.009 C 
HETATM   27  C23 UNL     1      20.792   2.862  51.424  1.00  0.00     0.002 C 
HETATM   28  C24 UNL     1      21.100   3.816  50.454  1.00  0.00     0.012 C 
HETATM   29  H5  UNL     1      23.281   0.484  52.376  1.00  0.00     0.161 HD
HETATM   30  H8  UNL     1      26.967   3.440  53.246  1.00  0.00     0.167 HD
ENDROOT
BRANCH  16  31
HETATM   31  O1  UNL     1      23.625   5.711  48.023  1.00  0.00    -0.360 OA
HETATM   32  H13 UNL     1      22.622   5.715  48.057  1.00  0.00     0.217 HD
ENDBRANCH  16  31
TORSDOF 1
ENDMDL
MODEL 3
REMARK VINA RESULT:      -9.7      3.262      5.790
REMARK  1 active torsions:
REMARK  status: ('A' for Active; 'I' for Inactive)
REMARK    1  A    between atoms: C12_16  and  O1_17 
ROOT
HETATM    1  C1  UNL     1      20.889   6.076  50.334  1.00  0.00     0.037 C 
HETATM    2  C2  UNL     1      21.637   4.985  49.592  1.00  0.00     0.112 C 
HETATM    3  N1  UNL     1      21.028   3.741  49.607  1.00  0.00    -0.369 N 
HETATM    4  C3  UNL     1      20.193   2.676  49.500  1.00  0.00     0.112 C 
HETATM    5  N2  UNL     1      19.102   3.253  49.136  1.00  0.00    -0.255 NA
HETATM    6  C4  UNL     1      17.943   2.288  48.937  1.00  0.00     0.301 C 
HETATM    7  N3  UNL     1      17.951   1.595  50.263  1.00  0.00    -0.254 NA
HETATM    8  C5  UNL     1      19.029   1.031  50.704  1.00  0.00     0.116 C 
HETATM    9  N4  UNL     1      19.561   0.307  51.807  1.00  0.00    -0.343 N 
HETATM   10  C6  UNL     1      20.934   0.297  51.509  1.00  0.00     0.041 C 
HETATM   11  C7  UNL     1      21.371   0.842  50.434  1.00  0.00     0.023 C 
HETATM   12  C8  UNL     1      20.133   1.180  49.683  1.00  0.00     0.149 C 
HETATM   13  C9  UNL     1      22.000  -0.103  52.358  1.00  0.00    -0.009 A 
HETATM   14  C10 UNL     1      22.066  -1.267  53.042  1.00  0.00     0.016 A 
HETATM   15  C11 UNL     1      23.207  -1.340  53.816  1.00  0.00     0.038 A 
HETATM   16  C12 UNL     1      24.166  -0.339  53.883  1.00  0.00     0.076 A 
HETATM   17  C13 UNL     1      24.107   0.845  53.194  1.00  0.00     0.008 A 
HETATM   18  C14 UNL     1      22.973   0.925  52.419  1.00  0.00     0.029 A 
HETATM   19  C15 UNL     1      24.925   2.011  53.090  1.00  0.00    -0.023 C 
HETATM   20  C16 UNL     1      26.028   1.298  52.690  1.00  0.00     0.012 C 
HETATM   21  C17 UNL     1      26.275   1.631  51.386  1.00  0.00     0.001 C 
HETATM   22  C18 UNL     1      25.924   2.791  50.734  1.00  0.00     0.000 C 
HETATM   23  C19 UNL     1      25.055   3.415  49.878  1.00  0.00     0.001 C 
HETATM   24  C20 UNL     1      23.733   3.802  49.832  1.00  0.00     0.009 C 
HETATM   25  C21 UNL     1      22.934   4.807  50.406  1.00  0.00    -0.036 C 
HETATM   26  C22 UNL     1      23.705   5.145  51.484  1.00  0.00     0.009 C 
HETATM   27  C23 UNL     1      23.867   4.231  52.533  1.00  0.00     0.002 C 
HETATM   28  C24 UNL     1      24.552   3.316  53.333  1.00  0.00     0.012 C 
HETATM   29  H5  UNL     1      21.664   3.017  49.998  1.00  0.00     0.161 HD
HETATM   30  H8  UNL     1      19.053  -0.082  52.578  1.00  0.00     0.167 HD
ENDROOT
BRANCH  16  31
HETATM   31  O1  UNL     1      25.319  -0.368  54.642  1.00  0.00    -0.360 OA
HETATM   32  H13 UNL     1      25.820   0.491  54.775  1.00  0.00     0.217 HD
ENDBRANCH  16  31
TORSDOF 1
ENDMDL
MODEL 4
REMARK VINA RESULT:      -9.5      3.339      6.013
REMARK  1 active torsions:
REMARK  status: ('A' for Active; 'I' for Inactive)
REMARK    1  A    between atoms: C12_16  and  O1_17 
ROOT
HETATM    1  C1  UNL     1      17.811   4.059  51.524  1.00  0.00     0.037 C 
HETATM    2  C2  UNL     1      18.651   3.205  50.593  1.00  0.00     0.112 C 
HETATM    3  N1  UNL     1      18.981   1.953  51.083  1.00  0.00    -0.369 N 
HETATM    4  C3  UNL     1      18.999   0.694  51.591  1.00  0.00     0.112 C 
HETATM    5  N2  UNL     1      17.757   0.528  51.884  1.00  0.00    -0.255 NA
HETATM    6  C4  UNL     1      17.455  -0.831  52.498  1.00  0.00     0.301 C 
HETATM    7  N3  UNL     1      18.439  -0.831  53.625  1.00  0.00    -0.254 NA
HETATM    8  C5  UNL     1      19.697  -0.628  53.400  1.00  0.00     0.116 C 
HETATM    9  N4  UNL     1      20.962  -0.517  54.043  1.00  0.00    -0.343 N 
HETATM   10  C6  UNL     1      21.776  -0.050  52.997  1.00  0.00     0.041 C 
HETATM   11  C7  UNL     1      21.290   0.129  51.824  1.00  0.00     0.023 C 
HETATM   12  C8  UNL     1      19.925  -0.451  51.916  1.00  0.00     0.149 C 
HETATM   13  C9  UNL     1      23.103   0.447  53.091  1.00  0.00    -0.009 A 
HETATM   14  C10 UNL     1      24.132  -0.171  53.714  1.00  0.00     0.016 A 
HETATM   15  C11 UNL     1      25.283   0.590  53.671  1.00  0.00     0.038 A 
HETATM   16  C12 UNL     1      25.372   1.835  53.065  1.00  0.00     0.076 A 
HETATM   17  C13 UNL     1      24.333   2.469  52.433  1.00  0.00     0.008 A 
HETATM   18  C14 UNL     1      23.181   1.718  52.469  1.00  0.00     0.029 A 
HETATM   19  C15 UNL     1      24.154   3.714  51.756  1.00  0.00    -0.023 C 
HETATM   20  C16 UNL     1      25.157   3.459  50.854  1.00  0.00     0.012 C 
HETATM   21  C17 UNL     1      24.570   3.292  49.630  1.00  0.00     0.001 C 
HETATM   22  C18 UNL     1      23.364   3.795  49.201  1.00  0.00     0.000 C 
HETATM   23  C19 UNL     1      22.035   3.559  48.965  1.00  0.00     0.001 C 
HETATM   24  C20 UNL     1      20.884   3.274  49.668  1.00  0.00     0.009 C 
HETATM   25  C21 UNL     1      19.989   3.966  50.501  1.00  0.00    -0.036 C 
HETATM   26  C22 UNL     1      20.774   5.020  50.881  1.00  0.00     0.009 C 
HETATM   27  C23 UNL     1      21.876   4.795  51.717  1.00  0.00     0.002 C 
HETATM   28  C24 UNL     1      23.229   4.694  52.045  1.00  0.00     0.012 C 
HETATM   29  H5  UNL     1      20.012   1.813  51.093  1.00  0.00     0.161 HD
HETATM   30  H8  UNL     1      21.177  -0.730  54.998  1.00  0.00     0.167 HD
ENDROOT
BRANCH  16  31
HETATM   31  O1  UNL     1      26.499   2.629  52.999  1.00  0.00    -0.360 OA
HETATM   32  H13 UNL     1      26.767   2.999  52.106  1.00  0.00     0.217 HD
ENDBRANCH  16  31
TORSDOF 1
ENDMDL
MODEL 5
REMARK VINA RESULT:      -9.2      3.497      6.125
REMARK  1 active torsions:
REMARK  status: ('A' for Active; 'I' for Inactive)
REMARK    1  A    between atoms: C12_16  and  O1_17 
ROOT
HETATM    1  C1  UNL     1      23.018   7.390  48.465  1.00  0.00     0.037 C 
HETATM    2  C2  UNL     1      23.753   6.122  48.077  1.00  0.00     0.112 C 
HETATM    3  N1  UNL     1      22.942   5.067  47.694  1.00  0.00    -0.369 N 
HETATM    4  C3  UNL     1      22.040   4.235  47.112  1.00  0.00     0.112 C 
HETATM    5  N2  UNL     1      21.428   5.047  46.324  1.00  0.00    -0.255 NA
HETATM    6  C4  UNL     1      20.320   4.388  45.516  1.00  0.00     0.301 C 
HETATM    7  N3  UNL     1      19.527   3.766  46.621  1.00  0.00    -0.254 NA
HETATM    8  C5  UNL     1      20.094   2.973  47.472  1.00  0.00     0.116 C 
HETATM    9  N4  UNL     1      19.844   2.183  48.628  1.00  0.00    -0.343 N 
HETATM   10  C6  UNL     1      21.145   1.826  49.020  1.00  0.00     0.041 C 
HETATM   11  C7  UNL     1      22.159   2.205  48.333  1.00  0.00     0.023 C 
HETATM   12  C8  UNL     1      21.554   2.808  47.116  1.00  0.00     0.149 C 
HETATM   13  C9  UNL     1      21.544   1.209  50.236  1.00  0.00    -0.009 A 
HETATM   14  C10 UNL     1      20.999   0.091  50.766  1.00  0.00     0.016 A 
HETATM   15  C11 UNL     1      21.573  -0.229  51.980  1.00  0.00     0.038 A 
HETATM   16  C12 UNL     1      22.584   0.508  52.581  1.00  0.00     0.076 A 
HETATM   17  C13 UNL     1      23.141   1.643  52.051  1.00  0.00     0.008 A 
HETATM   18  C14 UNL     1      22.576   1.970  50.840  1.00  0.00     0.029 A 
HETATM   19  C15 UNL     1      24.154   2.569  52.449  1.00  0.00    -0.023 C 
HETATM   20  C16 UNL     1      25.113   1.593  52.561  1.00  0.00     0.012 C 
HETATM   21  C17 UNL     1      26.027   1.805  51.566  1.00  0.00     0.001 C 
HETATM   22  C18 UNL     1      26.314   2.989  50.928  1.00  0.00     0.000 C 
HETATM   23  C19 UNL     1      26.137   3.774  49.819  1.00  0.00     0.001 C 
HETATM   24  C20 UNL     1      25.133   4.472  49.183  1.00  0.00     0.009 C 
HETATM   25  C21 UNL     1      24.415   5.662  49.391  1.00  0.00    -0.036 C 
HETATM   26  C22 UNL     1      24.626   5.843  50.731  1.00  0.00     0.009 C 
HETATM   27  C23 UNL     1      24.045   4.957  51.648  1.00  0.00     0.002 C 
HETATM   28  C24 UNL     1      24.025   3.934  52.596  1.00  0.00     0.012 C 
HETATM   29  H5  UNL     1      23.122   4.224  48.277  1.00  0.00     0.161 HD
HETATM   30  H8  UNL     1      18.953   1.960  49.029  1.00  0.00     0.167 HD
ENDROOT
BRANCH  16  31
HETATM   31  O1  UNL     1      23.186   0.227  53.791  1.00  0.00    -0.360 OA
HETATM   32  H13 UNL     1      22.635  -0.213  54.503  1.00  0.00     0.217 HD
ENDBRANCH  16  31
TORSDOF 1
ENDMDL
MODEL 6
REMARK VINA RESULT:      -8.8      1.977      2.880
REMARK  1 active torsions:
REMARK  status: ('A' for Active; 'I' for Inactive)
REMARK    1  A    between atoms: C12_16  and  O1_17 
ROOT
HETATM    1  C1  UNL     1      26.392   2.911  49.716  1.00  0.00     0.037 C 
HETATM    2  C2  UNL     1      25.395   3.570  50.650  1.00  0.00     0.112 C 
HETATM    3  N1  UNL     1      24.889   2.747  51.643  1.00  0.00    -0.369 N 
HETATM    4  C3  UNL     1      24.690   1.902  52.687  1.00  0.00     0.112 C 
HETATM    5  N2  UNL     1      25.900   1.560  52.962  1.00  0.00    -0.255 NA
HETATM    6  C4  UNL     1      26.005   0.581  54.122  1.00  0.00     0.301 C 
HETATM    7  N3  UNL     1      25.074  -0.488  53.645  1.00  0.00    -0.254 NA
HETATM    8  C5  UNL     1      23.856  -0.201  53.313  1.00  0.00     0.116 C 
HETATM    9  N4  UNL     1      22.649  -0.772  52.822  1.00  0.00    -0.343 N 
HETATM   10  C6  UNL     1      21.882   0.372  52.544  1.00  0.00     0.041 C 
HETATM   11  C7  UNL     1      22.348   1.543  52.784  1.00  0.00     0.023 C 
HETATM   12  C8  UNL     1      23.607   1.274  53.528  1.00  0.00     0.149 C 
HETATM   13  C9  UNL     1      20.654   0.439  51.833  1.00  0.00    -0.009 A 
HETATM   14  C10 UNL     1      19.564  -0.323  52.075  1.00  0.00     0.016 A 
HETATM   15  C11 UNL     1      18.547  -0.053  51.182  1.00  0.00     0.038 A 
HETATM   16  C12 UNL     1      18.634   0.883  50.161  1.00  0.00     0.076 A 
HETATM   17  C13 UNL     1      19.737   1.659  49.909  1.00  0.00     0.008 A 
HETATM   18  C14 UNL     1      20.756   1.398  50.795  1.00  0.00     0.029 A 
HETATM   19  C15 UNL     1      20.087   2.659  48.952  1.00  0.00    -0.023 C 
HETATM   20  C16 UNL     1      19.024   3.462  49.285  1.00  0.00     0.012 C 
HETATM   21  C17 UNL     1      19.533   4.582  49.884  1.00  0.00     0.001 C 
HETATM   22  C18 UNL     1      20.788   5.123  49.724  1.00  0.00     0.000 C 
HETATM   23  C19 UNL     1      22.053   5.268  50.229  1.00  0.00     0.001 C 
HETATM   24  C20 UNL     1      23.169   4.500  50.486  1.00  0.00     0.009 C 
HETATM   25  C21 UNL     1      24.192   3.888  49.741  1.00  0.00    -0.036 C 
HETATM   26  C22 UNL     1      23.597   3.833  48.511  1.00  0.00     0.009 C 
HETATM   27  C23 UNL     1      22.503   2.980  48.309  1.00  0.00     0.002 C 
HETATM   28  C24 UNL     1      21.165   2.651  48.092  1.00  0.00     0.012 C 
HETATM   29  H5  UNL     1      23.850   2.709  51.606  1.00  0.00     0.161 HD
HETATM   30  H8  UNL     1      22.438  -1.746  52.718  1.00  0.00     0.167 HD
ENDROOT
BRANCH  16  31
HETATM   31  O1  UNL     1      17.645   1.185  49.247  1.00  0.00    -0.360 OA
HETATM   32  H13 UNL     1      17.919   1.399  48.306  1.00  0.00     0.217 HD
ENDBRANCH  16  31
TORSDOF 1
ENDMDL
MODEL 7
REMARK VINA RESULT:      -8.5      7.444     10.347
REMARK  1 active torsions:
REMARK  status: ('A' for Active; 'I' for Inactive)
REMARK    1  A    between atoms: C12_16  and  O1_17 
ROOT
HETATM    1  C1  UNL     1      33.623   9.391  45.221  1.00  0.00     0.037 C 
HETATM    2  C2  UNL     1      33.256   9.426  46.693  1.00  0.00     0.112 C 
HETATM    3  N1  UNL     1      33.073   8.186  47.281  1.00  0.00    -0.369 N 
HETATM    4  C3  UNL     1      33.179   6.918  47.757  1.00  0.00     0.112 C 
HETATM    5  N2  UNL     1      34.304   6.557  47.248  1.00  0.00    -0.255 NA
HETATM    6  C4  UNL     1      34.703   5.134  47.608  1.00  0.00     0.301 C 
HETATM    7  N3  UNL     1      33.476   4.400  47.169  1.00  0.00    -0.254 NA
HETATM    8  C5  UNL     1      32.310   4.743  47.613  1.00  0.00     0.116 C 
HETATM    9  N4  UNL     1      30.925   4.429  47.526  1.00  0.00    -0.343 N 
HETATM   10  C6  UNL     1      30.342   5.509  48.210  1.00  0.00     0.041 C 
HETATM   11  C7  UNL     1      31.075   6.422  48.732  1.00  0.00     0.023 C 
HETATM   12  C8  UNL     1      32.456   5.889  48.588  1.00  0.00     0.149 C 
HETATM   13  C9  UNL     1      28.965   5.853  48.269  1.00  0.00    -0.009 A 
HETATM   14  C10 UNL     1      27.957   5.011  48.590  1.00  0.00     0.016 A 
HETATM   15  C11 UNL     1      26.728   5.634  48.512  1.00  0.00     0.038 A 
HETATM   16  C12 UNL     1      26.550   6.962  48.148  1.00  0.00     0.076 A 
HETATM   17  C13 UNL     1      27.567   7.822  47.820  1.00  0.00     0.008 A 
HETATM   18  C14 UNL     1      28.796   7.209  47.896  1.00  0.00     0.029 A 
HETATM   19  C15 UNL     1      27.660   9.188  47.414  1.00  0.00    -0.023 C 
HETATM   20  C16 UNL     1      27.009   9.647  48.532  1.00  0.00     0.012 C 
HETATM   21  C17 UNL     1      27.923  10.338  49.280  1.00  0.00     0.001 C 
HETATM   22  C18 UNL     1      29.070  10.958  48.842  1.00  0.00     0.000 C 
HETATM   23  C19 UNL     1      30.432  10.903  48.711  1.00  0.00     0.001 C 
HETATM   24  C20 UNL     1      31.387  10.178  48.029  1.00  0.00     0.009 C 
HETATM   25  C21 UNL     1      31.865  10.089  46.711  1.00  0.00    -0.036 C 
HETATM   26  C22 UNL     1      30.808  10.629  46.031  1.00  0.00     0.009 C 
HETATM   27  C23 UNL     1      29.593   9.932  45.976  1.00  0.00     0.002 C 
HETATM   28  C24 UNL     1      28.253   9.680  46.271  1.00  0.00     0.012 C 
HETATM   29  H5  UNL     1      32.128   8.111  47.711  1.00  0.00     0.161 HD
HETATM   30  H8  UNL     1      30.511   3.631  47.084  1.00  0.00     0.167 HD
ENDROOT
BRANCH  16  31
HETATM   31  O1  UNL     1      25.344   7.625  48.056  1.00  0.00    -0.360 OA
HETATM   32  H13 UNL     1      25.358   8.615  47.898  1.00  0.00     0.217 HD
ENDBRANCH  16  31
TORSDOF 1
ENDMDL
MODEL 8
REMARK VINA RESULT:      -8.5      2.806      4.337
REMARK  1 active torsions:
REMARK  status: ('A' for Active; 'I' for Inactive)
REMARK    1  A    between atoms: C12_16  and  O1_17 
ROOT
HETATM    1  C1  UNL     1      26.792   3.736  49.083  1.00  0.00     0.037 C 
HETATM    2  C2  UNL     1      26.197   4.527  50.232  1.00  0.00     0.112 C 
HETATM    3  N1  UNL     1      25.478   3.778  51.149  1.00  0.00    -0.369 N 
HETATM    4  C3  UNL     1      25.036   2.884  52.071  1.00  0.00     0.112 C 
HETATM    5  N2  UNL     1      26.032   2.072  52.124  1.00  0.00    -0.255 NA
HETATM    6  C4  UNL     1      25.824   0.921  53.098  1.00  0.00     0.301 C 
HETATM    7  N3  UNL     1      24.520   0.387  52.596  1.00  0.00    -0.254 NA
HETATM    8  C5  UNL     1      23.492   1.165  52.480  1.00  0.00     0.116 C 
HETATM    9  N4  UNL     1      22.128   1.189  52.078  1.00  0.00    -0.343 N 
HETATM   10  C6  UNL     1      21.851   2.567  52.082  1.00  0.00     0.041 C 
HETATM   11  C7  UNL     1      22.752   3.411  52.430  1.00  0.00     0.023 C 
HETATM   12  C8  UNL     1      23.854   2.556  52.947  1.00  0.00     0.149 C 
HETATM   13  C9  UNL     1      20.702   3.220  51.563  1.00  0.00    -0.009 A 
HETATM   14  C10 UNL     1      19.419   2.888  51.833  1.00  0.00     0.016 A 
HETATM   15  C11 UNL     1      18.531   3.682  51.137  1.00  0.00     0.038 A 
HETATM   16  C12 UNL     1      18.908   4.696  50.268  1.00  0.00     0.076 A 
HETATM   17  C13 UNL     1      20.206   5.038  49.987  1.00  0.00     0.008 A 
HETATM   18  C14 UNL     1      21.100   4.252  50.677  1.00  0.00     0.029 A 
HETATM   19  C15 UNL     1      20.853   6.000  49.153  1.00  0.00    -0.023 C 
HETATM   20  C16 UNL     1      20.213   7.061  49.745  1.00  0.00     0.012 C 
HETATM   21  C17 UNL     1      21.158   7.774  50.431  1.00  0.00     0.001 C 
HETATM   22  C18 UNL     1      22.510   7.829  50.186  1.00  0.00     0.000 C 
HETATM   23  C19 UNL     1      23.763   7.393  50.530  1.00  0.00     0.001 C 
HETATM   24  C20 UNL     1      24.505   6.232  50.514  1.00  0.00     0.009 C 
HETATM   25  C21 UNL     1      25.155   5.438  49.554  1.00  0.00    -0.036 C 
HETATM   26  C22 UNL     1      24.505   5.844  48.421  1.00  0.00     0.009 C 
HETATM   27  C23 UNL     1      23.154   5.515  48.244  1.00  0.00     0.002 C 
HETATM   28  C24 UNL     1      21.782   5.757  48.164  1.00  0.00     0.012 C 
HETATM   29  H5  UNL     1      24.507   4.137  51.248  1.00  0.00     0.161 HD
HETATM   30  H8  UNL     1      21.546   0.404  51.858  1.00  0.00     0.167 HD
ENDROOT
BRANCH  16  31
HETATM   31  O1  UNL     1      18.056   5.513  49.552  1.00  0.00    -0.360 OA
HETATM   32  H13 UNL     1      18.328   5.786  48.626  1.00  0.00     0.217 HD
ENDBRANCH  16  31
TORSDOF 1
ENDMDL
MODEL 9
REMARK VINA RESULT:      -8.4     12.038     14.018
REMARK  1 active torsions:
REMARK  status: ('A' for Active; 'I' for Inactive)
REMARK    1  A    between atoms: C12_16  and  O1_17 
ROOT
HETATM    1  C1  UNL     1      30.231   9.685  44.402  1.00  0.00     0.037 C 
HETATM    2  C2  UNL     1      31.747   9.730  44.390  1.00  0.00     0.112 C 
HETATM    3  N1  UNL     1      32.357   8.745  43.631  1.00  0.00    -0.369 N 
HETATM    4  C3  UNL     1      32.781   7.895  42.660  1.00  0.00     0.112 C 
HETATM    5  N2  UNL     1      31.989   8.208  41.696  1.00  0.00    -0.255 NA
HETATM    6  C4  UNL     1      32.224   7.395  40.431  1.00  0.00     0.301 C 
HETATM    7  N3  UNL     1      32.122   6.011  40.990  1.00  0.00    -0.254 NA
HETATM    8  C5  UNL     1      32.861   5.648  41.988  1.00  0.00     0.116 C 
HETATM    9  N4  UNL     1      33.143   4.554  42.853  1.00  0.00    -0.343 N 
HETATM   10  C6  UNL     1      33.963   5.157  43.822  1.00  0.00     0.041 C 
HETATM   11  C7  UNL     1      34.276   6.397  43.729  1.00  0.00     0.023 C 
HETATM   12  C8  UNL     1      33.768   6.789  42.388  1.00  0.00     0.149 C 
HETATM   13  C9  UNL     1      34.387   4.606  45.060  1.00  0.00    -0.009 A 
HETATM   14  C10 UNL     1      34.959   3.392  45.226  1.00  0.00     0.016 A 
HETATM   15  C11 UNL     1      35.212   3.127  46.557  1.00  0.00     0.038 A 
HETATM   16  C12 UNL     1      34.916   3.998  47.595  1.00  0.00     0.076 A 
HETATM   17  C13 UNL     1      34.335   5.230  47.435  1.00  0.00     0.008 A 
HETATM   18  C14 UNL     1      34.079   5.504  46.112  1.00  0.00     0.029 A 
HETATM   19  C15 UNL     1      33.926   6.289  48.302  1.00  0.00    -0.023 C 
HETATM   20  C16 UNL     1      35.178   6.436  48.844  1.00  0.00     0.012 C 
HETATM   21  C17 UNL     1      35.661   7.647  48.430  1.00  0.00     0.001 C 
HETATM   22  C18 UNL     1      34.938   8.752  48.045  1.00  0.00     0.000 C 
HETATM   23  C19 UNL     1      34.449   9.509  47.013  1.00  0.00     0.001 C 
HETATM   24  C20 UNL     1      33.535   9.407  45.985  1.00  0.00     0.009 C 
HETATM   25  C21 UNL     1      32.137   9.413  45.847  1.00  0.00    -0.036 C 
HETATM   26  C22 UNL     1      31.765   9.088  47.123  1.00  0.00     0.009 C 
HETATM   27  C23 UNL     1      32.030   7.802  47.615  1.00  0.00     0.002 C 
HETATM   28  C24 UNL     1      32.668   6.845  48.404  1.00  0.00     0.012 C 
HETATM   29  H5  UNL     1      33.021   8.186  44.205  1.00  0.00     0.161 HD
HETATM   30  H8  UNL     1      32.822   3.610  42.760  1.00  0.00     0.167 HD
ENDROOT
BRANCH  16  31
HETATM   31  O1  UNL     1      35.150   3.775  48.937  1.00  0.00    -0.360 OA
HETATM   32  H13 UNL     1      35.427   4.553  49.506  1.00  0.00     0.217 HD
ENDBRANCH  16  31
TORSDOF 1
ENDMDL
