MODEL 1
REMARK VINA RESULT:      -7.4      0.000      0.000
REMARK  7 active torsions:
REMARK  status: ('A' for Active; 'I' for Inactive)
REMARK    1  A    between atoms: C3_3  and  N1_4 
REMARK    2  A    between atoms: C11_15  and  C12_16 
REMARK    3  A    between atoms: C13_17  and  N3_18 
REMARK    4  A    between atoms: N3_18  and  C14_19 
REMARK    5  A    between atoms: C14_19  and  C15_20 
REMARK    6  A    between atoms: C16_21  and  C17_22 
REMARK    7  A    between atoms: C19_24  and  O2_25 
ROOT
HETATM    1  C1  UNL     1      24.967   2.806  53.678  1.00  0.00     0.047 C 
HETATM    2  C2  UNL     1      25.155   2.953  52.401  1.00  0.00    -0.016 C 
HETATM    3  C3  UNL     1      26.411   2.491  51.830  1.00  0.00     0.080 C 
HETATM    4  C9  UNL     1      26.663   2.901  50.598  1.00  0.00     0.115 C 
HETATM    5  N2  UNL     1      25.700   3.159  49.799  1.00  0.00    -0.255 NA
HETATM    6  C10 UNL     1      24.438   3.639  50.283  1.00  0.00     0.129 C 
HETATM    7  C11 UNL     1      24.124   3.557  51.563  1.00  0.00    -0.009 C 
ENDROOT
BRANCH   7   8
HETATM    8  C12 UNL     1      22.874   4.001  52.154  1.00  0.00     0.030 C 
HETATM    9  C13 UNL     1      21.758   4.215  51.488  1.00  0.00     0.084 C 
BRANCH   9  10
HETATM   10  N3  UNL     1      21.226   4.165  50.194  1.00  0.00    -0.395 N 
HETATM   11  H9  UNL     1      21.490   4.821  49.410  1.00  0.00     0.159 HD
BRANCH  10  12
HETATM   12  C14 UNL     1      20.253   3.065  50.108  1.00  0.00     0.146 C 
BRANCH  12  13
HETATM   13  C15 UNL     1      20.870   1.795  49.680  1.00  0.00    -0.007 C 
HETATM   14  C16 UNL     1      21.390   0.676  50.215  1.00  0.00     0.005 C 
BRANCH  14  15
HETATM   15  C17 UNL     1      21.369   0.641  51.667  1.00  0.00    -0.045 C 
HETATM   16  C18 UNL     1      21.066   0.859  52.965  1.00  0.00     0.020 C 
HETATM   17  C19 UNL     1      22.032  -0.055  53.610  1.00  0.00     0.097 A 
HETATM   18  C21 UNL     1      23.376  -0.262  53.457  1.00  0.00     0.051 A 
HETATM   19  C22 UNL     1      22.655   0.208  52.302  1.00  0.00     0.045 A 
BRANCH  17  20
HETATM   20  O2  UNL     1      21.265  -1.316  53.776  1.00  0.00    -0.379 OA
HETATM   21  C20 UNL     1      21.780  -1.905  54.925  1.00  0.00     0.203 C 
ENDBRANCH  17  20
ENDBRANCH  14  15
ENDBRANCH  12  13
ENDBRANCH  10  12
ENDBRANCH   9  10
ENDBRANCH   7   8
BRANCH   3  22
HETATM   22  N1  UNL     1      27.306   1.653  52.559  1.00  0.00    -0.286 N 
HETATM   23  C4  UNL     1      28.213   2.263  53.373  1.00  0.00     0.101 A 
HETATM   24  C5  UNL     1      29.066   1.459  54.066  1.00  0.00     0.019 A 
HETATM   25  C6  UNL     1      29.050   0.071  53.981  1.00  0.00     0.026 A 
HETATM   26  C7  UNL     1      28.094  -0.451  53.131  1.00  0.00     0.079 A 
HETATM   27 BR1  UNL     1      28.055  -2.356  53.002  1.00  0.00    -0.045 Br
HETATM   28  C8  UNL     1      27.199   0.300  52.399  1.00  0.00     0.269 A 
HETATM   29  O1  UNL     1      26.344  -0.182  51.637  1.00  0.00    -0.266 OA
ENDBRANCH   3  22
TORSDOF 7
ENDMDL
MODEL 2
REMARK VINA RESULT:      -7.4      2.265      5.021
REMARK  7 active torsions:
REMARK  status: ('A' for Active; 'I' for Inactive)
REMARK    1  A    between atoms: C3_3  and  N1_4 
REMARK    2  A    between atoms: C11_15  and  C12_16 
REMARK    3  A    between atoms: C13_17  and  N3_18 
REMARK    4  A    between atoms: N3_18  and  C14_19 
REMARK    5  A    between atoms: C14_19  and  C15_20 
REMARK    6  A    between atoms: C16_21  and  C17_22 
REMARK    7  A    between atoms: C19_24  and  O2_25 
ROOT
HETATM    1  C1  UNL     1      23.859   0.961  51.630  1.00  0.00     0.047 C 
HETATM    2  C2  UNL     1      23.447   0.355  52.703  1.00  0.00    -0.016 C 
HETATM    3  C3  UNL     1      24.430  -0.010  53.711  1.00  0.00     0.080 C 
HETATM    4  C9  UNL     1      24.009  -0.851  54.642  1.00  0.00     0.115 C 
HETATM    5  N2  UNL     1      22.776  -0.876  54.971  1.00  0.00    -0.255 NA
HETATM    6  C10 UNL     1      21.745  -0.549  54.028  1.00  0.00     0.129 C 
HETATM    7  C11 UNL     1      22.030   0.061  52.892  1.00  0.00    -0.009 C 
ENDROOT
BRANCH   7   8
HETATM    8  C12 UNL     1      21.066   0.444  51.876  1.00  0.00     0.030 C 
HETATM    9  C13 UNL     1      20.487   1.625  51.792  1.00  0.00     0.084 C 
BRANCH   9  10
HETATM   10  N3  UNL     1      20.444   2.873  52.424  1.00  0.00    -0.395 N 
HETATM   11  H9  UNL     1      19.863   3.096  53.276  1.00  0.00     0.159 HD
BRANCH  10  12
HETATM   12  C14 UNL     1      21.330   3.810  51.715  1.00  0.00     0.146 C 
BRANCH  12  13
HETATM   13  C15 UNL     1      22.489   4.222  52.529  1.00  0.00    -0.007 C 
HETATM   14  C16 UNL     1      23.746   4.674  52.371  1.00  0.00     0.005 C 
BRANCH  14  15
HETATM   15  C17 UNL     1      24.154   4.830  50.986  1.00  0.00    -0.045 C 
HETATM   16  C18 UNL     1      24.171   5.082  49.659  1.00  0.00     0.020 C 
HETATM   17  C19 UNL     1      25.589   4.788  49.360  1.00  0.00     0.097 A 
HETATM   18  C21 UNL     1      26.415   3.739  49.662  1.00  0.00     0.051 A 
HETATM   19  C22 UNL     1      25.347   4.014  50.589  1.00  0.00     0.045 A 
BRANCH  17  20
HETATM   20  O2  UNL     1      26.254   6.109  49.489  1.00  0.00    -0.379 OA
HETATM   21  C20 UNL     1      27.107   6.193  48.394  1.00  0.00     0.203 C 
ENDBRANCH  17  20
ENDBRANCH  14  15
ENDBRANCH  12  13
ENDBRANCH  10  12
ENDBRANCH   9  10
ENDBRANCH   7   8
BRANCH   3  22
HETATM   22  N1  UNL     1      25.759   0.508  53.688  1.00  0.00    -0.286 N 
HETATM   23  C4  UNL     1      25.906   1.861  53.763  1.00  0.00     0.101 A 
HETATM   24  C5  UNL     1      27.177   2.351  53.739  1.00  0.00     0.019 A 
HETATM   25  C6  UNL     1      28.306   1.546  53.644  1.00  0.00     0.026 A 
HETATM   26  C7  UNL     1      28.053   0.189  53.574  1.00  0.00     0.079 A 
HETATM   27 BR1  UNL     1      29.593  -0.933  53.445  1.00  0.00    -0.045 Br
HETATM   28  C8  UNL     1      26.796  -0.377  53.593  1.00  0.00     0.269 A 
HETATM   29  O1  UNL     1      26.582  -1.600  53.528  1.00  0.00    -0.266 OA
ENDBRANCH   3  22
TORSDOF 7
ENDMDL
MODEL 3
REMARK VINA RESULT:      -7.4      4.079      7.281
REMARK  7 active torsions:
REMARK  status: ('A' for Active; 'I' for Inactive)
REMARK    1  A    between atoms: C3_3  and  N1_4 
REMARK    2  A    between atoms: C11_15  and  C12_16 
REMARK    3  A    between atoms: C13_17  and  N3_18 
REMARK    4  A    between atoms: N3_18  and  C14_19 
REMARK    5  A    between atoms: C14_19  and  C15_20 
REMARK    6  A    between atoms: C16_21  and  C17_22 
REMARK    7  A    between atoms: C19_24  and  O2_25 
ROOT
HETATM    1  C1  UNL     1      26.632   2.445  50.385  1.00  0.00     0.047 C 
HETATM    2  C2  UNL     1      25.623   2.486  51.202  1.00  0.00    -0.016 C 
HETATM    3  C3  UNL     1      25.738   1.793  52.476  1.00  0.00     0.080 C 
HETATM    4  C9  UNL     1      24.608   1.637  53.146  1.00  0.00     0.115 C 
HETATM    5  N2  UNL     1      23.660   2.481  53.006  1.00  0.00    -0.255 NA
HETATM    6  C10 UNL     1      23.466   3.189  51.774  1.00  0.00     0.129 C 
HETATM    7  C11 UNL     1      24.412   3.220  50.851  1.00  0.00    -0.009 C 
ENDROOT
BRANCH   7   8
HETATM    8  C12 UNL     1      24.324   3.913  49.578  1.00  0.00     0.030 C 
HETATM    9  C13 UNL     1      24.915   5.056  49.298  1.00  0.00     0.084 C 
BRANCH   9  10
HETATM   10  N3  UNL     1      25.746   6.029  49.866  1.00  0.00    -0.395 N 
HETATM   11  H9  UNL     1      25.666   6.384  50.856  1.00  0.00     0.159 HD
BRANCH  10  12
HETATM   12  C14 UNL     1      26.735   6.468  48.869  1.00  0.00     0.146 C 
BRANCH  12  13
HETATM   13  C15 UNL     1      27.716   5.417  48.543  1.00  0.00    -0.007 C 
HETATM   14  C16 UNL     1      28.999   5.295  48.156  1.00  0.00     0.005 C 
BRANCH  14  15
HETATM   15  C17 UNL     1      29.695   6.559  47.987  1.00  0.00    -0.045 C 
HETATM   16  C18 UNL     1      30.170   7.722  47.491  1.00  0.00     0.020 C 
HETATM   17  C19 UNL     1      30.972   8.183  48.645  1.00  0.00     0.097 A 
HETATM   18  C21 UNL     1      31.909   7.580  49.439  1.00  0.00     0.051 A 
HETATM   19  C22 UNL     1      30.905   6.728  48.855  1.00  0.00     0.045 A 
BRANCH  17  20
HETATM   20  O2  UNL     1      30.029   9.042  49.406  1.00  0.00    -0.379 OA
HETATM   21  C20 UNL     1      30.482  10.341  49.207  1.00  0.00     0.203 C 
ENDBRANCH  17  20
ENDBRANCH  14  15
ENDBRANCH  12  13
ENDBRANCH  10  12
ENDBRANCH   9  10
ENDBRANCH   7   8
BRANCH   3  22
HETATM   22  N1  UNL     1      26.992   1.315  52.962  1.00  0.00    -0.286 N 
HETATM   23  C4  UNL     1      27.822   2.221  53.551  1.00  0.00     0.101 A 
HETATM   24  C5  UNL     1      29.018   1.760  54.012  1.00  0.00     0.019 A 
HETATM   25  C6  UNL     1      29.418   0.433  53.910  1.00  0.00     0.026 A 
HETATM   26  C7  UNL     1      28.507  -0.407  53.299  1.00  0.00     0.079 A 
HETATM   27 BR1  UNL     1      29.039  -2.235  53.151  1.00  0.00    -0.045 Br
HETATM   28  C8  UNL     1      27.281  -0.012  52.809  1.00  0.00     0.269 A 
HETATM   29  O1  UNL     1      26.470  -0.778  52.259  1.00  0.00    -0.266 OA
ENDBRANCH   3  22
TORSDOF 7
ENDMDL
MODEL 4
REMARK VINA RESULT:      -7.3      3.262      6.050
REMARK  7 active torsions:
REMARK  status: ('A' for Active; 'I' for Inactive)
REMARK    1  A    between atoms: C3_3  and  N1_4 
REMARK    2  A    between atoms: C11_15  and  C12_16 
REMARK    3  A    between atoms: C13_17  and  N3_18 
REMARK    4  A    between atoms: N3_18  and  C14_19 
REMARK    5  A    between atoms: C14_19  and  C15_20 
REMARK    6  A    between atoms: C16_21  and  C17_22 
REMARK    7  A    between atoms: C19_24  and  O2_25 
ROOT
HETATM    1  C1  UNL     1      23.244   3.365  52.127  1.00  0.00     0.047 C 
HETATM    2  C2  UNL     1      22.760   2.628  51.173  1.00  0.00    -0.016 C 
HETATM    3  C3  UNL     1      23.178   2.904  49.807  1.00  0.00     0.080 C 
HETATM    4  C9  UNL     1      22.464   2.315  48.861  1.00  0.00     0.115 C 
HETATM    5  N2  UNL     1      21.883   1.202  49.097  1.00  0.00    -0.255 NA
HETATM    6  C10 UNL     1      21.422   0.865  50.413  1.00  0.00     0.129 C 
HETATM    7  C11 UNL     1      21.831   1.543  51.472  1.00  0.00    -0.009 C 
ENDROOT
BRANCH   7   8
HETATM    8  C12 UNL     1      21.436   1.279  52.844  1.00  0.00     0.030 C 
HETATM    9  C13 UNL     1      21.849   0.257  53.565  1.00  0.00     0.084 C 
BRANCH   9  10
HETATM   10  N3  UNL     1      22.671  -0.874  53.495  1.00  0.00    -0.395 N 
HETATM   11  H9  UNL     1      22.330  -1.855  53.309  1.00  0.00     0.159 HD
BRANCH  10  12
HETATM   12  C14 UNL     1      24.069  -0.475  53.720  1.00  0.00     0.146 C 
BRANCH  12  13
HETATM   13  C15 UNL     1      24.708   0.062  52.505  1.00  0.00    -0.007 C 
HETATM   14  C16 UNL     1      25.916   0.472  52.076  1.00  0.00     0.005 C 
BRANCH  14  15
HETATM   15  C17 UNL     1      26.966   0.383  53.074  1.00  0.00    -0.045 C 
HETATM   16  C18 UNL     1      27.726   0.014  54.129  1.00  0.00     0.020 C 
HETATM   17  C19 UNL     1      28.844   0.970  53.986  1.00  0.00     0.097 A 
HETATM   18  C21 UNL     1      28.904   2.325  53.800  1.00  0.00     0.051 A 
HETATM   19  C22 UNL     1      27.743   1.648  53.281  1.00  0.00     0.045 A 
BRANCH  17  20
HETATM   20  O2  UNL     1      29.840   0.227  53.173  1.00  0.00    -0.379 OA
HETATM   21  C20 UNL     1      30.136  -0.911  53.915  1.00  0.00     0.203 C 
ENDBRANCH  17  20
ENDBRANCH  14  15
ENDBRANCH  12  13
ENDBRANCH  10  12
ENDBRANCH   9  10
ENDBRANCH   7   8
BRANCH   3  22
HETATM   22  N1  UNL     1      24.284   3.756  49.517  1.00  0.00    -0.286 N 
HETATM   23  C4  UNL     1      25.534   3.231  49.658  1.00  0.00     0.101 A 
HETATM   24  C5  UNL     1      26.587   4.049  49.380  1.00  0.00     0.019 A 
HETATM   25  C6  UNL     1      26.444   5.369  48.967  1.00  0.00     0.026 A 
HETATM   26  C7  UNL     1      25.138   5.807  48.854  1.00  0.00     0.079 A 
HETATM   27 BR1  UNL     1      24.921   7.618  48.286  1.00  0.00    -0.045 Br
HETATM   28  C8  UNL     1      24.026   5.037  49.117  1.00  0.00     0.269 A 
HETATM   29  O1  UNL     1      22.855   5.444  49.012  1.00  0.00    -0.266 OA
ENDBRANCH   3  22
TORSDOF 7
ENDMDL
MODEL 5
REMARK VINA RESULT:      -7.3      2.112      3.339
REMARK  7 active torsions:
REMARK  status: ('A' for Active; 'I' for Inactive)
REMARK    1  A    between atoms: C3_3  and  N1_4 
REMARK    2  A    between atoms: C11_15  and  C12_16 
REMARK    3  A    between atoms: C13_17  and  N3_18 
REMARK    4  A    between atoms: N3_18  and  C14_19 
REMARK    5  A    between atoms: C14_19  and  C15_20 
REMARK    6  A    between atoms: C16_21  and  C17_22 
REMARK    7  A    between atoms: C19_24  and  O2_25 
ROOT
HETATM    1  C1  UNL     1      24.623   2.962  53.502  1.00  0.00     0.047 C 
HETATM    2  C2  UNL     1      24.902   3.265  52.270  1.00  0.00    -0.016 C 
HETATM    3  C3  UNL     1      25.930   2.497  51.586  1.00  0.00     0.080 C 
HETATM    4  C9  UNL     1      26.362   3.009  50.445  1.00  0.00     0.115 C 
HETATM    5  N2  UNL     1      25.589   3.739  49.737  1.00  0.00    -0.255 NA
HETATM    6  C10 UNL     1      24.564   4.542  50.339  1.00  0.00     0.129 C 
HETATM    7  C11 UNL     1      24.190   4.343  51.591  1.00  0.00    -0.009 C 
ENDROOT
BRANCH   7   8
HETATM    8  C12 UNL     1      23.160   5.089  52.291  1.00  0.00     0.030 C 
HETATM    9  C13 UNL     1      21.865   4.872  52.184  1.00  0.00     0.084 C 
BRANCH   9  10
HETATM   10  N3  UNL     1      20.942   4.044  51.534  1.00  0.00    -0.395 N 
HETATM   11  H9  UNL     1      20.616   4.172  50.539  1.00  0.00     0.159 HD
BRANCH  10  12
HETATM   12  C14 UNL     1      20.509   2.980  52.454  1.00  0.00     0.146 C 
BRANCH  12  13
HETATM   13  C15 UNL     1      21.439   1.836  52.477  1.00  0.00    -0.007 C 
HETATM   14  C16 UNL     1      21.961   0.921  51.640  1.00  0.00     0.005 C 
BRANCH  14  15
HETATM   15  C17 UNL     1      21.506   1.040  50.266  1.00  0.00    -0.045 C 
HETATM   16  C18 UNL     1      20.883   0.842  49.084  1.00  0.00     0.020 C 
HETATM   17  C19 UNL     1      21.419   1.987  48.317  1.00  0.00     0.097 A 
HETATM   18  C21 UNL     1      22.682   2.476  48.119  1.00  0.00     0.051 A 
HETATM   19  C22 UNL     1      22.438   1.787  49.361  1.00  0.00     0.045 A 
BRANCH  17  20
HETATM   20  O2  UNL     1      20.407   3.053  48.525  1.00  0.00    -0.379 OA
HETATM   21  C20 UNL     1      19.671   3.089  47.346  1.00  0.00     0.203 C 
ENDBRANCH  17  20
ENDBRANCH  14  15
ENDBRANCH  12  13
ENDBRANCH  10  12
ENDBRANCH   9  10
ENDBRANCH   7   8
BRANCH   3  22
HETATM   22  N1  UNL     1      26.435   1.274  52.119  1.00  0.00    -0.286 N 
HETATM   23  C4  UNL     1      25.617   0.185  52.073  1.00  0.00     0.101 A 
HETATM   24  C5  UNL     1      26.103  -0.980  52.584  1.00  0.00     0.019 A 
HETATM   25  C6  UNL     1      27.372  -1.103  53.138  1.00  0.00     0.026 A 
HETATM   26  C7  UNL     1      28.125   0.056  53.137  1.00  0.00     0.079 A 
HETATM   27 BR1  UNL     1      29.872  -0.094  53.893  1.00  0.00    -0.045 Br
HETATM   28  C8  UNL     1      27.699   1.268  52.638  1.00  0.00     0.269 A 
HETATM   29  O1  UNL     1      28.386   2.304  52.645  1.00  0.00    -0.266 OA
ENDBRANCH   3  22
TORSDOF 7
ENDMDL
MODEL 6
REMARK VINA RESULT:      -7.2      2.228      6.399
REMARK  7 active torsions:
REMARK  status: ('A' for Active; 'I' for Inactive)
REMARK    1  A    between atoms: C3_3  and  N1_4 
REMARK    2  A    between atoms: C11_15  and  C12_16 
REMARK    3  A    between atoms: C13_17  and  N3_18 
REMARK    4  A    between atoms: N3_18  and  C14_19 
REMARK    5  A    between atoms: C14_19  and  C15_20 
REMARK    6  A    between atoms: C16_21  and  C17_22 
REMARK    7  A    between atoms: C19_24  and  O2_25 
ROOT
HETATM    1  C1  UNL     1      22.596   1.886  49.716  1.00  0.00     0.047 C 
HETATM    2  C2  UNL     1      22.552   2.934  50.482  1.00  0.00    -0.016 C 
HETATM    3  C3  UNL     1      21.489   3.023  51.471  1.00  0.00     0.080 C 
HETATM    4  C9  UNL     1      21.329   4.210  52.033  1.00  0.00     0.115 C 
HETATM    5  N2  UNL     1      22.323   5.003  52.148  1.00  0.00    -0.255 NA
HETATM    6  C10 UNL     1      23.400   4.992  51.201  1.00  0.00     0.129 C 
HETATM    7  C11 UNL     1      23.554   3.988  50.357  1.00  0.00    -0.009 C 
ENDROOT
BRANCH   7   8
HETATM    8  C12 UNL     1      24.612   3.872  49.369  1.00  0.00     0.030 C 
HETATM    9  C13 UNL     1      25.885   3.677  49.645  1.00  0.00     0.084 C 
BRANCH   9  10
HETATM   10  N3  UNL     1      26.760   3.508  50.725  1.00  0.00    -0.395 N 
HETATM   11  H9  UNL     1      27.420   4.248  51.085  1.00  0.00     0.159 HD
BRANCH  10  12
HETATM   12  C14 UNL     1      26.609   2.148  51.266  1.00  0.00     0.146 C 
BRANCH  12  13
HETATM   13  C15 UNL     1      25.662   2.088  52.394  1.00  0.00    -0.007 C 
HETATM   14  C16 UNL     1      25.610   1.661  53.669  1.00  0.00     0.005 C 
BRANCH  14  15
HETATM   15  C17 UNL     1      26.841   1.058  54.148  1.00  0.00    -0.045 C 
HETATM   16  C18 UNL     1      27.742   0.261  54.763  1.00  0.00     0.020 C 
HETATM   17  C19 UNL     1      28.998   0.883  54.294  1.00  0.00     0.097 A 
HETATM   18  C21 UNL     1      29.448   2.175  54.253  1.00  0.00     0.051 A 
HETATM   19  C22 UNL     1      28.023   1.980  54.168  1.00  0.00     0.045 A 
BRANCH  17  20
HETATM   20  O2  UNL     1      29.338   0.109  53.073  1.00  0.00    -0.379 OA
HETATM   21  C20 UNL     1      29.920  -1.064  53.539  1.00  0.00     0.203 C 
ENDBRANCH  17  20
ENDBRANCH  14  15
ENDBRANCH  12  13
ENDBRANCH  10  12
ENDBRANCH   9  10
ENDBRANCH   7   8
BRANCH   3  22
HETATM   22  N1  UNL     1      20.678   1.899  51.807  1.00  0.00    -0.286 N 
HETATM   23  C4  UNL     1      19.464   1.797  51.195  1.00  0.00     0.101 A 
HETATM   24  C5  UNL     1      18.692   0.723  51.519  1.00  0.00     0.019 A 
HETATM   25  C6  UNL     1      19.083  -0.254  52.428  1.00  0.00     0.026 A 
HETATM   26  C7  UNL     1      20.329  -0.062  52.994  1.00  0.00     0.079 A 
HETATM   27 BR1  UNL     1      20.883  -1.395  54.244  1.00  0.00    -0.045 Br
HETATM   28  C8  UNL     1      21.163   0.999  52.713  1.00  0.00     0.269 A 
HETATM   29  O1  UNL     1      22.282   1.161  53.230  1.00  0.00    -0.266 OA
ENDBRANCH   3  22
TORSDOF 7
ENDMDL
MODEL 7
REMARK VINA RESULT:      -7.2      2.789      5.808
REMARK  7 active torsions:
REMARK  status: ('A' for Active; 'I' for Inactive)
REMARK    1  A    between atoms: C3_3  and  N1_4 
REMARK    2  A    between atoms: C11_15  and  C12_16 
REMARK    3  A    between atoms: C13_17  and  N3_18 
REMARK    4  A    between atoms: N3_18  and  C14_19 
REMARK    5  A    between atoms: C14_19  and  C15_20 
REMARK    6  A    between atoms: C16_21  and  C17_22 
REMARK    7  A    between atoms: C19_24  and  O2_25 
ROOT
HETATM    1  C1  UNL     1      21.903   1.011  50.185  1.00  0.00     0.047 C 
HETATM    2  C2  UNL     1      21.638   2.125  50.800  1.00  0.00    -0.016 C 
HETATM    3  C3  UNL     1      21.003   2.059  52.107  1.00  0.00     0.080 C 
HETATM    4  C9  UNL     1      20.516   3.201  52.564  1.00  0.00     0.115 C 
HETATM    5  N2  UNL     1      21.042   4.309  52.209  1.00  0.00    -0.255 NA
HETATM    6  C10 UNL     1      21.668   4.461  50.927  1.00  0.00     0.129 C 
HETATM    7  C11 UNL     1      21.983   3.408  50.194  1.00  0.00    -0.009 C 
ENDROOT
BRANCH   7   8
HETATM    8  C12 UNL     1      22.626   3.449  48.893  1.00  0.00     0.030 C 
HETATM    9  C13 UNL     1      23.425   4.409  48.475  1.00  0.00     0.084 C 
BRANCH   9  10
HETATM   10  N3  UNL     1      23.991   5.622  48.886  1.00  0.00    -0.395 N 
HETATM   11  H9  UNL     1      23.687   6.573  48.545  1.00  0.00     0.159 HD
BRANCH  10  12
HETATM   12  C14 UNL     1      25.061   5.356  49.860  1.00  0.00     0.146 C 
BRANCH  12  13
HETATM   13  C15 UNL     1      26.108   4.466  49.323  1.00  0.00    -0.007 C 
HETATM   14  C16 UNL     1      26.656   3.262  49.566  1.00  0.00     0.005 C 
BRANCH  14  15
HETATM   15  C17 UNL     1      26.081   2.563  50.702  1.00  0.00    -0.045 C 
HETATM   16  C18 UNL     1      25.221   2.016  51.589  1.00  0.00     0.020 C 
HETATM   17  C19 UNL     1      26.181   1.402  52.531  1.00  0.00     0.097 A 
HETATM   18  C21 UNL     1      27.299   1.867  53.169  1.00  0.00     0.051 A 
HETATM   19  C22 UNL     1      26.979   2.465  51.898  1.00  0.00     0.045 A 
BRANCH  17  20
HETATM   20  O2  UNL     1      26.335   0.016  52.021  1.00  0.00    -0.379 OA
HETATM   21  C20 UNL     1      25.868  -0.800  53.044  1.00  0.00     0.203 C 
ENDBRANCH  17  20
ENDBRANCH  14  15
ENDBRANCH  12  13
ENDBRANCH  10  12
ENDBRANCH   9  10
ENDBRANCH   7   8
BRANCH   3  22
HETATM   22  N1  UNL     1      20.915   0.838  52.839  1.00  0.00    -0.286 N 
HETATM   23  C4  UNL     1      22.013   0.451  53.548  1.00  0.00     0.101 A 
HETATM   24  C5  UNL     1      21.924  -0.715  54.245  1.00  0.00     0.019 A 
HETATM   25  C6  UNL     1      20.785  -1.512  54.263  1.00  0.00     0.026 A 
HETATM   26  C7  UNL     1      19.726  -1.034  53.515  1.00  0.00     0.079 A 
HETATM   27 BR1  UNL     1      18.151  -2.114  53.529  1.00  0.00    -0.045 Br
HETATM   28  C8  UNL     1      19.744   0.136  52.786  1.00  0.00     0.269 A 
HETATM   29  O1  UNL     1      18.784   0.554  52.115  1.00  0.00    -0.266 OA
ENDBRANCH   3  22
TORSDOF 7
ENDMDL
MODEL 8
REMARK VINA RESULT:      -7.1      3.133      5.861
REMARK  7 active torsions:
REMARK  status: ('A' for Active; 'I' for Inactive)
REMARK    1  A    between atoms: C3_3  and  N1_4 
REMARK    2  A    between atoms: C11_15  and  C12_16 
REMARK    3  A    between atoms: C13_17  and  N3_18 
REMARK    4  A    between atoms: N3_18  and  C14_19 
REMARK    5  A    between atoms: C14_19  and  C15_20 
REMARK    6  A    between atoms: C16_21  and  C17_22 
REMARK    7  A    between atoms: C19_24  and  O2_25 
ROOT
HETATM    1  C1  UNL     1      23.721   2.906  49.065  1.00  0.00     0.047 C 
HETATM    2  C2  UNL     1      23.133   3.451  50.087  1.00  0.00    -0.016 C 
HETATM    3  C3  UNL     1      23.394   4.855  50.367  1.00  0.00     0.080 C 
HETATM    4  C9  UNL     1      22.994   5.285  51.553  1.00  0.00     0.115 C 
HETATM    5  N2  UNL     1      21.998   4.734  52.132  1.00  0.00    -0.255 NA
HETATM    6  C10 UNL     1      21.688   3.348  51.924  1.00  0.00     0.129 C 
HETATM    7  C11 UNL     1      22.226   2.673  50.924  1.00  0.00    -0.009 C 
ENDROOT
BRANCH   7   8
HETATM    8  C12 UNL     1      21.972   1.276  50.620  1.00  0.00     0.030 C 
HETATM    9  C13 UNL     1      21.285   0.449  51.381  1.00  0.00     0.084 C 
BRANCH   9  10
HETATM   10  N3  UNL     1      20.579   0.401  52.589  1.00  0.00    -0.395 N 
HETATM   11  H9  UNL     1      19.528   0.370  52.670  1.00  0.00     0.159 HD
BRANCH  10  12
HETATM   12  C14 UNL     1      21.532   0.397  53.711  1.00  0.00     0.146 C 
BRANCH  12  13
HETATM   13  C15 UNL     1      22.630  -0.569  53.520  1.00  0.00    -0.007 C 
HETATM   14  C16 UNL     1      23.959  -0.584  53.315  1.00  0.00     0.005 C 
BRANCH  14  15
HETATM   15  C17 UNL     1      24.569   0.733  53.253  1.00  0.00    -0.045 C 
HETATM   16  C18 UNL     1      24.815   2.056  53.374  1.00  0.00     0.020 C 
HETATM   17  C19 UNL     1      26.156   2.125  52.756  1.00  0.00     0.097 A 
HETATM   18  C21 UNL     1      26.677   1.644  51.586  1.00  0.00     0.051 A 
HETATM   19  C22 UNL     1      25.587   0.901  52.167  1.00  0.00     0.045 A 
BRANCH  17  20
HETATM   20  O2  UNL     1      27.080   1.979  53.909  1.00  0.00    -0.379 OA
HETATM   21  C20 UNL     1      28.319   2.394  53.434  1.00  0.00     0.203 C 
ENDBRANCH  17  20
ENDBRANCH  14  15
ENDBRANCH  12  13
ENDBRANCH  10  12
ENDBRANCH   9  10
ENDBRANCH   7   8
BRANCH   3  22
HETATM   22  N1  UNL     1      24.040   5.703  49.419  1.00  0.00    -0.286 N 
HETATM   23  C4  UNL     1      23.245   6.457  48.608  1.00  0.00     0.101 A 
HETATM   24  C5  UNL     1      23.866   7.264  47.704  1.00  0.00     0.019 A 
HETATM   25  C6  UNL     1      25.248   7.350  47.577  1.00  0.00     0.026 A 
HETATM   26  C7  UNL     1      25.966   6.549  48.444  1.00  0.00     0.079 A 
HETATM   27 BR1  UNL     1      27.866   6.655  48.286  1.00  0.00    -0.045 Br
HETATM   28  C8  UNL     1      25.406   5.709  49.383  1.00  0.00     0.269 A 
HETATM   29  O1  UNL     1      26.063   4.991  50.157  1.00  0.00    -0.266 OA
ENDBRANCH   3  22
TORSDOF 7
ENDMDL
MODEL 9
REMARK VINA RESULT:      -7.0      3.883      7.325
REMARK  7 active torsions:
REMARK  status: ('A' for Active; 'I' for Inactive)
REMARK    1  A    between atoms: C3_3  and  N1_4 
REMARK    2  A    between atoms: C11_15  and  C12_16 
REMARK    3  A    between atoms: C13_17  and  N3_18 
REMARK    4  A    between atoms: N3_18  and  C14_19 
REMARK    5  A    between atoms: C14_19  and  C15_20 
REMARK    6  A    between atoms: C16_21  and  C17_22 
REMARK    7  A    between atoms: C19_24  and  O2_25 
ROOT
HETATM    1  C1  UNL     1      23.501   4.533  52.598  1.00  0.00     0.047 C 
HETATM    2  C2  UNL     1      23.232   4.276  51.353  1.00  0.00    -0.016 C 
HETATM    3  C3  UNL     1      23.141   2.884  50.940  1.00  0.00     0.080 C 
HETATM    4  C9  UNL     1      23.135   2.674  49.634  1.00  0.00     0.115 C 
HETATM    5  N2  UNL     1      22.671   3.565  48.845  1.00  0.00    -0.255 NA
HETATM    6  C10 UNL     1      22.743   4.960  49.170  1.00  0.00     0.129 C 
HETATM    7  C11 UNL     1      23.017   5.359  50.399  1.00  0.00    -0.009 C 
ENDROOT
BRANCH   7   8
HETATM    8  C12 UNL     1      23.104   6.741  50.837  1.00  0.00     0.030 C 
HETATM    9  C13 UNL     1      24.224   7.416  50.991  1.00  0.00     0.084 C 
BRANCH   9  10
HETATM   10  N3  UNL     1      25.613   7.280  50.869  1.00  0.00    -0.395 N 
HETATM   11  H9  UNL     1      26.293   7.320  51.674  1.00  0.00     0.159 HD
BRANCH  10  12
HETATM   12  C14 UNL     1      25.961   7.073  49.454  1.00  0.00     0.146 C 
BRANCH  12  13
HETATM   13  C15 UNL     1      26.451   5.709  49.184  1.00  0.00    -0.007 C 
HETATM   14  C16 UNL     1      27.505   5.090  48.624  1.00  0.00     0.005 C 
BRANCH  14  15
HETATM   15  C17 UNL     1      28.518   5.990  48.100  1.00  0.00    -0.045 C 
HETATM   16  C18 UNL     1      29.155   6.989  47.452  1.00  0.00     0.020 C 
HETATM   17  C19 UNL     1      30.546   6.725  47.880  1.00  0.00     0.097 A 
HETATM   18  C21 UNL     1      31.322   5.598  47.909  1.00  0.00     0.051 A 
HETATM   19  C22 UNL     1      29.900   5.412  48.043  1.00  0.00     0.045 A 
BRANCH  17  20
HETATM   20  O2  UNL     1      30.709   7.577  49.085  1.00  0.00    -0.379 OA
HETATM   21  C20 UNL     1      31.701   8.491  48.751  1.00  0.00     0.203 C 
ENDBRANCH  17  20
ENDBRANCH  14  15
ENDBRANCH  12  13
ENDBRANCH  10  12
ENDBRANCH   9  10
ENDBRANCH   7   8
BRANCH   3  22
HETATM   22  N1  UNL     1      23.064   1.821  51.889  1.00  0.00    -0.286 N 
HETATM   23  C4  UNL     1      21.828   1.477  52.347  1.00  0.00     0.101 A 
HETATM   24  C5  UNL     1      21.760   0.463  53.253  1.00  0.00     0.019 A 
HETATM   25  C6  UNL     1      22.876  -0.222  53.721  1.00  0.00     0.026 A 
HETATM   26  C7  UNL     1      24.083   0.200  53.197  1.00  0.00     0.079 A 
HETATM   27 BR1  UNL     1      25.627  -0.730  53.827  1.00  0.00    -0.045 Br
HETATM   28  C8  UNL     1      24.227   1.217  52.278  1.00  0.00     0.269 A 
HETATM   29  O1  UNL     1      25.319   1.589  51.815  1.00  0.00    -0.266 OA
ENDBRANCH   3  22
TORSDOF 7
ENDMDL
