MODEL 1
REMARK VINA RESULT:      -8.4      0.000      0.000
REMARK  4 active torsions:
REMARK  status: ('A' for Active; 'I' for Inactive)
REMARK    1  A    between atoms: C1_2  and  C2_3 
REMARK    2  A    between atoms: C1_2  and  C15_20 
REMARK    3  A    between atoms: C16_22  and  C17_23 
REMARK    4  A    between atoms: C17_23  and  N4_24 
ROOT
HETATM    1  C2  UNL     1      19.903   0.771  53.062  1.00  0.00     0.106 C 
HETATM    2  C3  UNL     1      18.983  -0.257  52.582  1.00  0.00    -0.007 C 
HETATM    3  C4  UNL     1      18.521  -0.141  51.309  1.00  0.00     0.047 C 
HETATM    4  C5  UNL     1      18.891   0.990  50.378  1.00  0.00     0.129 C 
HETATM    5  N1  UNL     1      17.983   1.778  50.989  1.00  0.00    -0.225 NA
HETATM    6  C6  UNL     1      18.364   2.920  51.856  1.00  0.00     0.235 C 
HETATM    7  N2  UNL     1      19.654   3.263  52.385  1.00  0.00    -0.241 NA
HETATM    8  C7  UNL     1      20.722   2.836  51.447  1.00  0.00     0.069 C 
HETATM    9  C8  UNL     1      20.473   1.675  52.131  1.00  0.00     0.022 C 
HETATM   10  C9  UNL     1      21.711   2.834  50.369  1.00  0.00     0.036 A 
HETATM   11  C10 UNL     1      22.869   3.458  50.306  1.00  0.00     0.025 A 
HETATM   12 BR1  UNL     1      23.086   4.442  51.893  1.00  0.00    -0.050 Br
HETATM   13  C11 UNL     1      23.547   3.213  49.141  1.00  0.00     0.020 A 
HETATM   14  C12 UNL     1      23.010   2.387  48.182  1.00  0.00     0.004 A 
HETATM   15  C13 UNL     1      21.798   1.753  48.283  1.00  0.00     0.030 A 
HETATM   16  C14 UNL     1      21.072   1.956  49.417  1.00  0.00     0.047 A 
HETATM   17  N3  UNL     1      19.839   1.153  49.252  1.00  0.00    -0.340 N 
HETATM   18  H9  UNL     1      19.802   0.789  48.296  1.00  0.00     0.167 HD
ENDROOT
BRANCH   1  19
HETATM   19  C1  UNL     1      20.891   0.131  53.951  1.00  0.00     0.169 C 
HETATM   20  O1  UNL     1      20.551   0.885  54.818  1.00  0.00    -0.294 OA
BRANCH  19  21
HETATM   21  C15 UNL     1      21.732  -0.973  53.480  1.00  0.00     0.223 A 
HETATM   22  O2  UNL     1      22.324  -0.971  52.228  1.00  0.00    -0.366 OA
HETATM   23  C16 UNL     1      23.213  -0.765  53.265  1.00  0.00     0.187 A 
BRANCH  23  24
HETATM   24  C17 UNL     1      23.723   0.624  53.417  1.00  0.00     0.307 C 
BRANCH  24  25
HETATM   25  N4  UNL     1      25.149   0.748  53.573  1.00  0.00     0.091 N 
HETATM   26  C18 UNL     1      25.754  -0.182  54.471  1.00  0.00     0.272 C 
HETATM   27  C19 UNL     1      27.252   0.154  54.479  1.00  0.00     0.030 C 
HETATM   28  C20 UNL     1      27.890  -0.276  53.179  1.00  0.00     0.003 C 
HETATM   29  C21 UNL     1      26.811  -0.407  52.153  1.00  0.00     0.030 C 
HETATM   30  C22 UNL     1      25.809   0.720  52.300  1.00  0.00     0.272 C 
ENDBRANCH  24  25
ENDBRANCH  23  24
ENDBRANCH  19  21
ENDBRANCH   1  19
TORSDOF 4
ENDMDL
MODEL 2
REMARK VINA RESULT:      -8.3      3.075      5.394
REMARK  4 active torsions:
REMARK  status: ('A' for Active; 'I' for Inactive)
REMARK    1  A    between atoms: C1_2  and  C2_3 
REMARK    2  A    between atoms: C1_2  and  C15_20 
REMARK    3  A    between atoms: C16_22  and  C17_23 
REMARK    4  A    between atoms: C17_23  and  N4_24 
ROOT
HETATM    1  C2  UNL     1      20.995   3.662  50.566  1.00  0.00     0.106 C 
HETATM    2  C3  UNL     1      19.538   3.589  50.491  1.00  0.00    -0.007 C 
HETATM    3  C4  UNL     1      18.966   2.361  50.596  1.00  0.00     0.047 C 
HETATM    4  C5  UNL     1      19.746   1.079  50.769  1.00  0.00     0.129 C 
HETATM    5  N1  UNL     1      19.999   1.065  49.444  1.00  0.00    -0.225 NA
HETATM    6  C6  UNL     1      21.348   1.321  48.882  1.00  0.00     0.235 C 
HETATM    7  N2  UNL     1      22.519   1.832  49.537  1.00  0.00    -0.241 NA
HETATM    8  C7  UNL     1      22.529   1.418  50.962  1.00  0.00     0.069 C 
HETATM    9  C8  UNL     1      21.721   2.525  51.000  1.00  0.00     0.022 C 
HETATM   10  C9  UNL     1      22.771   0.666  52.193  1.00  0.00     0.036 A 
HETATM   11  C10 UNL     1      23.895   0.510  52.862  1.00  0.00     0.025 A 
HETATM   12 BR1  UNL     1      25.250   1.432  51.943  1.00  0.00    -0.050 Br
HETATM   13  C11 UNL     1      23.746  -0.253  53.990  1.00  0.00     0.020 A 
HETATM   14  C12 UNL     1      22.516  -0.769  54.325  1.00  0.00     0.004 A 
HETATM   15  C13 UNL     1      21.365  -0.585  53.603  1.00  0.00     0.030 A 
HETATM   16  C14 UNL     1      21.446   0.164  52.469  1.00  0.00     0.047 A 
HETATM   17  N3  UNL     1      20.073   0.198  51.914  1.00  0.00    -0.340 N 
HETATM   18  H9  UNL     1      19.483  -0.452  52.440  1.00  0.00     0.167 HD
ENDROOT
BRANCH   1  19
HETATM   19  C1  UNL     1      21.362   4.905  51.271  1.00  0.00     0.169 C 
HETATM   20  O1  UNL     1      21.536   4.254  52.262  1.00  0.00    -0.294 OA
BRANCH  19  21
HETATM   21  C15 UNL     1      21.361   6.197  50.578  1.00  0.00     0.223 A 
HETATM   22  O2  UNL     1      21.870   7.348  51.156  1.00  0.00    -0.366 OA
HETATM   23  C16 UNL     1      22.665   6.832  50.150  1.00  0.00     0.187 A 
BRANCH  23  24
HETATM   24  C17 UNL     1      23.914   6.157  50.590  1.00  0.00     0.307 C 
BRANCH  24  25
HETATM   25  N4  UNL     1      24.891   5.924  49.558  1.00  0.00     0.091 N 
HETATM   26  C18 UNL     1      26.117   6.642  49.697  1.00  0.00     0.272 C 
HETATM   27  C19 UNL     1      26.977   6.245  48.489  1.00  0.00     0.030 C 
HETATM   28  C20 UNL     1      27.478   4.828  48.649  1.00  0.00     0.003 C 
HETATM   29  C21 UNL     1      26.591   4.130  49.629  1.00  0.00     0.030 C 
HETATM   30  C22 UNL     1      25.146   4.522  49.399  1.00  0.00     0.272 C 
ENDBRANCH  24  25
ENDBRANCH  23  24
ENDBRANCH  19  21
ENDBRANCH   1  19
TORSDOF 4
ENDMDL
MODEL 3
REMARK VINA RESULT:      -8.2      3.583      6.035
REMARK  4 active torsions:
REMARK  status: ('A' for Active; 'I' for Inactive)
REMARK    1  A    between atoms: C1_2  and  C2_3 
REMARK    2  A    between atoms: C1_2  and  C15_20 
REMARK    3  A    between atoms: C16_22  and  C17_23 
REMARK    4  A    between atoms: C17_23  and  N4_24 
ROOT
HETATM    1  C2  UNL     1      21.668   3.727  51.432  1.00  0.00     0.106 C 
HETATM    2  C3  UNL     1      20.621   3.213  52.310  1.00  0.00    -0.007 C 
HETATM    3  C4  UNL     1      20.757   1.941  52.771  1.00  0.00     0.047 C 
HETATM    4  C5  UNL     1      21.912   1.035  52.415  1.00  0.00     0.129 C 
HETATM    5  N1  UNL     1      21.317   0.754  51.237  1.00  0.00    -0.225 NA
HETATM    6  C6  UNL     1      21.840   1.242  49.937  1.00  0.00     0.235 C 
HETATM    7  N2  UNL     1      22.855   2.224  49.681  1.00  0.00    -0.241 NA
HETATM    8  C7  UNL     1      23.863   2.214  50.771  1.00  0.00     0.069 C 
HETATM    9  C8  UNL     1      22.881   3.005  51.308  1.00  0.00     0.022 C 
HETATM   10  C9  UNL     1      25.053   1.909  51.567  1.00  0.00     0.036 A 
HETATM   11  C10 UNL     1      26.303   2.268  51.358  1.00  0.00     0.025 A 
HETATM   12 BR1  UNL     1      26.362   3.278  49.774  1.00  0.00    -0.050 Br
HETATM   13  C11 UNL     1      27.159   1.812  52.326  1.00  0.00     0.020 A 
HETATM   14  C12 UNL     1      26.688   1.063  53.378  1.00  0.00     0.004 A 
HETATM   15  C13 UNL     1      25.376   0.708  53.562  1.00  0.00     0.030 A 
HETATM   16  C14 UNL     1      24.473   1.130  52.634  1.00  0.00     0.047 A 
HETATM   17  N3  UNL     1      23.161   0.615  53.090  1.00  0.00    -0.340 N 
HETATM   18  H9  UNL     1      23.307  -0.021  53.879  1.00  0.00     0.167 HD
ENDROOT
BRANCH   1  19
HETATM   19  C1  UNL     1      21.858   5.161  51.724  1.00  0.00     0.169 C 
HETATM   20  O1  UNL     1      22.416   4.848  52.737  1.00  0.00    -0.294 OA
BRANCH  19  21
HETATM   21  C15 UNL     1      21.367   6.192  50.805  1.00  0.00     0.223 A 
HETATM   22  O2  UNL     1      21.905   7.467  50.767  1.00  0.00    -0.366 OA
HETATM   23  C16 UNL     1      22.244   6.688  49.678  1.00  0.00     0.187 A 
BRANCH  23  24
HETATM   24  C17 UNL     1      23.644   6.186  49.649  1.00  0.00     0.307 C 
BRANCH  24  25
HETATM   25  N4  UNL     1      24.656   7.182  49.411  1.00  0.00     0.091 N 
HETATM   26  C18 UNL     1      25.623   7.337  50.449  1.00  0.00     0.272 C 
HETATM   27  C19 UNL     1      26.573   8.447  49.979  1.00  0.00     0.030 C 
HETATM   28  C20 UNL     1      27.457   7.940  48.863  1.00  0.00     0.003 C 
HETATM   29  C21 UNL     1      26.798   6.743  48.256  1.00  0.00     0.030 C 
HETATM   30  C22 UNL     1      25.303   6.966  48.150  1.00  0.00     0.272 C 
ENDBRANCH  24  25
ENDBRANCH  23  24
ENDBRANCH  19  21
ENDBRANCH   1  19
TORSDOF 4
ENDMDL
MODEL 4
REMARK VINA RESULT:      -8.1      2.230      3.124
REMARK  4 active torsions:
REMARK  status: ('A' for Active; 'I' for Inactive)
REMARK    1  A    between atoms: C1_2  and  C2_3 
REMARK    2  A    between atoms: C1_2  and  C15_20 
REMARK    3  A    between atoms: C16_22  and  C17_23 
REMARK    4  A    between atoms: C17_23  and  N4_24 
ROOT
HETATM    1  C2  UNL     1      23.105   2.427  52.372  1.00  0.00     0.106 C 
HETATM    2  C3  UNL     1      22.799   1.003  52.483  1.00  0.00    -0.007 C 
HETATM    3  C4  UNL     1      21.799   0.513  51.705  1.00  0.00     0.047 C 
HETATM    4  C5  UNL     1      20.983   1.355  50.753  1.00  0.00     0.129 C 
HETATM    5  N1  UNL     1      20.233   1.785  51.788  1.00  0.00    -0.225 NA
HETATM    6  C6  UNL     1      20.298   3.175  52.304  1.00  0.00     0.235 C 
HETATM    7  N2  UNL     1      21.251   4.206  52.007  1.00  0.00    -0.241 NA
HETATM    8  C7  UNL     1      21.754   4.054  50.619  1.00  0.00     0.069 C 
HETATM    9  C8  UNL     1      22.548   3.169  51.300  1.00  0.00     0.022 C 
HETATM   10  C9  UNL     1      21.904   4.182  49.169  1.00  0.00     0.036 A 
HETATM   11  C10 UNL     1      22.326   5.214  48.467  1.00  0.00     0.025 A 
HETATM   12 BR1  UNL     1      22.716   6.610  49.664  1.00  0.00    -0.050 Br
HETATM   13  C11 UNL     1      22.352   4.970  47.120  1.00  0.00     0.020 A 
HETATM   14  C12 UNL     1      21.965   3.748  46.624  1.00  0.00     0.004 A 
HETATM   15  C13 UNL     1      21.530   2.695  47.387  1.00  0.00     0.030 A 
HETATM   16  C14 UNL     1      21.479   2.873  48.736  1.00  0.00     0.047 A 
HETATM   17  N3  UNL     1      20.991   1.589  49.290  1.00  0.00    -0.340 N 
HETATM   18  H9  UNL     1      20.696   0.982  48.520  1.00  0.00     0.167 HD
ENDROOT
BRANCH   1  19
HETATM   19  C1  UNL     1      24.562   2.604  52.524  1.00  0.00     0.169 C 
HETATM   20  O1  UNL     1      24.350   3.214  53.533  1.00  0.00    -0.294 OA
BRANCH  19  21
HETATM   21  C15 UNL     1      25.498   2.049  51.542  1.00  0.00     0.223 A 
HETATM   22  O2  UNL     1      26.870   2.094  51.720  1.00  0.00    -0.366 OA
HETATM   23  C16 UNL     1      26.328   0.834  51.883  1.00  0.00     0.187 A 
BRANCH  23  24
HETATM   24  C17 UNL     1      26.246   0.338  53.283  1.00  0.00     0.307 C 
BRANCH  24  25
HETATM   25  N4  UNL     1      27.332  -0.506  53.708  1.00  0.00     0.091 N 
HETATM   26  C18 UNL     1      27.929  -1.303  52.685  1.00  0.00     0.272 C 
HETATM   27  C19 UNL     1      29.035  -2.114  53.374  1.00  0.00     0.030 C 
HETATM   28  C20 UNL     1      30.199  -1.216  53.727  1.00  0.00     0.003 C 
HETATM   29  C21 UNL     1      29.703   0.194  53.761  1.00  0.00     0.030 C 
HETATM   30  C22 UNL     1      28.331   0.253  54.402  1.00  0.00     0.272 C 
ENDBRANCH  24  25
ENDBRANCH  23  24
ENDBRANCH  19  21
ENDBRANCH   1  19
TORSDOF 4
ENDMDL
MODEL 5
REMARK VINA RESULT:      -8.0      2.650      6.707
REMARK  4 active torsions:
REMARK  status: ('A' for Active; 'I' for Inactive)
REMARK    1  A    between atoms: C1_2  and  C2_3 
REMARK    2  A    between atoms: C1_2  and  C15_20 
REMARK    3  A    between atoms: C16_22  and  C17_23 
REMARK    4  A    between atoms: C17_23  and  N4_24 
ROOT
HETATM    1  C2  UNL     1      22.674   3.994  49.401  1.00  0.00     0.106 C 
HETATM    2  C3  UNL     1      23.477   4.871  48.553  1.00  0.00    -0.007 C 
HETATM    3  C4  UNL     1      24.713   5.215  49.001  1.00  0.00     0.047 C 
HETATM    4  C5  UNL     1      25.289   4.759  50.321  1.00  0.00     0.129 C 
HETATM    5  N1  UNL     1      24.578   5.716  50.953  1.00  0.00    -0.225 NA
HETATM    6  C6  UNL     1      23.419   5.410  51.826  1.00  0.00     0.235 C 
HETATM    7  N2  UNL     1      22.711   4.172  51.990  1.00  0.00    -0.241 NA
HETATM    8  C7  UNL     1      23.632   3.025  51.786  1.00  0.00     0.069 C 
HETATM    9  C8  UNL     1      23.290   3.339  50.496  1.00  0.00     0.022 C 
HETATM   10  C9  UNL     1      24.585   1.943  52.031  1.00  0.00     0.036 A 
HETATM   11  C10 UNL     1      24.387   0.781  52.620  1.00  0.00     0.025 A 
HETATM   12 BR1  UNL     1      22.589   0.704  53.162  1.00  0.00    -0.050 Br
HETATM   13  C11 UNL     1      25.513   0.002  52.660  1.00  0.00     0.020 A 
HETATM   14  C12 UNL     1      26.693   0.454  52.120  1.00  0.00     0.004 A 
HETATM   15  C13 UNL     1      26.862   1.673  51.513  1.00  0.00     0.030 A 
HETATM   16  C14 UNL     1      25.780   2.496  51.441  1.00  0.00     0.047 A 
HETATM   17  N3  UNL     1      26.251   3.713  50.740  1.00  0.00    -0.340 N 
HETATM   18  H9  UNL     1      27.267   3.665  50.631  1.00  0.00     0.167 HD
ENDROOT
BRANCH   1  19
HETATM   19  C1  UNL     1      21.895   3.092  48.531  1.00  0.00     0.169 C 
HETATM   20  O1  UNL     1      22.834   2.348  48.517  1.00  0.00    -0.294 OA
BRANCH  19  21
HETATM   21  C15 UNL     1      20.529   3.429  48.120  1.00  0.00     0.223 A 
HETATM   22  O2  UNL     1      19.692   2.511  47.510  1.00  0.00    -0.366 OA
HETATM   23  C16 UNL     1      19.347   2.796  48.817  1.00  0.00     0.187 A 
BRANCH  23  24
HETATM   24  C17 UNL     1      19.647   1.735  49.815  1.00  0.00     0.307 C 
BRANCH  24  25
HETATM   25  N4  UNL     1      18.532   1.306  50.619  1.00  0.00     0.091 N 
HETATM   26  C18 UNL     1      17.745   0.251  50.066  1.00  0.00     0.272 C 
HETATM   27  C19 UNL     1      16.627  -0.018  51.083  1.00  0.00     0.030 C 
HETATM   28  C20 UNL     1      17.187  -0.713  52.303  1.00  0.00     0.003 C 
HETATM   29  C21 UNL     1      18.659  -0.457  52.348  1.00  0.00     0.030 C 
HETATM   30  C22 UNL     1      18.955   0.974  51.948  1.00  0.00     0.272 C 
ENDBRANCH  24  25
ENDBRANCH  23  24
ENDBRANCH  19  21
ENDBRANCH   1  19
TORSDOF 4
ENDMDL
MODEL 6
REMARK VINA RESULT:      -7.6      2.521      7.113
REMARK  4 active torsions:
REMARK  status: ('A' for Active; 'I' for Inactive)
REMARK    1  A    between atoms: C1_2  and  C2_3 
REMARK    2  A    between atoms: C1_2  and  C15_20 
REMARK    3  A    between atoms: C16_22  and  C17_23 
REMARK    4  A    between atoms: C17_23  and  N4_24 
ROOT
HETATM    1  C2  UNL     1      22.457   2.667  49.901  1.00  0.00     0.106 C 
HETATM    2  C3  UNL     1      23.168   3.497  48.933  1.00  0.00    -0.007 C 
HETATM    3  C4  UNL     1      24.421   3.910  49.261  1.00  0.00     0.047 C 
HETATM    4  C5  UNL     1      25.104   3.574  50.565  1.00  0.00     0.129 C 
HETATM    5  N1  UNL     1      24.408   4.557  51.174  1.00  0.00    -0.225 NA
HETATM    6  C6  UNL     1      23.325   4.287  52.151  1.00  0.00     0.235 C 
HETATM    7  N2  UNL     1      22.673   3.046  52.459  1.00  0.00    -0.241 NA
HETATM    8  C7  UNL     1      23.615   1.913  52.275  1.00  0.00     0.069 C 
HETATM    9  C8  UNL     1      23.171   2.117  50.994  1.00  0.00     0.022 C 
HETATM   10  C9  UNL     1      24.619   0.881  52.530  1.00  0.00     0.036 A 
HETATM   11  C10 UNL     1      24.502  -0.237  53.218  1.00  0.00     0.025 A 
HETATM   12 BR1  UNL     1      22.751  -0.322  53.895  1.00  0.00    -0.050 Br
HETATM   13  C11 UNL     1      25.654  -0.979  53.233  1.00  0.00     0.020 A 
HETATM   14  C12 UNL     1      26.777  -0.537  52.575  1.00  0.00     0.004 A 
HETATM   15  C13 UNL     1      26.861   0.635  51.868  1.00  0.00     0.030 A 
HETATM   16  C14 UNL     1      25.750   1.420  51.813  1.00  0.00     0.047 A 
HETATM   17  N3  UNL     1      26.128   2.591  50.990  1.00  0.00    -0.340 N 
HETATM   18  H9  UNL     1      27.135   2.563  50.810  1.00  0.00     0.167 HD
ENDROOT
BRANCH   1  19
HETATM   19  C1  UNL     1      21.649   1.679  49.161  1.00  0.00     0.169 C 
HETATM   20  O1  UNL     1      22.312   1.913  48.190  1.00  0.00    -0.294 OA
BRANCH  19  21
HETATM   21  C15 UNL     1      20.560   0.948  49.815  1.00  0.00     0.223 A 
HETATM   22  O2  UNL     1      19.832   1.485  50.863  1.00  0.00    -0.366 OA
HETATM   23  C16 UNL     1      19.132   1.422  49.673  1.00  0.00     0.187 A 
BRANCH  23  24
HETATM   24  C17 UNL     1      18.923   2.716  48.973  1.00  0.00     0.307 C 
BRANCH  24  25
HETATM   25  N4  UNL     1      17.672   3.375  49.245  1.00  0.00     0.091 N 
HETATM   26  C18 UNL     1      16.570   2.511  49.527  1.00  0.00     0.272 C 
HETATM   27  C19 UNL     1      15.365   3.431  49.767  1.00  0.00     0.030 C 
HETATM   28  C20 UNL     1      15.501   4.135  51.098  1.00  0.00     0.003 C 
HETATM   29  C21 UNL     1      16.943   4.108  51.491  1.00  0.00     0.030 C 
HETATM   30  C22 UNL     1      17.821   4.354  50.281  1.00  0.00     0.272 C 
ENDBRANCH  24  25
ENDBRANCH  23  24
ENDBRANCH  19  21
ENDBRANCH   1  19
TORSDOF 4
ENDMDL
MODEL 7
REMARK VINA RESULT:      -7.4      2.314      4.340
REMARK  4 active torsions:
REMARK  status: ('A' for Active; 'I' for Inactive)
REMARK    1  A    between atoms: C1_2  and  C2_3 
REMARK    2  A    between atoms: C1_2  and  C15_20 
REMARK    3  A    between atoms: C16_22  and  C17_23 
REMARK    4  A    between atoms: C17_23  and  N4_24 
ROOT
HETATM    1  C2  UNL     1      23.519   2.828  50.253  1.00  0.00     0.106 C 
HETATM    2  C3  UNL     1      24.088   3.992  49.577  1.00  0.00    -0.007 C 
HETATM    3  C4  UNL     1      23.288   4.667  48.710  1.00  0.00     0.047 C 
HETATM    4  C5  UNL     1      21.863   4.275  48.399  1.00  0.00     0.129 C 
HETATM    5  N1  UNL     1      22.318   3.329  47.550  1.00  0.00    -0.225 NA
HETATM    6  C6  UNL     1      22.216   1.877  47.837  1.00  0.00     0.235 C 
HETATM    7  N2  UNL     1      21.866   1.220  49.064  1.00  0.00    -0.241 NA
HETATM    8  C7  UNL     1      20.916   2.056  49.840  1.00  0.00     0.069 C 
HETATM    9  C8  UNL     1      22.121   2.609  50.188  1.00  0.00     0.022 C 
HETATM   10  C9  UNL     1      19.682   2.633  50.372  1.00  0.00     0.036 A 
HETATM   11  C10 UNL     1      18.809   2.101  51.204  1.00  0.00     0.025 A 
HETATM   12 BR1  UNL     1      19.393   0.366  51.627  1.00  0.00    -0.050 Br
HETATM   13  C11 UNL     1      17.770   2.944  51.501  1.00  0.00     0.020 A 
HETATM   14  C12 UNL     1      17.713   4.202  50.950  1.00  0.00     0.004 A 
HETATM   15  C13 UNL     1      18.643   4.723  50.087  1.00  0.00     0.030 A 
HETATM   16  C14 UNL     1      19.701   3.935  49.749  1.00  0.00     0.047 A 
HETATM   17  N3  UNL     1      20.527   4.749  48.829  1.00  0.00    -0.340 N 
HETATM   18  H9  UNL     1      20.019   5.605  48.590  1.00  0.00     0.167 HD
ENDROOT
BRANCH   1  19
HETATM   19  C1  UNL     1      24.067   2.772  51.622  1.00  0.00     0.169 C 
HETATM   20  O1  UNL     1      24.862   3.610  51.303  1.00  0.00    -0.294 OA
BRANCH  19  21
HETATM   21  C15 UNL     1      23.501   1.868  52.627  1.00  0.00     0.223 A 
HETATM   22  O2  UNL     1      23.547   0.490  52.494  1.00  0.00    -0.366 OA
HETATM   23  C16 UNL     1      24.409   0.986  53.454  1.00  0.00     0.187 A 
BRANCH  23  24
HETATM   24  C17 UNL     1      25.852   0.986  53.095  1.00  0.00     0.307 C 
BRANCH  24  25
HETATM   25  N4  UNL     1      26.563  -0.233  53.381  1.00  0.00     0.091 N 
HETATM   26  C18 UNL     1      26.901  -1.029  52.246  1.00  0.00     0.272 C 
HETATM   27  C19 UNL     1      27.630  -2.262  52.798  1.00  0.00     0.030 C 
HETATM   28  C20 UNL     1      29.012  -1.880  53.278  1.00  0.00     0.003 C 
HETATM   29  C21 UNL     1      29.025  -0.407  53.529  1.00  0.00     0.030 C 
HETATM   30  C22 UNL     1      27.727   0.027  54.178  1.00  0.00     0.272 C 
ENDBRANCH  24  25
ENDBRANCH  23  24
ENDBRANCH  19  21
ENDBRANCH   1  19
TORSDOF 4
ENDMDL
MODEL 8
REMARK VINA RESULT:      -7.2      6.602      8.424
REMARK  4 active torsions:
REMARK  status: ('A' for Active; 'I' for Inactive)
REMARK    1  A    between atoms: C1_2  and  C2_3 
REMARK    2  A    between atoms: C1_2  and  C15_20 
REMARK    3  A    between atoms: C16_22  and  C17_23 
REMARK    4  A    between atoms: C17_23  and  N4_24 
ROOT
HETATM    1  C2  UNL     1      26.598   5.343  49.235  1.00  0.00     0.106 C 
HETATM    2  C3  UNL     1      26.293   3.943  49.518  1.00  0.00    -0.007 C 
HETATM    3  C4  UNL     1      24.985   3.574  49.522  1.00  0.00     0.047 C 
HETATM    4  C5  UNL     1      23.840   4.526  49.269  1.00  0.00     0.129 C 
HETATM    5  N1  UNL     1      23.927   4.956  50.545  1.00  0.00    -0.225 NA
HETATM    6  C6  UNL     1      24.424   6.307  50.905  1.00  0.00     0.235 C 
HETATM    7  N2  UNL     1      25.087   7.276  50.079  1.00  0.00    -0.241 NA
HETATM    8  C7  UNL     1      24.617   7.161  48.676  1.00  0.00     0.069 C 
HETATM    9  C8  UNL     1      25.575   6.182  48.729  1.00  0.00     0.022 C 
HETATM   10  C9  UNL     1      23.858   7.355  47.440  1.00  0.00     0.036 A 
HETATM   11  C10 UNL     1      23.856   8.389  46.623  1.00  0.00     0.025 A 
HETATM   12 BR1  UNL     1      25.026   9.683  47.320  1.00  0.00    -0.050 Br
HETATM   13  C11 UNL     1      23.028   8.217  45.545  1.00  0.00     0.020 A 
HETATM   14  C12 UNL     1      22.305   7.056  45.399  1.00  0.00     0.004 A 
HETATM   15  C13 UNL     1      22.333   6.000  46.272  1.00  0.00     0.030 A 
HETATM   16  C14 UNL     1      23.137   6.108  47.367  1.00  0.00     0.047 A 
HETATM   17  N3  UNL     1      22.973   4.837  48.109  1.00  0.00    -0.340 N 
HETATM   18  H9  UNL     1      22.212   4.297  47.687  1.00  0.00     0.167 HD
ENDROOT
BRANCH   1  19
HETATM   19  C1  UNL     1      27.851   5.398  48.458  1.00  0.00     0.169 C 
HETATM   20  O1  UNL     1      27.980   4.222  48.644  1.00  0.00    -0.294 OA
BRANCH  19  21
HETATM   21  C15 UNL     1      28.329   6.658  47.881  1.00  0.00     0.223 A 
HETATM   22  O2  UNL     1      28.891   7.660  48.653  1.00  0.00    -0.366 OA
HETATM   23  C16 UNL     1      29.806   6.979  47.873  1.00  0.00     0.187 A 
BRANCH  23  24
HETATM   24  C17 UNL     1      30.701   6.035  48.594  1.00  0.00     0.307 C 
BRANCH  24  25
HETATM   25  N4  UNL     1      31.923   5.696  47.914  1.00  0.00     0.091 N 
HETATM   26  C18 UNL     1      33.106   5.749  48.711  1.00  0.00     0.272 C 
HETATM   27  C19 UNL     1      34.262   5.366  47.776  1.00  0.00     0.030 C 
HETATM   28  C20 UNL     1      34.215   3.887  47.466  1.00  0.00     0.003 C 
HETATM   29  C21 UNL     1      32.827   3.401  47.735  1.00  0.00     0.030 C 
HETATM   30  C22 UNL     1      31.813   4.423  47.263  1.00  0.00     0.272 C 
ENDBRANCH  24  25
ENDBRANCH  23  24
ENDBRANCH  19  21
ENDBRANCH   1  19
TORSDOF 4
ENDMDL
MODEL 9
REMARK VINA RESULT:      -7.2      9.553     12.118
REMARK  4 active torsions:
REMARK  status: ('A' for Active; 'I' for Inactive)
REMARK    1  A    between atoms: C1_2  and  C2_3 
REMARK    2  A    between atoms: C1_2  and  C15_20 
REMARK    3  A    between atoms: C16_22  and  C17_23 
REMARK    4  A    between atoms: C17_23  and  N4_24 
ROOT
HETATM    1  C2  UNL     1      30.623   8.732  47.071  1.00  0.00     0.106 C 
HETATM    2  C3  UNL     1      31.529   8.849  48.211  1.00  0.00    -0.007 C 
HETATM    3  C4  UNL     1      31.024   9.362  49.364  1.00  0.00     0.047 C 
HETATM    4  C5  UNL     1      29.597   9.828  49.524  1.00  0.00     0.129 C 
HETATM    5  N1  UNL     1      29.916  10.989  48.916  1.00  0.00    -0.225 NA
HETATM    6  C6  UNL     1      29.440  11.341  47.556  1.00  0.00     0.235 C 
HETATM    7  N2  UNL     1      28.797  10.509  46.580  1.00  0.00    -0.241 NA
HETATM    8  C7  UNL     1      27.982   9.466  47.253  1.00  0.00     0.069 C 
HETATM    9  C8  UNL     1      29.231   8.902  47.277  1.00  0.00     0.022 C 
HETATM   10  C9  UNL     1      26.863   8.756  47.873  1.00  0.00     0.036 A 
HETATM   11  C10 UNL     1      25.794   8.237  47.304  1.00  0.00     0.025 A 
HETATM   12 BR1  UNL     1      25.896   8.575  45.458  1.00  0.00    -0.050 Br
HETATM   13  C11 UNL     1      24.955   7.627  48.199  1.00  0.00     0.020 A 
HETATM   14  C12 UNL     1      25.265   7.598  49.538  1.00  0.00     0.004 A 
HETATM   15  C13 UNL     1      26.390   8.151  50.094  1.00  0.00     0.030 A 
HETATM   16  C14 UNL     1      27.266   8.774  49.258  1.00  0.00     0.047 A 
HETATM   17  N3  UNL     1      28.368   9.256  50.122  1.00  0.00    -0.340 N 
HETATM   18  H9  UNL     1      28.109   9.120  51.103  1.00  0.00     0.167 HD
ENDROOT
BRANCH   1  19
HETATM   19  C1  UNL     1      30.969   7.507  46.326  1.00  0.00     0.169 C 
HETATM   20  O1  UNL     1      30.342   6.879  47.131  1.00  0.00    -0.294 OA
BRANCH  19  21
HETATM   21  C15 UNL     1      31.794   7.564  45.115  1.00  0.00     0.223 A 
HETATM   22  O2  UNL     1      32.955   8.314  45.045  1.00  0.00    -0.366 OA
HETATM   23  C16 UNL     1      33.175   6.952  45.106  1.00  0.00     0.187 A 
BRANCH  23  24
HETATM   24  C17 UNL     1      33.687   6.434  46.403  1.00  0.00     0.307 C 
BRANCH  24  25
HETATM   25  N4  UNL     1      33.899   5.011  46.463  1.00  0.00     0.091 N 
HETATM   26  C18 UNL     1      34.049   4.466  47.774  1.00  0.00     0.272 C 
HETATM   27  C19 UNL     1      34.274   2.960  47.582  1.00  0.00     0.030 C 
HETATM   28  C20 UNL     1      32.986   2.290  47.160  1.00  0.00     0.003 C 
HETATM   29  C21 UNL     1      32.084   3.336  46.590  1.00  0.00     0.030 C 
HETATM   30  C22 UNL     1      32.878   4.308  45.742  1.00  0.00     0.272 C 
ENDBRANCH  24  25
ENDBRANCH  23  24
ENDBRANCH  19  21
ENDBRANCH   1  19
TORSDOF 4
ENDMDL
