MODEL 1
REMARK VINA RESULT:      -6.8      0.000      0.000
REMARK  10 active torsions:
REMARK  status: ('A' for Active; 'I' for Inactive)
REMARK    1  A    between atoms: C2_2  and  C3_3 
REMARK    2  A    between atoms: C3_3  and  N1_4 
REMARK    3  A    between atoms: N1_4  and  C4_5 
REMARK    4  A    between atoms: C6_7  and  N2_8 
REMARK    5  A    between atoms: C10_13  and  N4_14 
REMARK    6  A    between atoms: C11_15  and  O1_16 
REMARK    7  A    between atoms: C14_19  and  N5_20 
REMARK    8  A    between atoms: N5_20  and  C16_22 
REMARK    9  A    between atoms: C16_22  and  C17_23 
REMARK   10  A    between atoms: C17_23  and  N6_24 
ROOT
HETATM    1  C4  UNL     1      23.324   1.210  52.892  1.00  0.00     0.057 A 
HETATM    2  C5  UNL     1      24.553   0.723  53.260  1.00  0.00     0.064 A 
HETATM    3  C6  UNL     1      25.699   1.120  52.588  1.00  0.00     0.077 A 
HETATM    4  C11 UNL     1      25.549   2.025  51.530  1.00  0.00     0.097 A 
HETATM    5  C13 UNL     1      24.301   2.501  51.179  1.00  0.00     0.070 A 
HETATM    6  C14 UNL     1      23.148   2.096  51.864  1.00  0.00     0.059 A 
ENDROOT
BRANCH   3   7
HETATM    7  N2  UNL     1      26.912   0.567  53.035  1.00  0.00    -0.288 N 
HETATM    8  C7  UNL     1      27.306  -0.696  52.808  1.00  0.00     0.216 A 
HETATM    9  N3  UNL     1      28.477  -1.189  53.256  1.00  0.00    -0.255 NA
HETATM   10  C8  UNL     1      29.323  -0.397  53.974  1.00  0.00     0.122 A 
HETATM   11  C9  UNL     1      28.955   0.926  54.235  1.00  0.00     0.070 A 
HETATM   12  C10 UNL     1      27.743   1.377  53.752  1.00  0.00     0.129 A 
BRANCH  12  13
HETATM   13  N4  UNL     1      27.385   2.603  53.984  1.00  0.00    -0.283 NA
HETATM   14  H11 UNL     1      28.109   3.321  54.217  1.00  0.00     0.188 HD
ENDBRANCH  12  13
ENDBRANCH   3   7
BRANCH   4  15
HETATM   15  O1  UNL     1      26.773   2.330  50.953  1.00  0.00    -0.354 OA
HETATM   16  C12 UNL     1      26.802   3.340  49.962  1.00  0.00     0.210 C 
ENDBRANCH   4  15
BRANCH   1  17
HETATM   17  N1  UNL     1      22.121   0.823  53.533  1.00  0.00    -0.385 N 
HETATM   18  H6  UNL     1      21.508   1.389  54.118  1.00  0.00     0.160 HD
BRANCH  17  19
HETATM   19  C3  UNL     1      21.684  -0.542  53.352  1.00  0.00     0.146 C 
BRANCH  19  20
HETATM   20  C2  UNL     1      21.870  -1.393  54.543  1.00  0.00    -0.018 C 
HETATM   21  C1  UNL     1      22.785  -1.642  55.447  1.00  0.00     0.008 C 
ENDBRANCH  19  20
ENDBRANCH  17  19
ENDBRANCH   1  17
BRANCH   6  22
HETATM   22  N5  UNL     1      22.014   2.752  51.317  1.00  0.00    -0.382 N 
HETATM   23  C15 UNL     1      21.746   4.175  51.512  1.00  0.00     0.150 C 
BRANCH  22  24
HETATM   24  C16 UNL     1      20.972   2.105  50.589  1.00  0.00     0.152 C 
BRANCH  24  25
HETATM   25  C17 UNL     1      21.265   1.142  49.521  1.00  0.00     0.291 C 
BRANCH  25  26
HETATM   26  N6  UNL     1      21.244   1.567  48.158  1.00  0.00     0.081 N 
HETATM   27  C18 UNL     1      20.267   2.684  48.003  1.00  0.00     0.309 C 
HETATM   28  C19 UNL     1      22.506   2.174  47.782  1.00  0.00     0.309 C 
ENDBRANCH  25  26
ENDBRANCH  24  25
ENDBRANCH  22  24
ENDBRANCH   6  22
TORSDOF 10
ENDMDL
MODEL 2
REMARK VINA RESULT:      -6.8      1.071      2.136
REMARK  10 active torsions:
REMARK  status: ('A' for Active; 'I' for Inactive)
REMARK    1  A    between atoms: C2_2  and  C3_3 
REMARK    2  A    between atoms: C3_3  and  N1_4 
REMARK    3  A    between atoms: N1_4  and  C4_5 
REMARK    4  A    between atoms: C6_7  and  N2_8 
REMARK    5  A    between atoms: C10_13  and  N4_14 
REMARK    6  A    between atoms: C11_15  and  O1_16 
REMARK    7  A    between atoms: C14_19  and  N5_20 
REMARK    8  A    between atoms: N5_20  and  C16_22 
REMARK    9  A    between atoms: C16_22  and  C17_23 
REMARK   10  A    between atoms: C17_23  and  N6_24 
ROOT
HETATM    1  C4  UNL     1      23.303   1.191  52.814  1.00  0.00     0.057 A 
HETATM    2  C5  UNL     1      24.530   0.718  53.208  1.00  0.00     0.064 A 
HETATM    3  C6  UNL     1      25.683   1.115  52.547  1.00  0.00     0.077 A 
HETATM    4  C11 UNL     1      25.542   2.005  51.476  1.00  0.00     0.097 A 
HETATM    5  C13 UNL     1      24.297   2.467  51.099  1.00  0.00     0.070 A 
HETATM    6  C14 UNL     1      23.136   2.062  51.772  1.00  0.00     0.059 A 
ENDROOT
BRANCH   3   7
HETATM    7  N2  UNL     1      26.893   0.578  53.021  1.00  0.00    -0.288 N 
HETATM    8  C7  UNL     1      27.306  -0.681  52.805  1.00  0.00     0.216 A 
HETATM    9  N3  UNL     1      28.474  -1.159  53.277  1.00  0.00    -0.255 NA
HETATM   10  C8  UNL     1      29.297  -0.355  54.010  1.00  0.00     0.122 A 
HETATM   11  C9  UNL     1      28.908   0.963  54.260  1.00  0.00     0.070 A 
HETATM   12  C10 UNL     1      27.700   1.399  53.751  1.00  0.00     0.129 A 
BRANCH  12  13
HETATM   13  N4  UNL     1      27.323   2.622  53.972  1.00  0.00    -0.283 NA
HETATM   14  H11 UNL     1      27.523   3.363  53.261  1.00  0.00     0.188 HD
ENDBRANCH  12  13
ENDBRANCH   3   7
BRANCH   4  15
HETATM   15  O1  UNL     1      26.773   2.313  50.913  1.00  0.00    -0.354 OA
HETATM   16  C12 UNL     1      26.815   3.334  49.936  1.00  0.00     0.210 C 
ENDBRANCH   4  15
BRANCH   1  17
HETATM   17  N1  UNL     1      22.094   0.803  53.441  1.00  0.00    -0.385 N 
HETATM   18  H6  UNL     1      21.475   1.368  54.022  1.00  0.00     0.160 HD
BRANCH  17  19
HETATM   19  C3  UNL     1      21.657  -0.562  53.252  1.00  0.00     0.146 C 
BRANCH  19  20
HETATM   20  C2  UNL     1      21.847  -1.420  54.438  1.00  0.00    -0.018 C 
HETATM   21  C1  UNL     1      22.706  -1.582  55.414  1.00  0.00     0.008 C 
ENDBRANCH  19  20
ENDBRANCH  17  19
ENDBRANCH   1  17
BRANCH   6  22
HETATM   22  N5  UNL     1      22.006   2.702  51.199  1.00  0.00    -0.382 N 
HETATM   23  C15 UNL     1      21.483   2.365  49.878  1.00  0.00     0.150 C 
BRANCH  22  24
HETATM   24  C16 UNL     1      21.298   3.788  51.795  1.00  0.00     0.152 C 
BRANCH  24  25
HETATM   25  C17 UNL     1      21.931   5.095  52.007  1.00  0.00     0.291 C 
BRANCH  25  26
HETATM   26  N6  UNL     1      22.563   5.762  50.915  1.00  0.00     0.081 N 
HETATM   27  C18 UNL     1      21.913   7.089  50.703  1.00  0.00     0.309 C 
HETATM   28  C19 UNL     1      23.933   6.111  51.238  1.00  0.00     0.309 C 
ENDBRANCH  25  26
ENDBRANCH  24  25
ENDBRANCH  22  24
ENDBRANCH   6  22
TORSDOF 10
ENDMDL
MODEL 3
REMARK VINA RESULT:      -6.8      2.037      7.560
REMARK  10 active torsions:
REMARK  status: ('A' for Active; 'I' for Inactive)
REMARK    1  A    between atoms: C2_2  and  C3_3 
REMARK    2  A    between atoms: C3_3  and  N1_4 
REMARK    3  A    between atoms: N1_4  and  C4_5 
REMARK    4  A    between atoms: C6_7  and  N2_8 
REMARK    5  A    between atoms: C10_13  and  N4_14 
REMARK    6  A    between atoms: C11_15  and  O1_16 
REMARK    7  A    between atoms: C14_19  and  N5_20 
REMARK    8  A    between atoms: N5_20  and  C16_22 
REMARK    9  A    between atoms: C16_22  and  C17_23 
REMARK   10  A    between atoms: C17_23  and  N6_24 
ROOT
HETATM    1  C4  UNL     1      24.599   1.966  52.323  1.00  0.00     0.057 A 
HETATM    2  C5  UNL     1      23.347   2.380  51.941  1.00  0.00     0.064 A 
HETATM    3  C6  UNL     1      22.239   1.579  52.169  1.00  0.00     0.077 A 
HETATM    4  C11 UNL     1      22.450   0.345  52.797  1.00  0.00     0.097 A 
HETATM    5  C13 UNL     1      23.718  -0.049  53.172  1.00  0.00     0.070 A 
HETATM    6  C14 UNL     1      24.833   0.766  52.939  1.00  0.00     0.059 A 
ENDROOT
BRANCH   3   7
HETATM    7  N2  UNL     1      20.999   2.087  51.742  1.00  0.00    -0.288 N 
HETATM    8  C7  UNL     1      20.255   2.966  52.432  1.00  0.00     0.216 A 
HETATM    9  N3  UNL     1      19.070   3.429  51.989  1.00  0.00    -0.255 NA
HETATM   10  C8  UNL     1      18.575   3.006  50.791  1.00  0.00     0.122 A 
HETATM   11  C9  UNL     1      19.315   2.090  50.038  1.00  0.00     0.070 A 
HETATM   12  C10 UNL     1      20.522   1.650  50.541  1.00  0.00     0.129 A 
BRANCH  12  13
HETATM   13  N4  UNL     1      21.224   0.800  49.855  1.00  0.00    -0.283 NA
HETATM   14  H11 UNL     1      20.856   0.438  48.945  1.00  0.00     0.188 HD
ENDBRANCH  12  13
ENDBRANCH   3   7
BRANCH   4  15
HETATM   15  O1  UNL     1      21.257  -0.346  52.959  1.00  0.00    -0.354 OA
HETATM   16  C12 UNL     1      21.126  -1.176  54.097  1.00  0.00     0.210 C 
ENDBRANCH   4  15
BRANCH   1  17
HETATM   17  N1  UNL     1      25.765   2.737  52.096  1.00  0.00    -0.385 N 
HETATM   18  H6  UNL     1      26.180   3.446  52.700  1.00  0.00     0.160 HD
BRANCH  17  19
HETATM   19  C3  UNL     1      26.478   2.512  50.859  1.00  0.00     0.146 C 
BRANCH  19  20
HETATM   20  C2  UNL     1      26.315   3.594  49.869  1.00  0.00    -0.018 C 
HETATM   21  C1  UNL     1      27.056   4.336  49.084  1.00  0.00     0.008 C 
ENDBRANCH  19  20
ENDBRANCH  17  19
ENDBRANCH   1  17
BRANCH   6  22
HETATM   22  N5  UNL     1      26.000   0.134  53.443  1.00  0.00    -0.382 N 
HETATM   23  C15 UNL     1      26.544  -1.100  52.881  1.00  0.00     0.150 C 
BRANCH  22  24
HETATM   24  C16 UNL     1      26.731   0.571  54.587  1.00  0.00     0.152 C 
BRANCH  24  25
HETATM   25  C17 UNL     1      28.066   0.044  54.893  1.00  0.00     0.291 C 
BRANCH  25  26
HETATM   26  N6  UNL     1      29.225   0.787  54.517  1.00  0.00     0.081 N 
HETATM   27  C18 UNL     1      30.002   0.011  53.505  1.00  0.00     0.309 C 
HETATM   28  C19 UNL     1      28.861   1.995  53.802  1.00  0.00     0.309 C 
ENDBRANCH  25  26
ENDBRANCH  24  25
ENDBRANCH  22  24
ENDBRANCH   6  22
TORSDOF 10
ENDMDL
MODEL 4
REMARK VINA RESULT:      -6.8      2.079      4.686
REMARK  10 active torsions:
REMARK  status: ('A' for Active; 'I' for Inactive)
REMARK    1  A    between atoms: C2_2  and  C3_3 
REMARK    2  A    between atoms: C3_3  and  N1_4 
REMARK    3  A    between atoms: N1_4  and  C4_5 
REMARK    4  A    between atoms: C6_7  and  N2_8 
REMARK    5  A    between atoms: C10_13  and  N4_14 
REMARK    6  A    between atoms: C11_15  and  O1_16 
REMARK    7  A    between atoms: C14_19  and  N5_20 
REMARK    8  A    between atoms: N5_20  and  C16_22 
REMARK    9  A    between atoms: C16_22  and  C17_23 
REMARK   10  A    between atoms: C17_23  and  N6_24 
ROOT
HETATM    1  C4  UNL     1      25.363   2.740  50.476  1.00  0.00     0.057 A 
HETATM    2  C5  UNL     1      26.344   2.086  51.179  1.00  0.00     0.064 A 
HETATM    3  C6  UNL     1      26.019   1.284  52.263  1.00  0.00     0.077 A 
HETATM    4  C11 UNL     1      24.665   1.174  52.604  1.00  0.00     0.097 A 
HETATM    5  C13 UNL     1      23.697   1.841  51.880  1.00  0.00     0.070 A 
HETATM    6  C14 UNL     1      24.033   2.648  50.786  1.00  0.00     0.059 A 
ENDROOT
BRANCH   3   7
HETATM    7  N2  UNL     1      27.090   0.657  52.922  1.00  0.00    -0.288 N 
HETATM    8  C7  UNL     1      27.439  -0.630  52.759  1.00  0.00     0.216 A 
HETATM    9  N3  UNL     1      28.473  -1.195  53.411  1.00  0.00    -0.255 NA
HETATM   10  C8  UNL     1      29.219  -0.458  54.282  1.00  0.00     0.122 A 
HETATM   11  C9  UNL     1      28.893   0.886  54.485  1.00  0.00     0.070 A 
HETATM   12  C10 UNL     1      27.822   1.412  53.790  1.00  0.00     0.129 A 
BRANCH  12  13
HETATM   13  N4  UNL     1      27.505   2.659  53.964  1.00  0.00    -0.283 NA
HETATM   14  H11 UNL     1      28.170   3.301  54.454  1.00  0.00     0.188 HD
ENDBRANCH  12  13
ENDBRANCH   3   7
BRANCH   4  15
HETATM   15  O1  UNL     1      24.490   0.344  53.702  1.00  0.00    -0.354 OA
HETATM   16  C12 UNL     1      23.315  -0.443  53.754  1.00  0.00     0.210 C 
ENDBRANCH   4  15
BRANCH   1  17
HETATM   17  N1  UNL     1      25.643   3.585  49.374  1.00  0.00    -0.385 N 
HETATM   18  H6  UNL     1      25.594   3.363  48.380  1.00  0.00     0.160 HD
BRANCH  17  19
HETATM   19  C3  UNL     1      26.052   4.940  49.666  1.00  0.00     0.146 C 
BRANCH  19  20
HETATM   20  C2  UNL     1      27.074   5.468  48.741  1.00  0.00    -0.018 C 
HETATM   21  C1  UNL     1      28.323   5.243  48.415  1.00  0.00     0.008 C 
ENDBRANCH  19  20
ENDBRANCH  17  19
ENDBRANCH   1  17
BRANCH   6  22
HETATM   22  N5  UNL     1      22.853   3.190  50.213  1.00  0.00    -0.382 N 
HETATM   23  C15 UNL     1      22.252   2.671  48.987  1.00  0.00     0.150 C 
BRANCH  22  24
HETATM   24  C16 UNL     1      22.161   4.336  50.706  1.00  0.00     0.152 C 
BRANCH  24  25
HETATM   25  C17 UNL     1      22.881   5.524  51.179  1.00  0.00     0.291 C 
BRANCH  25  26
HETATM   26  N6  UNL     1      22.804   6.741  50.438  1.00  0.00     0.081 N 
HETATM   27  C18 UNL     1      21.502   7.413  50.724  1.00  0.00     0.309 C 
HETATM   28  C19 UNL     1      23.785   7.701  50.907  1.00  0.00     0.309 C 
ENDBRANCH  25  26
ENDBRANCH  24  25
ENDBRANCH  22  24
ENDBRANCH   6  22
TORSDOF 10
ENDMDL
MODEL 5
REMARK VINA RESULT:      -6.7      2.118      4.237
REMARK  10 active torsions:
REMARK  status: ('A' for Active; 'I' for Inactive)
REMARK    1  A    between atoms: C2_2  and  C3_3 
REMARK    2  A    between atoms: C3_3  and  N1_4 
REMARK    3  A    between atoms: N1_4  and  C4_5 
REMARK    4  A    between atoms: C6_7  and  N2_8 
REMARK    5  A    between atoms: C10_13  and  N4_14 
REMARK    6  A    between atoms: C11_15  and  O1_16 
REMARK    7  A    between atoms: C14_19  and  N5_20 
REMARK    8  A    between atoms: N5_20  and  C16_22 
REMARK    9  A    between atoms: C16_22  and  C17_23 
REMARK   10  A    between atoms: C17_23  and  N6_24 
ROOT
HETATM    1  C4  UNL     1      23.899   1.700  51.505  1.00  0.00     0.057 A 
HETATM    2  C5  UNL     1      25.127   1.211  51.876  1.00  0.00     0.064 A 
HETATM    3  C6  UNL     1      25.245   0.343  52.951  1.00  0.00     0.077 A 
HETATM    4  C11 UNL     1      24.073  -0.009  53.631  1.00  0.00     0.097 A 
HETATM    5  C13 UNL     1      22.849   0.495  53.238  1.00  0.00     0.070 A 
HETATM    6  C14 UNL     1      22.738   1.372  52.151  1.00  0.00     0.059 A 
ENDROOT
BRANCH   3   7
HETATM    7  N2  UNL     1      26.543  -0.103  53.257  1.00  0.00    -0.288 N 
HETATM    8  C7  UNL     1      27.065  -1.271  52.849  1.00  0.00     0.216 A 
HETATM    9  N3  UNL     1      28.315  -1.663  53.165  1.00  0.00    -0.255 NA
HETATM   10  C8  UNL     1      29.110  -0.864  53.931  1.00  0.00     0.122 A 
HETATM   11  C9  UNL     1      28.609   0.361  54.379  1.00  0.00     0.070 A 
HETATM   12  C10 UNL     1      27.321   0.712  54.024  1.00  0.00     0.129 A 
BRANCH  12  13
HETATM   13  N4  UNL     1      26.839   1.847  54.430  1.00  0.00    -0.283 NA
HETATM   14  H11 UNL     1      26.014   2.265  53.940  1.00  0.00     0.188 HD
ENDBRANCH  12  13
ENDBRANCH   3   7
BRANCH   4  15
HETATM   15  O1  UNL     1      24.342  -0.879  54.678  1.00  0.00    -0.354 OA
HETATM   16  C12 UNL     1      23.245  -1.375  55.421  1.00  0.00     0.210 C 
ENDBRANCH   4  15
BRANCH   1  17
HETATM   17  N1  UNL     1      23.726   2.603  50.428  1.00  0.00    -0.385 N 
HETATM   18  H6  UNL     1      23.181   2.473  49.576  1.00  0.00     0.160 HD
BRANCH  17  19
HETATM   19  C3  UNL     1      24.395   3.881  50.522  1.00  0.00     0.146 C 
BRANCH  19  20
HETATM   20  C2  UNL     1      25.439   4.085  49.498  1.00  0.00    -0.018 C 
HETATM   21  C1  UNL     1      26.737   3.966  49.373  1.00  0.00     0.008 C 
ENDBRANCH  19  20
ENDBRANCH  17  19
ENDBRANCH   1  17
BRANCH   6  22
HETATM   22  N5  UNL     1      21.375   1.712  51.951  1.00  0.00    -0.382 N 
HETATM   23  C15 UNL     1      20.822   3.022  52.288  1.00  0.00     0.150 C 
BRANCH  22  24
HETATM   24  C16 UNL     1      20.373   0.814  51.479  1.00  0.00     0.152 C 
BRANCH  24  25
HETATM   25  C17 UNL     1      19.383   0.220  52.385  1.00  0.00     0.291 C 
BRANCH  25  26
HETATM   26  N6  UNL     1      18.344  -0.604  51.859  1.00  0.00     0.081 N 
HETATM   27  C18 UNL     1      17.670  -1.326  52.978  1.00  0.00     0.309 C 
HETATM   28  C19 UNL     1      17.278   0.199  51.290  1.00  0.00     0.309 C 
ENDBRANCH  25  26
ENDBRANCH  24  25
ENDBRANCH  22  24
ENDBRANCH   6  22
TORSDOF 10
ENDMDL
MODEL 6
REMARK VINA RESULT:      -6.7      1.734      4.320
REMARK  10 active torsions:
REMARK  status: ('A' for Active; 'I' for Inactive)
REMARK    1  A    between atoms: C2_2  and  C3_3 
REMARK    2  A    between atoms: C3_3  and  N1_4 
REMARK    3  A    between atoms: N1_4  and  C4_5 
REMARK    4  A    between atoms: C6_7  and  N2_8 
REMARK    5  A    between atoms: C10_13  and  N4_14 
REMARK    6  A    between atoms: C11_15  and  O1_16 
REMARK    7  A    between atoms: C14_19  and  N5_20 
REMARK    8  A    between atoms: N5_20  and  C16_22 
REMARK    9  A    between atoms: C16_22  and  C17_23 
REMARK   10  A    between atoms: C17_23  and  N6_24 
ROOT
HETATM    1  C4  UNL     1      25.439   2.786  50.561  1.00  0.00     0.057 A 
HETATM    2  C5  UNL     1      26.420   2.070  51.200  1.00  0.00     0.064 A 
HETATM    3  C6  UNL     1      26.125   1.324  52.331  1.00  0.00     0.077 A 
HETATM    4  C11 UNL     1      24.801   1.335  52.788  1.00  0.00     0.097 A 
HETATM    5  C13 UNL     1      23.832   2.063  52.127  1.00  0.00     0.070 A 
HETATM    6  C14 UNL     1      24.137   2.813  50.984  1.00  0.00     0.059 A 
ENDROOT
BRANCH   3   7
HETATM    7  N2  UNL     1      27.194   0.625  52.918  1.00  0.00    -0.288 N 
HETATM    8  C7  UNL     1      27.449  -0.680  52.730  1.00  0.00     0.216 A 
HETATM    9  N3  UNL     1      28.485  -1.314  53.311  1.00  0.00    -0.255 NA
HETATM   10  C8  UNL     1      29.332  -0.631  54.133  1.00  0.00     0.122 A 
HETATM   11  C9  UNL     1      29.107   0.729  54.358  1.00  0.00     0.070 A 
HETATM   12  C10 UNL     1      28.030   1.328  53.736  1.00  0.00     0.129 A 
BRANCH  12  13
HETATM   13  N4  UNL     1      27.805   2.591  53.932  1.00  0.00    -0.283 NA
HETATM   14  H11 UNL     1      28.585   3.280  53.825  1.00  0.00     0.188 HD
ENDBRANCH  12  13
ENDBRANCH   3   7
BRANCH   4  15
HETATM   15  O1  UNL     1      24.655   0.549  53.922  1.00  0.00    -0.354 OA
HETATM   16  C12 UNL     1      23.803  -0.577  53.838  1.00  0.00     0.210 C 
ENDBRANCH   4  15
BRANCH   1  17
HETATM   17  N1  UNL     1      25.690   3.578  49.414  1.00  0.00    -0.385 N 
HETATM   18  H6  UNL     1      25.552   3.331  48.434  1.00  0.00     0.160 HD
BRANCH  17  19
HETATM   19  C3  UNL     1      26.209   4.910  49.629  1.00  0.00     0.146 C 
BRANCH  19  20
HETATM   20  C2  UNL     1      27.175   5.348  48.604  1.00  0.00    -0.018 C 
HETATM   21  C1  UNL     1      28.470   5.369  48.411  1.00  0.00     0.008 C 
ENDBRANCH  19  20
ENDBRANCH  17  19
ENDBRANCH   1  17
BRANCH   6  22
HETATM   22  N5  UNL     1      22.960   3.438  50.496  1.00  0.00    -0.382 N 
HETATM   23  C15 UNL     1      22.624   4.833  50.771  1.00  0.00     0.150 C 
BRANCH  22  24
HETATM   24  C16 UNL     1      21.936   2.777  49.754  1.00  0.00     0.152 C 
BRANCH  24  25
HETATM   25  C17 UNL     1      20.519   2.917  50.107  1.00  0.00     0.291 C 
BRANCH  25  26
HETATM   26  N6  UNL     1      19.908   1.966  50.979  1.00  0.00     0.081 N 
HETATM   27  C18 UNL     1      20.641   0.670  50.888  1.00  0.00     0.309 C 
HETATM   28  C19 UNL     1      20.076   2.349  52.368  1.00  0.00     0.309 C 
ENDBRANCH  25  26
ENDBRANCH  24  25
ENDBRANCH  22  24
ENDBRANCH   6  22
TORSDOF 10
ENDMDL
MODEL 7
REMARK VINA RESULT:      -6.5      1.990      4.256
REMARK  10 active torsions:
REMARK  status: ('A' for Active; 'I' for Inactive)
REMARK    1  A    between atoms: C2_2  and  C3_3 
REMARK    2  A    between atoms: C3_3  and  N1_4 
REMARK    3  A    between atoms: N1_4  and  C4_5 
REMARK    4  A    between atoms: C6_7  and  N2_8 
REMARK    5  A    between atoms: C10_13  and  N4_14 
REMARK    6  A    between atoms: C11_15  and  O1_16 
REMARK    7  A    between atoms: C14_19  and  N5_20 
REMARK    8  A    between atoms: N5_20  and  C16_22 
REMARK    9  A    between atoms: C16_22  and  C17_23 
REMARK   10  A    between atoms: C17_23  and  N6_24 
ROOT
HETATM    1  C4  UNL     1      24.409   1.705  51.404  1.00  0.00     0.057 A 
HETATM    2  C5  UNL     1      25.654   1.330  51.844  1.00  0.00     0.064 A 
HETATM    3  C6  UNL     1      25.792   0.464  52.917  1.00  0.00     0.077 A 
HETATM    4  C11 UNL     1      24.620  -0.006  53.525  1.00  0.00     0.097 A 
HETATM    5  C13 UNL     1      23.379   0.385  53.063  1.00  0.00     0.070 A 
HETATM    6  C14 UNL     1      23.249   1.260  51.977  1.00  0.00     0.059 A 
ENDROOT
BRANCH   3   7
HETATM    7  N2  UNL     1      27.105   0.139  53.297  1.00  0.00    -0.288 N 
HETATM    8  C7  UNL     1      27.927   0.954  53.978  1.00  0.00     0.216 A 
HETATM    9  N3  UNL     1      29.182   0.605  54.323  1.00  0.00    -0.255 NA
HETATM   10  C8  UNL     1      29.671  -0.622  53.981  1.00  0.00     0.122 A 
HETATM   11  C9  UNL     1      28.851  -1.503  53.272  1.00  0.00     0.070 A 
HETATM   12  C10 UNL     1      27.574  -1.093  52.945  1.00  0.00     0.129 A 
BRANCH  12  13
HETATM   13  N4  UNL     1      26.797  -1.899  52.287  1.00  0.00    -0.283 NA
HETATM   14  H11 UNL     1      26.879  -2.932  52.431  1.00  0.00     0.188 HD
ENDBRANCH  12  13
ENDBRANCH   3   7
BRANCH   4  15
HETATM   15  O1  UNL     1      24.910  -0.859  54.580  1.00  0.00    -0.354 OA
HETATM   16  C12 UNL     1      23.847  -1.234  55.435  1.00  0.00     0.210 C 
ENDBRANCH   4  15
BRANCH   1  17
HETATM   17  N1  UNL     1      24.214   2.601  50.325  1.00  0.00    -0.385 N 
HETATM   18  H6  UNL     1      23.870   2.394  49.387  1.00  0.00     0.160 HD
BRANCH  17  19
HETATM   19  C3  UNL     1      24.534   3.992  50.552  1.00  0.00     0.146 C 
BRANCH  19  20
HETATM   20  C2  UNL     1      25.663   4.486  49.741  1.00  0.00    -0.018 C 
HETATM   21  C1  UNL     1      26.827   4.068  49.308  1.00  0.00     0.008 C 
ENDBRANCH  19  20
ENDBRANCH  17  19
ENDBRANCH   1  17
BRANCH   6  22
HETATM   22  N5  UNL     1      21.873   1.472  51.699  1.00  0.00    -0.382 N 
HETATM   23  C15 UNL     1      21.049   0.510  50.972  1.00  0.00     0.150 C 
BRANCH  22  24
HETATM   24  C16 UNL     1      21.152   2.662  52.019  1.00  0.00     0.152 C 
BRANCH  24  25
HETATM   25  C17 UNL     1      19.690   2.665  52.140  1.00  0.00     0.291 C 
BRANCH  25  26
HETATM   26  N6  UNL     1      18.937   3.752  51.604  1.00  0.00     0.081 N 
HETATM   27  C18 UNL     1      19.438   4.072  50.235  1.00  0.00     0.309 C 
HETATM   28  C19 UNL     1      17.558   3.366  51.372  1.00  0.00     0.309 C 
ENDBRANCH  25  26
ENDBRANCH  24  25
ENDBRANCH  22  24
ENDBRANCH   6  22
TORSDOF 10
ENDMDL
MODEL 8
REMARK VINA RESULT:      -6.2      1.855      4.296
REMARK  10 active torsions:
REMARK  status: ('A' for Active; 'I' for Inactive)
REMARK    1  A    between atoms: C2_2  and  C3_3 
REMARK    2  A    between atoms: C3_3  and  N1_4 
REMARK    3  A    between atoms: N1_4  and  C4_5 
REMARK    4  A    between atoms: C6_7  and  N2_8 
REMARK    5  A    between atoms: C10_13  and  N4_14 
REMARK    6  A    between atoms: C11_15  and  O1_16 
REMARK    7  A    between atoms: C14_19  and  N5_20 
REMARK    8  A    between atoms: N5_20  and  C16_22 
REMARK    9  A    between atoms: C16_22  and  C17_23 
REMARK   10  A    between atoms: C17_23  and  N6_24 
ROOT
HETATM    1  C4  UNL     1      25.728   2.738  50.294  1.00  0.00     0.057 A 
HETATM    2  C5  UNL     1      26.631   2.071  51.083  1.00  0.00     0.064 A 
HETATM    3  C6  UNL     1      26.196   1.242  52.106  1.00  0.00     0.077 A 
HETATM    4  C11 UNL     1      24.815   1.118  52.297  1.00  0.00     0.097 A 
HETATM    5  C13 UNL     1      23.926   1.800  51.489  1.00  0.00     0.070 A 
HETATM    6  C14 UNL     1      24.373   2.635  50.457  1.00  0.00     0.059 A 
ENDROOT
BRANCH   3   7
HETATM    7  N2  UNL     1      27.194   0.603  52.862  1.00  0.00    -0.288 N 
HETATM    8  C7  UNL     1      27.527  -0.693  52.747  1.00  0.00     0.216 A 
HETATM    9  N3  UNL     1      28.490  -1.270  53.492  1.00  0.00    -0.255 NA
HETATM   10  C8  UNL     1      29.177  -0.535  54.412  1.00  0.00     0.122 A 
HETATM   11  C9  UNL     1      28.865   0.818  54.567  1.00  0.00     0.070 A 
HETATM   12  C10 UNL     1      27.868   1.357  53.777  1.00  0.00     0.129 A 
BRANCH  12  13
HETATM   13  N4  UNL     1      27.566   2.612  53.906  1.00  0.00    -0.283 NA
HETATM   14  H11 UNL     1      27.890   3.301  53.188  1.00  0.00     0.188 HD
ENDBRANCH  12  13
ENDBRANCH   3   7
BRANCH   4  15
HETATM   15  O1  UNL     1      24.528   0.262  53.350  1.00  0.00    -0.354 OA
HETATM   16  C12 UNL     1      23.173  -0.082  53.570  1.00  0.00     0.210 C 
ENDBRANCH   4  15
BRANCH   1  17
HETATM   17  N1  UNL     1      26.119   3.611  49.249  1.00  0.00    -0.385 N 
HETATM   18  H6  UNL     1      26.263   3.390  48.264  1.00  0.00     0.160 HD
BRANCH  17  19
HETATM   19  C3  UNL     1      26.352   4.995  49.594  1.00  0.00     0.146 C 
BRANCH  19  20
HETATM   20  C2  UNL     1      27.089   5.752  48.564  1.00  0.00    -0.018 C 
HETATM   21  C1  UNL     1      28.316   6.128  48.302  1.00  0.00     0.008 C 
ENDBRANCH  19  20
ENDBRANCH  17  19
ENDBRANCH   1  17
BRANCH   6  22
HETATM   22  N5  UNL     1      23.258   3.186  49.773  1.00  0.00    -0.382 N 
HETATM   23  C15 UNL     1      22.540   4.368  50.242  1.00  0.00     0.150 C 
BRANCH  22  24
HETATM   24  C16 UNL     1      22.659   2.623  48.607  1.00  0.00     0.152 C 
BRANCH  24  25
HETATM   25  C17 UNL     1      21.204   2.610  48.420  1.00  0.00     0.291 C 
BRANCH  25  26
HETATM   26  N6  UNL     1      20.637   3.160  47.232  1.00  0.00     0.081 N 
HETATM   27  C18 UNL     1      19.913   4.422  47.568  1.00  0.00     0.309 C 
HETATM   28  C19 UNL     1      21.671   3.603  46.316  1.00  0.00     0.309 C 
ENDBRANCH  25  26
ENDBRANCH  24  25
ENDBRANCH  22  24
ENDBRANCH   6  22
TORSDOF 10
ENDMDL
MODEL 9
REMARK VINA RESULT:      -6.1      1.538      2.144
REMARK  10 active torsions:
REMARK  status: ('A' for Active; 'I' for Inactive)
REMARK    1  A    between atoms: C2_2  and  C3_3 
REMARK    2  A    between atoms: C3_3  and  N1_4 
REMARK    3  A    between atoms: N1_4  and  C4_5 
REMARK    4  A    between atoms: C6_7  and  N2_8 
REMARK    5  A    between atoms: C10_13  and  N4_14 
REMARK    6  A    between atoms: C11_15  and  O1_16 
REMARK    7  A    between atoms: C14_19  and  N5_20 
REMARK    8  A    between atoms: N5_20  and  C16_22 
REMARK    9  A    between atoms: C16_22  and  C17_23 
REMARK   10  A    between atoms: C17_23  and  N6_24 
ROOT
HETATM    1  C4  UNL     1      22.745   1.220  51.913  1.00  0.00     0.057 A 
HETATM    2  C5  UNL     1      23.907   0.726  52.451  1.00  0.00     0.064 A 
HETATM    3  C6  UNL     1      25.138   1.223  52.051  1.00  0.00     0.077 A 
HETATM    4  C11 UNL     1      25.143   2.238  51.085  1.00  0.00     0.097 A 
HETATM    5  C13 UNL     1      23.960   2.719  50.559  1.00  0.00     0.070 A 
HETATM    6  C14 UNL     1      22.721   2.211  50.969  1.00  0.00     0.059 A 
ENDROOT
BRANCH   3   7
HETATM    7  N2  UNL     1      26.271   0.655  52.656  1.00  0.00    -0.288 N 
HETATM    8  C7  UNL     1      26.806  -0.529  52.317  1.00  0.00     0.216 A 
HETATM    9  N3  UNL     1      27.895  -1.041  52.923  1.00  0.00    -0.255 NA
HETATM   10  C8  UNL     1      28.505  -0.353  53.929  1.00  0.00     0.122 A 
HETATM   11  C9  UNL     1      27.984   0.884  54.317  1.00  0.00     0.070 A 
HETATM   12  C10 UNL     1      26.866   1.360  53.661  1.00  0.00     0.129 A 
BRANCH  12  13
HETATM   13  N4  UNL     1      26.368   2.508  54.006  1.00  0.00    -0.283 NA
HETATM   14  H11 UNL     1      26.359   2.788  55.015  1.00  0.00     0.188 HD
ENDBRANCH  12  13
ENDBRANCH   3   7
BRANCH   4  15
HETATM   15  O1  UNL     1      26.437   2.636  50.783  1.00  0.00    -0.354 OA
HETATM   16  C12 UNL     1      26.621   3.494  49.673  1.00  0.00     0.210 C 
ENDBRANCH   4  15
BRANCH   1  17
HETATM   17  N1  UNL     1      21.465   0.734  52.273  1.00  0.00    -0.385 N 
HETATM   18  H6  UNL     1      20.669   0.540  51.665  1.00  0.00     0.160 HD
BRANCH  17  19
HETATM   19  C3  UNL     1      21.226   0.470  53.674  1.00  0.00     0.146 C 
BRANCH  19  20
HETATM   20  C2  UNL     1      21.114  -0.965  54.001  1.00  0.00    -0.018 C 
HETATM   21  C1  UNL     1      21.729  -1.864  54.729  1.00  0.00     0.008 C 
ENDBRANCH  19  20
ENDBRANCH  17  19
ENDBRANCH   1  17
BRANCH   6  22
HETATM   22  N5  UNL     1      21.678   2.896  50.293  1.00  0.00    -0.382 N 
HETATM   23  C15 UNL     1      21.328   2.638  48.898  1.00  0.00     0.150 C 
BRANCH  22  24
HETATM   24  C16 UNL     1      20.905   3.957  50.852  1.00  0.00     0.152 C 
BRANCH  24  25
HETATM   25  C17 UNL     1      19.655   3.700  51.575  1.00  0.00     0.291 C 
BRANCH  25  26
HETATM   26  N6  UNL     1      18.468   3.384  50.848  1.00  0.00     0.081 N 
HETATM   27  C18 UNL     1      18.213   1.916  50.933  1.00  0.00     0.309 C 
HETATM   28  C19 UNL     1      17.298   3.962  51.483  1.00  0.00     0.309 C 
ENDBRANCH  25  26
ENDBRANCH  24  25
ENDBRANCH  22  24
ENDBRANCH   6  22
TORSDOF 10
ENDMDL
