MODEL 1
REMARK VINA RESULT:      -7.6      0.000      0.000
REMARK  5 active torsions:
REMARK  status: ('A' for Active; 'I' for Inactive)
REMARK    1  A    between atoms: S1_2  and  C1_4 
REMARK    2  A    between atoms: C1_4  and  P1_5 
REMARK    3  A    between atoms: C6_12  and  C7_13 
REMARK    4  A    between atoms: C7_13  and  N3_14 
REMARK    5  A    between atoms: N3_14  and  C8_15 
ROOT
HETATM    1  P1  UNL     1      25.833  -0.289  53.607  1.00  0.00    -0.007 P 
HETATM    2  C2  UNL     1      25.907   0.930  52.542  1.00  0.00     0.038 A 
HETATM    3  C3  UNL     1      24.791   1.569  51.856  1.00  0.00     0.022 A 
HETATM    4  C4  UNL     1      23.548   1.059  52.167  1.00  0.00     0.087 A 
HETATM    5  N1  UNL     1      22.486   1.617  51.558  1.00  0.00    -0.240 NA
HETATM    6  C5  UNL     1      22.627   2.637  50.676  1.00  0.00     0.234 A 
HETATM    7  N2  UNL     1      23.852   3.114  50.393  1.00  0.00    -0.244 NA
HETATM    8  C6  UNL     1      24.960   2.605  50.962  1.00  0.00     0.066 A 
HETATM    9  C14 UNL     1      23.281  -0.031  53.096  1.00  0.00     0.147 A 
HETATM   10  N4  UNL     1      24.144  -0.700  53.780  1.00  0.00    -0.275 NA
HETATM   11  H3  UNL     1      26.494  -1.398  53.030  1.00  0.00     0.081 HD
ENDROOT
BRANCH   8  12
HETATM   12  C7  UNL     1      26.366   3.011  50.756  1.00  0.00     0.180 C 
BRANCH  12  13
HETATM   13  N3  UNL     1      26.644   3.368  49.396  1.00  0.00    -0.384 N 
HETATM   14  H8  UNL     1      26.608   2.628  48.644  1.00  0.00     0.160 HD
BRANCH  13  15
HETATM   15  C8  UNL     1      26.976   4.648  48.924  1.00  0.00     0.028 A 
HETATM   16  C9  UNL     1      28.234   5.034  48.489  1.00  0.00     0.029 A 
HETATM   17  C10 UNL     1      28.527   6.292  48.039  1.00  0.00     0.002 A 
HETATM   18  C11 UNL     1      27.578   7.263  47.991  1.00  0.00     0.000 A 
HETATM   19  C12 UNL     1      26.311   6.954  48.406  1.00  0.00     0.002 A 
HETATM   20  C13 UNL     1      26.036   5.666  48.860  1.00  0.00     0.029 A 
ENDBRANCH  13  15
ENDBRANCH  12  13
ENDBRANCH   8  12
BRANCH   1  21
HETATM   21  C1  UNL     1      26.594   0.192  55.172  1.00  0.00     0.174 C 
BRANCH  21  22
HETATM   22  S1  UNL     1      28.381   0.269  54.897  1.00  0.00     0.092 S 
HETATM   23  O1  UNL     1      28.806   1.669  54.484  1.00  0.00    -0.246 OA
HETATM   24 BR1  UNL     1      29.004  -1.184  53.312  1.00  0.00     0.025 Br
ENDBRANCH  21  22
ENDBRANCH   1  21
TORSDOF 5
ENDMDL
MODEL 2
REMARK VINA RESULT:      -7.4      1.757      2.314
REMARK  5 active torsions:
REMARK  status: ('A' for Active; 'I' for Inactive)
REMARK    1  A    between atoms: S1_2  and  C1_4 
REMARK    2  A    between atoms: C1_4  and  P1_5 
REMARK    3  A    between atoms: C6_12  and  C7_13 
REMARK    4  A    between atoms: C7_13  and  N3_14 
REMARK    5  A    between atoms: N3_14  and  C8_15 
ROOT
HETATM    1  P1  UNL     1      24.976   0.386  53.050  1.00  0.00    -0.007 P 
HETATM    2  C2  UNL     1      24.381   1.858  52.730  1.00  0.00     0.038 A 
HETATM    3  C3  UNL     1      22.977   2.235  52.619  1.00  0.00     0.022 A 
HETATM    4  C4  UNL     1      22.081   1.206  52.813  1.00  0.00     0.087 A 
HETATM    5  N1  UNL     1      20.773   1.505  52.720  1.00  0.00    -0.240 NA
HETATM    6  C5  UNL     1      20.349   2.764  52.448  1.00  0.00     0.234 A 
HETATM    7  N2  UNL     1      21.247   3.748  52.263  1.00  0.00    -0.244 NA
HETATM    8  C6  UNL     1      22.571   3.523  52.340  1.00  0.00     0.066 A 
HETATM    9  C14 UNL     1      22.423  -0.180  53.109  1.00  0.00     0.147 A 
HETATM   10  N4  UNL     1      23.605  -0.678  53.241  1.00  0.00    -0.275 NA
HETATM   11  H3  UNL     1      25.701  -0.036  51.913  1.00  0.00     0.081 HD
ENDROOT
BRANCH   8  12
HETATM   12  C7  UNL     1      23.676   4.487  52.161  1.00  0.00     0.180 C 
BRANCH  12  13
HETATM   13  N3  UNL     1      23.839   4.893  50.796  1.00  0.00    -0.384 N 
HETATM   14  H8  UNL     1      22.998   5.202  50.239  1.00  0.00     0.160 HD
BRANCH  13  15
HETATM   15  C8  UNL     1      25.046   4.928  50.078  1.00  0.00     0.028 A 
HETATM   16  C9  UNL     1      25.896   3.848  49.897  1.00  0.00     0.029 A 
HETATM   17  C10 UNL     1      27.068   3.916  49.196  1.00  0.00     0.002 A 
HETATM   18  C11 UNL     1      27.479   5.076  48.621  1.00  0.00     0.000 A 
HETATM   19  C12 UNL     1      26.691   6.186  48.759  1.00  0.00     0.002 A 
HETATM   20  C13 UNL     1      25.501   6.093  49.477  1.00  0.00     0.029 A 
ENDBRANCH  13  15
ENDBRANCH  12  13
ENDBRANCH   8  12
BRANCH   1  21
HETATM   21  C1  UNL     1      26.024   0.435  54.520  1.00  0.00     0.174 C 
BRANCH  21  22
HETATM   22  S1  UNL     1      27.741   0.325  53.957  1.00  0.00     0.092 S 
HETATM   23  O1  UNL     1      28.603  -0.387  54.988  1.00  0.00    -0.246 OA
HETATM   24 BR1  UNL     1      28.585   2.364  53.579  1.00  0.00     0.025 Br
ENDBRANCH  21  22
ENDBRANCH   1  21
TORSDOF 5
ENDMDL
MODEL 3
REMARK VINA RESULT:      -7.3      4.062      5.453
REMARK  5 active torsions:
REMARK  status: ('A' for Active; 'I' for Inactive)
REMARK    1  A    between atoms: S1_2  and  C1_4 
REMARK    2  A    between atoms: C1_4  and  P1_5 
REMARK    3  A    between atoms: C6_12  and  C7_13 
REMARK    4  A    between atoms: C7_13  and  N3_14 
REMARK    5  A    between atoms: N3_14  and  C8_15 
ROOT
HETATM    1  P1  UNL     1      20.893   1.342  52.495  1.00  0.00    -0.007 P 
HETATM    2  C2  UNL     1      22.387   1.826  52.095  1.00  0.00     0.038 A 
HETATM    3  C3  UNL     1      22.812   3.175  51.744  1.00  0.00     0.022 A 
HETATM    4  C4  UNL     1      21.811   4.123  51.762  1.00  0.00     0.087 A 
HETATM    5  N1  UNL     1      22.154   5.385  51.445  1.00  0.00    -0.240 NA
HETATM    6  C5  UNL     1      23.429   5.714  51.120  1.00  0.00     0.234 A 
HETATM    7  N2  UNL     1      24.384   4.767  51.111  1.00  0.00    -0.244 NA
HETATM    8  C6  UNL     1      24.115   3.485  51.417  1.00  0.00     0.066 A 
HETATM    9  C14 UNL     1      20.412   3.882  52.095  1.00  0.00     0.147 A 
HETATM   10  N4  UNL     1      19.874   2.759  52.425  1.00  0.00    -0.275 NA
HETATM   11  H3  UNL     1      20.457   0.441  51.496  1.00  0.00     0.081 HD
ENDROOT
BRANCH   8  12
HETATM   12  C7  UNL     1      25.043   2.336  51.448  1.00  0.00     0.180 C 
BRANCH  12  13
HETATM   13  N3  UNL     1      26.351   2.695  51.911  1.00  0.00    -0.384 N 
HETATM   14  H8  UNL     1      26.726   3.663  51.720  1.00  0.00     0.160 HD
BRANCH  13  15
HETATM   15  C8  UNL     1      27.237   1.869  52.622  1.00  0.00     0.028 A 
HETATM   16  C9  UNL     1      28.232   2.317  53.476  1.00  0.00     0.029 A 
HETATM   17  C10 UNL     1      29.082   1.486  54.151  1.00  0.00     0.002 A 
HETATM   18  C11 UNL     1      29.000   0.136  54.020  1.00  0.00     0.000 A 
HETATM   19  C12 UNL     1      28.041  -0.380  53.192  1.00  0.00     0.002 A 
HETATM   20  C13 UNL     1      27.185   0.486  52.515  1.00  0.00     0.029 A 
ENDBRANCH  13  15
ENDBRANCH  12  13
ENDBRANCH   8  12
BRANCH   1  21
HETATM   21  C1  UNL     1      20.895   0.569  54.127  1.00  0.00     0.174 C 
BRANCH  21  22
HETATM   22  S1  UNL     1      21.818  -0.982  53.983  1.00  0.00     0.092 S 
HETATM   23  O1  UNL     1      21.434  -1.944  55.097  1.00  0.00    -0.246 OA
HETATM   24 BR1  UNL     1      24.022  -0.605  54.067  1.00  0.00     0.025 Br
ENDBRANCH  21  22
ENDBRANCH   1  21
TORSDOF 5
ENDMDL
MODEL 4
REMARK VINA RESULT:      -7.3      2.011      3.463
REMARK  5 active torsions:
REMARK  status: ('A' for Active; 'I' for Inactive)
REMARK    1  A    between atoms: S1_2  and  C1_4 
REMARK    2  A    between atoms: C1_4  and  P1_5 
REMARK    3  A    between atoms: C6_12  and  C7_13 
REMARK    4  A    between atoms: C7_13  and  N3_14 
REMARK    5  A    between atoms: N3_14  and  C8_15 
ROOT
HETATM    1  P1  UNL     1      25.805  -0.450  53.822  1.00  0.00    -0.007 P 
HETATM    2  C2  UNL     1      24.487  -0.055  52.967  1.00  0.00     0.038 A 
HETATM    3  C3  UNL     1      23.095  -0.271  53.345  1.00  0.00     0.022 A 
HETATM    4  C4  UNL     1      22.913  -0.879  54.568  1.00  0.00     0.087 A 
HETATM    5  N1  UNL     1      21.645  -1.099  54.961  1.00  0.00    -0.240 NA
HETATM    6  C5  UNL     1      20.589  -0.740  54.189  1.00  0.00     0.234 A 
HETATM    7  N2  UNL     1      20.799  -0.149  53.000  1.00  0.00    -0.244 NA
HETATM    8  C6  UNL     1      22.038   0.103  52.542  1.00  0.00     0.066 A 
HETATM    9  C14 UNL     1      23.970  -1.306  55.477  1.00  0.00     0.147 A 
HETATM   10  N4  UNL     1      25.241  -1.191  55.299  1.00  0.00    -0.275 NA
HETATM   11  H3  UNL     1      26.512  -1.428  53.085  1.00  0.00     0.081 HD
ENDROOT
BRANCH   8  12
HETATM   12  C7  UNL     1      22.434   0.737  51.267  1.00  0.00     0.180 C 
BRANCH  12  13
HETATM   13  N3  UNL     1      22.647   2.148  51.394  1.00  0.00    -0.384 N 
HETATM   14  H8  UNL     1      22.031   2.714  52.038  1.00  0.00     0.160 HD
BRANCH  13  15
HETATM   15  C8  UNL     1      23.627   2.903  50.729  1.00  0.00     0.028 A 
HETATM   16  C9  UNL     1      24.992   2.804  50.946  1.00  0.00     0.029 A 
HETATM   17  C10 UNL     1      25.921   3.558  50.285  1.00  0.00     0.002 A 
HETATM   18  C11 UNL     1      25.552   4.473  49.351  1.00  0.00     0.000 A 
HETATM   19  C12 UNL     1      24.219   4.627  49.084  1.00  0.00     0.002 A 
HETATM   20  C13 UNL     1      23.290   3.847  49.770  1.00  0.00     0.029 A 
ENDBRANCH  13  15
ENDBRANCH  12  13
ENDBRANCH   8  12
BRANCH   1  21
HETATM   21  C1  UNL     1      26.822   1.012  54.124  1.00  0.00     0.174 C 
BRANCH  21  22
HETATM   22  S1  UNL     1      28.393   0.437  54.818  1.00  0.00     0.092 S 
HETATM   23  O1  UNL     1      29.349   1.601  55.026  1.00  0.00    -0.246 OA
HETATM   24 BR1  UNL     1      29.353  -1.068  53.468  1.00  0.00     0.025 Br
ENDBRANCH  21  22
ENDBRANCH   1  21
TORSDOF 5
ENDMDL
MODEL 5
REMARK VINA RESULT:      -7.3      5.129      6.479
REMARK  5 active torsions:
REMARK  status: ('A' for Active; 'I' for Inactive)
REMARK    1  A    between atoms: S1_2  and  C1_4 
REMARK    2  A    between atoms: C1_4  and  P1_5 
REMARK    3  A    between atoms: C6_12  and  C7_13 
REMARK    4  A    between atoms: C7_13  and  N3_14 
REMARK    5  A    between atoms: N3_14  and  C8_15 
ROOT
HETATM    1  P1  UNL     1      21.523   3.846  51.949  1.00  0.00    -0.007 P 
HETATM    2  C2  UNL     1      22.787   2.850  52.137  1.00  0.00     0.038 A 
HETATM    3  C3  UNL     1      22.767   1.492  52.666  1.00  0.00     0.022 A 
HETATM    4  C4  UNL     1      21.522   1.033  53.041  1.00  0.00     0.087 A 
HETATM    5  N1  UNL     1      21.453  -0.217  53.536  1.00  0.00    -0.240 NA
HETATM    6  C5  UNL     1      22.557  -0.993  53.663  1.00  0.00     0.234 A 
HETATM    7  N2  UNL     1      23.758  -0.517  53.289  1.00  0.00    -0.244 NA
HETATM    8  C6  UNL     1      23.904   0.722  52.786  1.00  0.00     0.066 A 
HETATM    9  C14 UNL     1      20.273   1.778  52.948  1.00  0.00     0.147 A 
HETATM   10  N4  UNL     1      20.114   2.978  52.507  1.00  0.00    -0.275 NA
HETATM   11  H3  UNL     1      21.723   4.952  52.807  1.00  0.00     0.081 HD
ENDROOT
BRANCH   8  12
HETATM   12  C7  UNL     1      25.144   1.389  52.337  1.00  0.00     0.180 C 
BRANCH  12  13
HETATM   13  N3  UNL     1      26.168   1.385  53.340  1.00  0.00    -0.384 N 
HETATM   14  H8  UNL     1      26.095   2.041  54.163  1.00  0.00     0.160 HD
BRANCH  13  15
HETATM   15  C8  UNL     1      27.313   0.573  53.354  1.00  0.00     0.028 A 
HETATM   16  C9  UNL     1      27.329  -0.785  53.076  1.00  0.00     0.029 A 
HETATM   17  C10 UNL     1      28.462  -1.551  53.104  1.00  0.00     0.002 A 
HETATM   18  C11 UNL     1      29.670  -1.012  53.413  1.00  0.00     0.000 A 
HETATM   19  C12 UNL     1      29.731   0.325  53.701  1.00  0.00     0.002 A 
HETATM   20  C13 UNL     1      28.564   1.085  53.666  1.00  0.00     0.029 A 
ENDBRANCH  13  15
ENDBRANCH  12  13
ENDBRANCH   8  12
BRANCH   1  21
HETATM   21  C1  UNL     1      21.379   4.366  50.225  1.00  0.00     0.174 C 
BRANCH  21  22
HETATM   22  S1  UNL     1      22.362   3.213  49.234  1.00  0.00     0.092 S 
HETATM   23  O1  UNL     1      22.639   3.788  47.854  1.00  0.00    -0.246 OA
HETATM   24 BR1  UNL     1      21.302   1.254  49.014  1.00  0.00     0.025 Br
ENDBRANCH  21  22
ENDBRANCH   1  21
TORSDOF 5
ENDMDL
MODEL 6
REMARK VINA RESULT:      -7.2      2.483      5.991
REMARK  5 active torsions:
REMARK  status: ('A' for Active; 'I' for Inactive)
REMARK    1  A    between atoms: S1_2  and  C1_4 
REMARK    2  A    between atoms: C1_4  and  P1_5 
REMARK    3  A    between atoms: C6_12  and  C7_13 
REMARK    4  A    between atoms: C7_13  and  N3_14 
REMARK    5  A    between atoms: N3_14  and  C8_15 
ROOT
HETATM    1  P1  UNL     1      26.286   2.169  53.237  1.00  0.00    -0.007 P 
HETATM    2  C2  UNL     1      24.789   2.632  52.829  1.00  0.00     0.038 A 
HETATM    3  C3  UNL     1      24.347   3.151  51.540  1.00  0.00     0.022 A 
HETATM    4  C4  UNL     1      25.335   3.246  50.583  1.00  0.00     0.087 A 
HETATM    5  N1  UNL     1      24.977   3.719  49.375  1.00  0.00    -0.240 NA
HETATM    6  C5  UNL     1      23.699   4.088  49.107  1.00  0.00     0.234 A 
HETATM    7  N2  UNL     1      22.757   3.984  50.062  1.00  0.00    -0.244 NA
HETATM    8  C6  UNL     1      23.042   3.520  51.291  1.00  0.00     0.066 A 
HETATM    9  C14 UNL     1      26.735   2.880  50.761  1.00  0.00     0.147 A 
HETATM   10  N4  UNL     1      27.287   2.410  51.826  1.00  0.00    -0.275 NA
HETATM   11  H3  UNL     1      26.741   3.046  54.249  1.00  0.00     0.081 HD
ENDROOT
BRANCH   8  12
HETATM   12  C7  UNL     1      22.130   3.349  52.441  1.00  0.00     0.180 C 
BRANCH  12  13
HETATM   13  N3  UNL     1      21.306   2.182  52.324  1.00  0.00    -0.384 N 
HETATM   14  H8  UNL     1      20.466   2.197  51.684  1.00  0.00     0.160 HD
BRANCH  13  15
HETATM   15  C8  UNL     1      21.493   0.963  52.995  1.00  0.00     0.028 A 
HETATM   16  C9  UNL     1      20.846   0.590  54.162  1.00  0.00     0.029 A 
HETATM   17  C10 UNL     1      21.054  -0.605  54.795  1.00  0.00     0.002 A 
HETATM   18  C11 UNL     1      21.929  -1.521  54.303  1.00  0.00     0.000 A 
HETATM   19  C12 UNL     1      22.605  -1.221  53.151  1.00  0.00     0.002 A 
HETATM   20  C13 UNL     1      22.377   0.003  52.524  1.00  0.00     0.029 A 
ENDBRANCH  13  15
ENDBRANCH  12  13
ENDBRANCH   8  12
BRANCH   1  21
HETATM   21  C1  UNL     1      26.285   0.454  53.802  1.00  0.00     0.174 C 
BRANCH  21  22
HETATM   22  S1  UNL     1      27.858   0.168  54.650  1.00  0.00     0.092 S 
HETATM   23  O1  UNL     1      28.577   1.482  54.913  1.00  0.00    -0.246 OA
HETATM   24 BR1  UNL     1      29.185  -1.164  53.435  1.00  0.00     0.025 Br
ENDBRANCH  21  22
ENDBRANCH   1  21
TORSDOF 5
ENDMDL
MODEL 7
REMARK VINA RESULT:      -7.1      4.705      6.489
REMARK  5 active torsions:
REMARK  status: ('A' for Active; 'I' for Inactive)
REMARK    1  A    between atoms: S1_2  and  C1_4 
REMARK    2  A    between atoms: C1_4  and  P1_5 
REMARK    3  A    between atoms: C6_12  and  C7_13 
REMARK    4  A    between atoms: C7_13  and  N3_14 
REMARK    5  A    between atoms: N3_14  and  C8_15 
ROOT
HETATM    1  P1  UNL     1      22.127   3.843  51.831  1.00  0.00    -0.007 P 
HETATM    2  C2  UNL     1      22.959   2.529  52.283  1.00  0.00     0.038 A 
HETATM    3  C3  UNL     1      22.417   1.278  52.799  1.00  0.00     0.022 A 
HETATM    4  C4  UNL     1      21.043   1.239  52.902  1.00  0.00     0.087 A 
HETATM    5  N1  UNL     1      20.495   0.104  53.373  1.00  0.00    -0.240 NA
HETATM    6  C5  UNL     1      21.258  -0.958  53.733  1.00  0.00     0.234 A 
HETATM    7  N2  UNL     1      22.597  -0.890  53.620  1.00  0.00    -0.244 NA
HETATM    8  C6  UNL     1      23.214   0.211  53.158  1.00  0.00     0.066 A 
HETATM    9  C14 UNL     1      20.128   2.316  52.546  1.00  0.00     0.147 A 
HETATM   10  N4  UNL     1      20.438   3.477  52.080  1.00  0.00    -0.275 NA
HETATM   11  H3  UNL     1      22.481   4.893  52.710  1.00  0.00     0.081 HD
ENDROOT
BRANCH   8  12
HETATM   12  C7  UNL     1      24.663   0.444  52.979  1.00  0.00     0.180 C 
BRANCH  12  13
HETATM   13  N3  UNL     1      25.463  -0.612  53.526  1.00  0.00    -0.384 N 
HETATM   14  H8  UNL     1      24.998  -1.491  53.879  1.00  0.00     0.160 HD
BRANCH  13  15
HETATM   15  C8  UNL     1      26.861  -0.613  53.654  1.00  0.00     0.028 A 
HETATM   16  C9  UNL     1      27.718  -1.498  53.020  1.00  0.00     0.029 A 
HETATM   17  C10 UNL     1      29.077  -1.476  53.169  1.00  0.00     0.002 A 
HETATM   18  C11 UNL     1      29.684  -0.561  53.970  1.00  0.00     0.000 A 
HETATM   19  C12 UNL     1      28.900   0.346  54.630  1.00  0.00     0.002 A 
HETATM   20  C13 UNL     1      27.518   0.304  54.462  1.00  0.00     0.029 A 
ENDBRANCH  13  15
ENDBRANCH  12  13
ENDBRANCH   8  12
BRANCH   1  21
HETATM   21  C1  UNL     1      22.499   4.267  50.115  1.00  0.00     0.174 C 
BRANCH  21  22
HETATM   22  S1  UNL     1      24.122   5.068  50.100  1.00  0.00     0.092 S 
HETATM   23  O1  UNL     1      24.182   6.149  49.032  1.00  0.00    -0.246 OA
HETATM   24 BR1  UNL     1      25.743   3.571  49.720  1.00  0.00     0.025 Br
ENDBRANCH  21  22
ENDBRANCH   1  21
TORSDOF 5
ENDMDL
MODEL 8
REMARK VINA RESULT:      -7.0      4.180      6.676
REMARK  5 active torsions:
REMARK  status: ('A' for Active; 'I' for Inactive)
REMARK    1  A    between atoms: S1_2  and  C1_4 
REMARK    2  A    between atoms: C1_4  and  P1_5 
REMARK    3  A    between atoms: C6_12  and  C7_13 
REMARK    4  A    between atoms: C7_13  and  N3_14 
REMARK    5  A    between atoms: N3_14  and  C8_15 
ROOT
HETATM    1  P1  UNL     1      22.521   4.399  49.627  1.00  0.00    -0.007 P 
HETATM    2  C2  UNL     1      24.040   3.878  49.842  1.00  0.00     0.038 A 
HETATM    3  C3  UNL     1      25.265   4.528  49.393  1.00  0.00     0.022 A 
HETATM    4  C4  UNL     1      25.080   5.713  48.714  1.00  0.00     0.087 A 
HETATM    5  N1  UNL     1      26.182   6.351  48.279  1.00  0.00    -0.240 NA
HETATM    6  C5  UNL     1      27.424   5.852  48.497  1.00  0.00     0.234 A 
HETATM    7  N2  UNL     1      27.574   4.693  49.164  1.00  0.00    -0.244 NA
HETATM    8  C6  UNL     1      26.518   4.001  49.627  1.00  0.00     0.066 A 
HETATM    9  C14 UNL     1      23.796   6.339  48.423  1.00  0.00     0.147 A 
HETATM   10  N4  UNL     1      22.627   5.902  48.745  1.00  0.00    -0.275 NA
HETATM   11  H3  UNL     1      21.861   3.456  48.805  1.00  0.00     0.081 HD
ENDROOT
BRANCH   8  12
HETATM   12  C7  UNL     1      26.514   2.722  50.368  1.00  0.00     0.180 C 
BRANCH  12  13
HETATM   13  N3  UNL     1      26.862   2.882  51.749  1.00  0.00    -0.384 N 
HETATM   14  H8  UNL     1      26.645   3.791  52.240  1.00  0.00     0.160 HD
BRANCH  13  15
HETATM   15  C8  UNL     1      27.490   1.926  52.564  1.00  0.00     0.028 A 
HETATM   16  C9  UNL     1      27.215   0.568  52.553  1.00  0.00     0.029 A 
HETATM   17  C10 UNL     1      27.841  -0.339  53.363  1.00  0.00     0.002 A 
HETATM   18  C11 UNL     1      28.794   0.049  54.250  1.00  0.00     0.000 A 
HETATM   19  C12 UNL     1      29.118   1.377  54.318  1.00  0.00     0.002 A 
HETATM   20  C13 UNL     1      28.467   2.282  53.482  1.00  0.00     0.029 A 
ENDBRANCH  13  15
ENDBRANCH  12  13
ENDBRANCH   8  12
BRANCH   1  21
HETATM   21  C1  UNL     1      21.686   4.585  51.218  1.00  0.00     0.174 C 
BRANCH  21  22
HETATM   22  S1  UNL     1      20.778   3.051  51.529  1.00  0.00     0.092 S 
HETATM   23  O1  UNL     1      19.886   3.189  52.753  1.00  0.00    -0.246 OA
HETATM   24 BR1  UNL     1      22.190   1.342  51.841  1.00  0.00     0.025 Br
ENDBRANCH  21  22
ENDBRANCH   1  21
TORSDOF 5
ENDMDL
MODEL 9
REMARK VINA RESULT:      -6.9      3.889      4.415
REMARK  5 active torsions:
REMARK  status: ('A' for Active; 'I' for Inactive)
REMARK    1  A    between atoms: S1_2  and  C1_4 
REMARK    2  A    between atoms: C1_4  and  P1_5 
REMARK    3  A    between atoms: C6_12  and  C7_13 
REMARK    4  A    between atoms: C7_13  and  N3_14 
REMARK    5  A    between atoms: N3_14  and  C8_15 
ROOT
HETATM    1  P1  UNL     1      22.411   0.917  52.679  1.00  0.00    -0.007 P 
HETATM    2  C2  UNL     1      23.644   1.736  52.020  1.00  0.00     0.038 A 
HETATM    3  C3  UNL     1      25.067   1.540  52.271  1.00  0.00     0.022 A 
HETATM    4  C4  UNL     1      25.365   0.541  53.173  1.00  0.00     0.087 A 
HETATM    5  N1  UNL     1      26.666   0.321  53.438  1.00  0.00    -0.240 NA
HETATM    6  C5  UNL     1      27.645   1.050  52.845  1.00  0.00     0.234 A 
HETATM    7  N2  UNL     1      27.322   2.018  51.969  1.00  0.00    -0.244 NA
HETATM    8  C6  UNL     1      26.044   2.294  51.656  1.00  0.00     0.066 A 
HETATM    9  C14 UNL     1      24.398  -0.301  53.866  1.00  0.00     0.147 A 
HETATM   10  N4  UNL     1      23.114  -0.260  53.760  1.00  0.00    -0.275 NA
HETATM   11  H3  UNL     1      21.662   1.830  53.455  1.00  0.00     0.081 HD
ENDROOT
BRANCH   8  12
HETATM   12  C7  UNL     1      25.528   3.319  50.724  1.00  0.00     0.180 C 
BRANCH  12  13
HETATM   13  N3  UNL     1      26.353   3.474  49.562  1.00  0.00    -0.384 N 
HETATM   14  H8  UNL     1      26.665   2.620  49.026  1.00  0.00     0.160 HD
BRANCH  13  15
HETATM   15  C8  UNL     1      26.818   4.687  49.029  1.00  0.00     0.028 A 
HETATM   16  C9  UNL     1      28.107   4.914  48.576  1.00  0.00     0.029 A 
HETATM   17  C10 UNL     1      28.531   6.110  48.065  1.00  0.00     0.002 A 
HETATM   18  C11 UNL     1      27.692   7.174  47.971  1.00  0.00     0.000 A 
HETATM   19  C12 UNL     1      26.401   7.023  48.401  1.00  0.00     0.002 A 
HETATM   20  C13 UNL     1      25.992   5.796  48.917  1.00  0.00     0.029 A 
ENDBRANCH  13  15
ENDBRANCH  12  13
ENDBRANCH   8  12
BRANCH   1  21
HETATM   21  C1  UNL     1      21.398   0.158  51.391  1.00  0.00     0.174 C 
BRANCH  21  22
HETATM   22  S1  UNL     1      19.713   0.789  51.594  1.00  0.00     0.092 S 
HETATM   23  O1  UNL     1      19.718   2.110  52.347  1.00  0.00    -0.246 OA
HETATM   24 BR1  UNL     1      18.442  -0.683  52.703  1.00  0.00     0.025 Br
ENDBRANCH  21  22
ENDBRANCH   1  21
TORSDOF 5
ENDMDL
