MODEL 1
REMARK VINA RESULT:      -7.9      0.000      0.000
REMARK  6 active torsions:
REMARK  status: ('A' for Active; 'I' for Inactive)
REMARK    1  A    between atoms: N2_15  and  C13_16 
REMARK    2  A    between atoms: C13_16  and  S1_17 
REMARK    3  A    between atoms: S1_17  and  C14_18 
REMARK    4  A    between atoms: C15_19  and  C16_20 
REMARK    5  A    between atoms: C16_20  and  O1_21 
REMARK    6  A    between atoms: O1_21  and  N3_22 
ROOT
HETATM    1  C1  UNL     1      20.472   1.020  53.336  1.00  0.00     0.019 C 
HETATM    2  C2  UNL     1      21.556   0.487  53.555  1.00  0.00    -0.063 C 
HETATM    3  C3  UNL     1      22.840  -0.139  53.838  1.00  0.00     0.111 C 
HETATM    4 CL1  UNL     1      22.746  -1.461  54.984  1.00  0.00    -0.072 Cl
HETATM    5  C4  UNL     1      23.827   0.412  53.173  1.00  0.00     0.067 A 
HETATM    6  C5  UNL     1      23.467   1.543  52.280  1.00  0.00     0.123 A 
HETATM    7  C6  UNL     1      24.824   1.867  51.741  1.00  0.00     0.070 A 
HETATM    8  C7  UNL     1      25.046   2.933  50.788  1.00  0.00    -0.009 A 
HETATM    9  C8  UNL     1      26.302   3.206  50.311  1.00  0.00     0.013 A 
HETATM   10  C9  UNL     1      26.630   4.178  49.417  1.00  0.00     0.001 A 
HETATM   11  C10 UNL     1      25.632   4.965  48.942  1.00  0.00     0.000 A 
HETATM   12  C11 UNL     1      24.324   4.753  49.379  1.00  0.00     0.001 A 
HETATM   13  C12 UNL     1      24.031   3.740  50.300  1.00  0.00     0.013 A 
HETATM   14  N1  UNL     1      25.757   1.109  52.204  1.00  0.00    -0.175 NA
HETATM   15  N2  UNL     1      25.227   0.175  53.101  1.00  0.00    -0.262 N 
ENDROOT
BRANCH  15  16
HETATM   16  C13 UNL     1      25.913  -0.854  53.843  1.00  0.00     0.229 C 
BRANCH  16  17
HETATM   17  S1  UNL     1      27.155  -1.544  52.694  1.00  0.00    -0.120 SA
BRANCH  17  18
HETATM   18  C14 UNL     1      28.756  -1.405  53.468  1.00  0.00     0.045 C 
HETATM   19  C15 UNL     1      29.448  -0.311  53.732  1.00  0.00     0.008 C 
BRANCH  19  20
HETATM   20  C16 UNL     1      29.201   1.136  53.514  1.00  0.00     0.221 C 
BRANCH  20  21
HETATM   21  O1  UNL     1      28.367   1.636  54.529  1.00  0.00    -0.305 OA
BRANCH  21  22
HETATM   22  N3  UNL     1      27.707   2.692  54.058  1.00  0.00    -0.215 NA
HETATM   23  H15 UNL     1      27.986   2.904  53.074  1.00  0.00     0.150 HD
HETATM   24  H16 UNL     1      27.730   3.513  54.689  1.00  0.00     0.150 HD
ENDBRANCH  21  22
ENDBRANCH  20  21
ENDBRANCH  19  20
ENDBRANCH  17  18
ENDBRANCH  16  17
ENDBRANCH  15  16
TORSDOF 6
ENDMDL
MODEL 2
REMARK VINA RESULT:      -7.7      1.711      2.017
REMARK  6 active torsions:
REMARK  status: ('A' for Active; 'I' for Inactive)
REMARK    1  A    between atoms: N2_15  and  C13_16 
REMARK    2  A    between atoms: C13_16  and  S1_17 
REMARK    3  A    between atoms: S1_17  and  C14_18 
REMARK    4  A    between atoms: C15_19  and  C16_20 
REMARK    5  A    between atoms: C16_20  and  O1_21 
REMARK    6  A    between atoms: O1_21  and  N3_22 
ROOT
HETATM    1  C1  UNL     1      20.634   2.056  52.701  1.00  0.00     0.019 C 
HETATM    2  C2  UNL     1      21.629   1.359  52.879  1.00  0.00    -0.063 C 
HETATM    3  C3  UNL     1      22.809   0.538  53.113  1.00  0.00     0.111 C 
HETATM    4 CL1  UNL     1      22.516  -0.843  54.150  1.00  0.00    -0.072 Cl
HETATM    5  C4  UNL     1      23.872   0.995  52.495  1.00  0.00     0.067 A 
HETATM    6  C5  UNL     1      23.686   2.232  51.694  1.00  0.00     0.123 A 
HETATM    7  C6  UNL     1      25.082   2.403  51.184  1.00  0.00     0.070 A 
HETATM    8  C7  UNL     1      25.463   3.498  50.320  1.00  0.00    -0.009 A 
HETATM    9  C8  UNL     1      26.750   3.628  49.867  1.00  0.00     0.013 A 
HETATM   10  C9  UNL     1      27.224   4.611  49.054  1.00  0.00     0.001 A 
HETATM   11  C10 UNL     1      26.352   5.566  48.641  1.00  0.00     0.000 A 
HETATM   12  C11 UNL     1      25.022   5.507  49.058  1.00  0.00     0.001 A 
HETATM   13  C12 UNL     1      24.577   4.476  49.895  1.00  0.00     0.013 A 
HETATM   14  N1  UNL     1      25.892   1.487  51.588  1.00  0.00    -0.175 NA
HETATM   15  N2  UNL     1      25.226   0.570  52.407  1.00  0.00    -0.262 N 
ENDROOT
BRANCH  15  16
HETATM   16  C13 UNL     1      25.750  -0.601  53.065  1.00  0.00     0.229 C 
BRANCH  16  17
HETATM   17  S1  UNL     1      26.356  -0.023  54.690  1.00  0.00    -0.120 SA
BRANCH  17  18
HETATM   18  C14 UNL     1      28.040   0.526  54.484  1.00  0.00     0.045 C 
HETATM   19  C15 UNL     1      29.012  -0.046  53.797  1.00  0.00     0.008 C 
BRANCH  19  20
HETATM   20  C16 UNL     1      29.100  -1.281  52.979  1.00  0.00     0.221 C 
BRANCH  20  21
HETATM   21  O1  UNL     1      28.975  -2.411  53.805  1.00  0.00    -0.305 OA
BRANCH  21  22
HETATM   22  N3  UNL     1      28.591  -3.445  53.060  1.00  0.00    -0.215 NA
HETATM   23  H15 UNL     1      29.150  -3.504  52.180  1.00  0.00     0.150 HD
HETATM   24  H16 UNL     1      27.567  -3.495  52.914  1.00  0.00     0.150 HD
ENDBRANCH  21  22
ENDBRANCH  20  21
ENDBRANCH  19  20
ENDBRANCH  17  18
ENDBRANCH  16  17
ENDBRANCH  15  16
TORSDOF 6
ENDMDL
MODEL 3
REMARK VINA RESULT:      -7.5      2.336      2.916
REMARK  6 active torsions:
REMARK  status: ('A' for Active; 'I' for Inactive)
REMARK    1  A    between atoms: N2_15  and  C13_16 
REMARK    2  A    between atoms: C13_16  and  S1_17 
REMARK    3  A    between atoms: S1_17  and  C14_18 
REMARK    4  A    between atoms: C15_19  and  C16_20 
REMARK    5  A    between atoms: C16_20  and  O1_21 
REMARK    6  A    between atoms: O1_21  and  N3_22 
ROOT
HETATM    1  C1  UNL     1      20.261  -1.565  54.122  1.00  0.00     0.019 C 
HETATM    2  C2  UNL     1      21.444  -1.244  54.187  1.00  0.00    -0.063 C 
HETATM    3  C3  UNL     1      22.843  -0.852  54.284  1.00  0.00     0.111 C 
HETATM    4 CL1  UNL     1      23.666  -1.507  55.685  1.00  0.00    -0.072 Cl
HETATM    5  C4  UNL     1      23.219  -0.078  53.295  1.00  0.00     0.067 A 
HETATM    6  C5  UNL     1      22.181   0.250  52.284  1.00  0.00     0.123 A 
HETATM    7  C6  UNL     1      22.992   1.117  51.375  1.00  0.00     0.070 A 
HETATM    8  C7  UNL     1      22.439   1.723  50.184  1.00  0.00    -0.009 A 
HETATM    9  C8  UNL     1      23.208   2.512  49.369  1.00  0.00     0.013 A 
HETATM   10  C9  UNL     1      22.800   3.132  48.228  1.00  0.00     0.001 A 
HETATM   11  C10 UNL     1      21.509   2.965  47.843  1.00  0.00     0.000 A 
HETATM   12  C11 UNL     1      20.659   2.176  48.620  1.00  0.00     0.001 A 
HETATM   13  C12 UNL     1      21.122   1.556  49.787  1.00  0.00     0.013 A 
HETATM   14  N1  UNL     1      24.214   1.263  51.758  1.00  0.00    -0.175 NA
HETATM   15  N2  UNL     1      24.443   0.554  52.942  1.00  0.00    -0.262 N 
ENDROOT
BRANCH  15  16
HETATM   16  C13 UNL     1      25.661   0.444  53.707  1.00  0.00     0.229 C 
BRANCH  16  17
HETATM   17  S1  UNL     1      27.018   0.729  52.517  1.00  0.00    -0.120 SA
BRANCH  17  18
HETATM   18  C14 UNL     1      28.518   0.984  53.446  1.00  0.00     0.045 C 
HETATM   19  C15 UNL     1      29.496   0.126  53.679  1.00  0.00     0.008 C 
BRANCH  19  20
HETATM   20  C16 UNL     1      29.731  -1.288  53.296  1.00  0.00     0.221 C 
BRANCH  20  21
HETATM   21  O1  UNL     1      28.657  -2.085  53.729  1.00  0.00    -0.305 OA
BRANCH  21  22
HETATM   22  N3  UNL     1      28.556  -3.139  52.922  1.00  0.00    -0.215 NA
HETATM   23  H15 UNL     1      29.128  -3.010  52.059  1.00  0.00     0.150 HD
HETATM   24  H16 UNL     1      27.579  -3.432  52.742  1.00  0.00     0.150 HD
ENDBRANCH  21  22
ENDBRANCH  20  21
ENDBRANCH  19  20
ENDBRANCH  17  18
ENDBRANCH  16  17
ENDBRANCH  15  16
TORSDOF 6
ENDMDL
MODEL 4
REMARK VINA RESULT:      -7.5      2.685      5.313
REMARK  6 active torsions:
REMARK  status: ('A' for Active; 'I' for Inactive)
REMARK    1  A    between atoms: N2_15  and  C13_16 
REMARK    2  A    between atoms: C13_16  and  S1_17 
REMARK    3  A    between atoms: S1_17  and  C14_18 
REMARK    4  A    between atoms: C15_19  and  C16_20 
REMARK    5  A    between atoms: C16_20  and  O1_21 
REMARK    6  A    between atoms: O1_21  and  N3_22 
ROOT
HETATM    1  C1  UNL     1      22.795   3.695  48.126  1.00  0.00     0.019 C 
HETATM    2  C2  UNL     1      23.632   3.385  48.968  1.00  0.00    -0.063 C 
HETATM    3  C3  UNL     1      24.639   3.006  49.950  1.00  0.00     0.111 C 
HETATM    4 CL1  UNL     1      26.225   3.680  49.635  1.00  0.00    -0.072 Cl
HETATM    5  C4  UNL     1      24.158   2.227  50.889  1.00  0.00     0.067 A 
HETATM    6  C5  UNL     1      22.717   1.881  50.784  1.00  0.00     0.123 A 
HETATM    7  C6  UNL     1      22.587   1.014  51.996  1.00  0.00     0.070 A 
HETATM    8  C7  UNL     1      21.336   0.394  52.374  1.00  0.00    -0.009 A 
HETATM    9  C8  UNL     1      21.247  -0.395  53.492  1.00  0.00     0.013 A 
HETATM   10  C9  UNL     1      20.131  -1.027  53.944  1.00  0.00     0.001 A 
HETATM   11  C10 UNL     1      18.984  -0.875  53.234  1.00  0.00     0.000 A 
HETATM   12  C11 UNL     1      18.990  -0.087  52.083  1.00  0.00     0.001 A 
HETATM   13  C12 UNL     1      20.163   0.546  51.653  1.00  0.00     0.013 A 
HETATM   14  N1  UNL     1      23.686   0.883  52.655  1.00  0.00    -0.175 NA
HETATM   15  N2  UNL     1      24.715   1.603  52.040  1.00  0.00    -0.262 N 
ENDROOT
BRANCH  15  16
HETATM   16  C13 UNL     1      26.094   1.730  52.442  1.00  0.00     0.229 C 
BRANCH  16  17
HETATM   17  S1  UNL     1      26.676   0.026  52.750  1.00  0.00    -0.120 SA
BRANCH  17  18
HETATM   18  C14 UNL     1      27.878   0.085  54.066  1.00  0.00     0.045 C 
HETATM   19  C15 UNL     1      29.007  -0.591  54.178  1.00  0.00     0.008 C 
BRANCH  19  20
HETATM   20  C16 UNL     1      29.689  -1.597  53.326  1.00  0.00     0.221 C 
BRANCH  20  21
HETATM   21  O1  UNL     1      29.310  -2.892  53.721  1.00  0.00    -0.305 OA
BRANCH  21  22
HETATM   22  N3  UNL     1      28.341  -3.319  52.913  1.00  0.00    -0.215 NA
HETATM   23  H15 UNL     1      27.454  -3.480  53.439  1.00  0.00     0.150 HD
HETATM   24  H16 UNL     1      28.623  -4.110  52.307  1.00  0.00     0.150 HD
ENDBRANCH  21  22
ENDBRANCH  20  21
ENDBRANCH  19  20
ENDBRANCH  17  18
ENDBRANCH  16  17
ENDBRANCH  15  16
TORSDOF 6
ENDMDL
MODEL 5
REMARK VINA RESULT:      -7.3      2.831      5.068
REMARK  6 active torsions:
REMARK  status: ('A' for Active; 'I' for Inactive)
REMARK    1  A    between atoms: N2_15  and  C13_16 
REMARK    2  A    between atoms: C13_16  and  S1_17 
REMARK    3  A    between atoms: S1_17  and  C14_18 
REMARK    4  A    between atoms: C15_19  and  C16_20 
REMARK    5  A    between atoms: C16_20  and  O1_21 
REMARK    6  A    between atoms: O1_21  and  N3_22 
ROOT
HETATM    1  C1  UNL     1      21.858  -1.801  54.499  1.00  0.00     0.019 C 
HETATM    2  C2  UNL     1      21.784  -0.849  53.727  1.00  0.00    -0.063 C 
HETATM    3  C3  UNL     1      21.691   0.266  52.795  1.00  0.00     0.111 C 
HETATM    4 CL1  UNL     1      20.098   0.475  52.097  1.00  0.00    -0.072 Cl
HETATM    5  C4  UNL     1      22.828   0.905  52.658  1.00  0.00     0.067 A 
HETATM    6  C5  UNL     1      23.972   0.389  53.454  1.00  0.00     0.123 A 
HETATM    7  C6  UNL     1      25.026   1.357  53.018  1.00  0.00     0.070 A 
HETATM    8  C7  UNL     1      26.384   1.301  53.515  1.00  0.00    -0.009 A 
HETATM    9  C8  UNL     1      27.328   2.203  53.098  1.00  0.00     0.013 A 
HETATM   10  C9  UNL     1      28.629   2.248  53.494  1.00  0.00     0.001 A 
HETATM   11  C10 UNL     1      29.052   1.317  54.387  1.00  0.00     0.000 A 
HETATM   12  C11 UNL     1      28.152   0.362  54.860  1.00  0.00     0.001 A 
HETATM   13  C12 UNL     1      26.821   0.353  54.426  1.00  0.00     0.013 A 
HETATM   14  N1  UNL     1      24.603   2.231  52.172  1.00  0.00    -0.175 NA
HETATM   15  N2  UNL     1      23.249   2.026  51.891  1.00  0.00    -0.262 N 
ENDROOT
BRANCH  15  16
HETATM   16  C13 UNL     1      22.387   2.769  51.006  1.00  0.00     0.229 C 
BRANCH  16  17
HETATM   17  S1  UNL     1      23.250   2.809  49.396  1.00  0.00    -0.120 SA
BRANCH  17  18
HETATM   18  C14 UNL     1      24.046   4.398  49.239  1.00  0.00     0.045 C 
HETATM   19  C15 UNL     1      25.319   4.700  49.424  1.00  0.00     0.008 C 
BRANCH  19  20
HETATM   20  C16 UNL     1      26.515   3.911  49.806  1.00  0.00     0.221 C 
BRANCH  20  21
HETATM   21  O1  UNL     1      27.506   4.035  48.816  1.00  0.00    -0.305 OA
BRANCH  21  22
HETATM   22  N3  UNL     1      28.271   5.085  49.108  1.00  0.00    -0.215 NA
HETATM   23  H15 UNL     1      28.786   4.939  50.005  1.00  0.00     0.150 HD
HETATM   24  H16 UNL     1      27.774   5.992  49.050  1.00  0.00     0.150 HD
ENDBRANCH  21  22
ENDBRANCH  20  21
ENDBRANCH  19  20
ENDBRANCH  17  18
ENDBRANCH  16  17
ENDBRANCH  15  16
TORSDOF 6
ENDMDL
MODEL 6
REMARK VINA RESULT:      -7.2      3.160      6.301
REMARK  6 active torsions:
REMARK  status: ('A' for Active; 'I' for Inactive)
REMARK    1  A    between atoms: N2_15  and  C13_16 
REMARK    2  A    between atoms: C13_16  and  S1_17 
REMARK    3  A    between atoms: S1_17  and  C14_18 
REMARK    4  A    between atoms: C15_19  and  C16_20 
REMARK    5  A    between atoms: C16_20  and  O1_21 
REMARK    6  A    between atoms: O1_21  and  N3_22 
ROOT
HETATM    1  C1  UNL     1      26.780   5.103  48.972  1.00  0.00     0.019 C 
HETATM    2  C2  UNL     1      25.768   4.451  49.212  1.00  0.00    -0.063 C 
HETATM    3  C3  UNL     1      24.556   3.697  49.502  1.00  0.00     0.111 C 
HETATM    4 CL1  UNL     1      23.202   4.110  48.471  1.00  0.00    -0.072 Cl
HETATM    5  C4  UNL     1      24.716   2.847  50.487  1.00  0.00     0.067 A 
HETATM    6  C5  UNL     1      26.063   2.808  51.112  1.00  0.00     0.123 A 
HETATM    7  C6  UNL     1      25.820   1.756  52.146  1.00  0.00     0.070 A 
HETATM    8  C7  UNL     1      26.850   1.318  53.064  1.00  0.00    -0.009 A 
HETATM    9  C8  UNL     1      26.598   0.350  54.001  1.00  0.00     0.013 A 
HETATM   10  C9  UNL     1      27.483  -0.139  54.912  1.00  0.00     0.001 A 
HETATM   11  C10 UNL     1      28.742   0.368  54.908  1.00  0.00     0.000 A 
HETATM   12  C11 UNL     1      29.080   1.359  53.985  1.00  0.00     0.001 A 
HETATM   13  C12 UNL     1      28.136   1.833  53.064  1.00  0.00     0.013 A 
HETATM   14  N1  UNL     1      24.620   1.288  52.133  1.00  0.00    -0.175 NA
HETATM   15  N2  UNL     1      23.864   1.908  51.133  1.00  0.00    -0.262 N 
ENDROOT
BRANCH  15  16
HETATM   16  C13 UNL     1      22.485   1.686  50.775  1.00  0.00     0.229 C 
BRANCH  16  17
HETATM   17  S1  UNL     1      21.506   2.254  52.209  1.00  0.00    -0.120 SA
BRANCH  17  18
HETATM   18  C14 UNL     1      20.532   0.877  52.788  1.00  0.00     0.045 C 
HETATM   19  C15 UNL     1      20.903  -0.119  53.574  1.00  0.00     0.008 C 
BRANCH  19  20
HETATM   20  C16 UNL     1      22.178  -0.476  54.244  1.00  0.00     0.221 C 
BRANCH  20  21
HETATM   21  O1  UNL     1      21.935  -1.409  55.267  1.00  0.00    -0.305 OA
BRANCH  21  22
HETATM   22  N3  UNL     1      23.100  -1.772  55.800  1.00  0.00    -0.215 NA
HETATM   23  H15 UNL     1      23.078  -2.768  56.111  1.00  0.00     0.150 HD
HETATM   24  H16 UNL     1      23.453  -1.112  56.516  1.00  0.00     0.150 HD
ENDBRANCH  21  22
ENDBRANCH  20  21
ENDBRANCH  19  20
ENDBRANCH  17  18
ENDBRANCH  16  17
ENDBRANCH  15  16
TORSDOF 6
ENDMDL
MODEL 7
REMARK VINA RESULT:      -7.1      2.981      5.272
REMARK  6 active torsions:
REMARK  status: ('A' for Active; 'I' for Inactive)
REMARK    1  A    between atoms: N2_15  and  C13_16 
REMARK    2  A    between atoms: C13_16  and  S1_17 
REMARK    3  A    between atoms: S1_17  and  C14_18 
REMARK    4  A    between atoms: C15_19  and  C16_20 
REMARK    5  A    between atoms: C16_20  and  O1_21 
REMARK    6  A    between atoms: O1_21  and  N3_22 
ROOT
HETATM    1  C1  UNL     1      21.808  -1.844  54.565  1.00  0.00     0.019 C 
HETATM    2  C2  UNL     1      21.786  -0.982  53.691  1.00  0.00    -0.063 C 
HETATM    3  C3  UNL     1      21.755   0.025  52.639  1.00  0.00     0.111 C 
HETATM    4 CL1  UNL     1      20.196   0.183  51.855  1.00  0.00    -0.072 Cl
HETATM    5  C4  UNL     1      22.910   0.625  52.482  1.00  0.00     0.067 A 
HETATM    6  C5  UNL     1      24.010   0.181  53.377  1.00  0.00     0.123 A 
HETATM    7  C6  UNL     1      25.101   1.077  52.884  1.00  0.00     0.070 A 
HETATM    8  C7  UNL     1      26.436   1.053  53.441  1.00  0.00    -0.009 A 
HETATM    9  C8  UNL     1      27.415   1.887  52.969  1.00  0.00     0.013 A 
HETATM   10  C9  UNL     1      28.700   1.954  53.412  1.00  0.00     0.001 A 
HETATM   11  C10 UNL     1      29.067   1.120  54.419  1.00  0.00     0.000 A 
HETATM   12  C11 UNL     1      28.128   0.238  54.955  1.00  0.00     0.001 A 
HETATM   13  C12 UNL     1      26.815   0.204  54.468  1.00  0.00     0.013 A 
HETATM   14  N1  UNL     1      24.732   1.860  51.929  1.00  0.00    -0.175 NA
HETATM   15  N2  UNL     1      23.386   1.647  51.615  1.00  0.00    -0.262 N 
ENDROOT
BRANCH  15  16
HETATM   16  C13 UNL     1      22.577   2.303  50.618  1.00  0.00     0.229 C 
BRANCH  16  17
HETATM   17  S1  UNL     1      21.686   3.632  51.502  1.00  0.00    -0.120 SA
BRANCH  17  18
HETATM   18  C14 UNL     1      22.900   4.733  52.205  1.00  0.00     0.045 C 
HETATM   19  C15 UNL     1      23.812   5.456  51.580  1.00  0.00     0.008 C 
BRANCH  19  20
HETATM   20  C16 UNL     1      24.174   5.639  50.152  1.00  0.00     0.221 C 
BRANCH  20  21
HETATM   21  O1  UNL     1      24.942   4.547  49.712  1.00  0.00    -0.305 OA
BRANCH  21  22
HETATM   22  N3  UNL     1      26.042   4.470  50.458  1.00  0.00    -0.215 NA
HETATM   23  H15 UNL     1      26.583   5.362  50.426  1.00  0.00     0.150 HD
HETATM   24  H16 UNL     1      26.611   3.624  50.276  1.00  0.00     0.150 HD
ENDBRANCH  21  22
ENDBRANCH  20  21
ENDBRANCH  19  20
ENDBRANCH  17  18
ENDBRANCH  16  17
ENDBRANCH  15  16
TORSDOF 6
ENDMDL
MODEL 8
REMARK VINA RESULT:      -6.7      4.060      7.000
REMARK  6 active torsions:
REMARK  status: ('A' for Active; 'I' for Inactive)
REMARK    1  A    between atoms: N2_15  and  C13_16 
REMARK    2  A    between atoms: C13_16  and  S1_17 
REMARK    3  A    between atoms: S1_17  and  C14_18 
REMARK    4  A    between atoms: C15_19  and  C16_20 
REMARK    5  A    between atoms: C16_20  and  O1_21 
REMARK    6  A    between atoms: O1_21  and  N3_22 
ROOT
HETATM    1  C1  UNL     1      26.249   3.252  49.688  1.00  0.00     0.019 C 
HETATM    2  C2  UNL     1      25.031   3.201  49.543  1.00  0.00    -0.063 C 
HETATM    3  C3  UNL     1      23.585   3.164  49.375  1.00  0.00     0.111 C 
HETATM    4 CL1  UNL     1      23.004   4.119  48.026  1.00  0.00    -0.072 Cl
HETATM    5  C4  UNL     1      22.993   2.413  50.273  1.00  0.00     0.067 A 
HETATM    6  C5  UNL     1      23.877   1.759  51.271  1.00  0.00     0.123 A 
HETATM    7  C6  UNL     1      22.843   1.035  52.073  1.00  0.00     0.070 A 
HETATM    8  C7  UNL     1      23.183   0.211  53.213  1.00  0.00    -0.009 A 
HETATM    9  C8  UNL     1      22.213  -0.442  53.928  1.00  0.00     0.013 A 
HETATM   10  C9  UNL     1      22.412  -1.240  55.012  1.00  0.00     0.001 A 
HETATM   11  C10 UNL     1      23.687  -1.420  55.442  1.00  0.00     0.000 A 
HETATM   12  C11 UNL     1      24.733  -0.789  54.767  1.00  0.00     0.001 A 
HETATM   13  C12 UNL     1      24.483   0.024  53.655  1.00  0.00     0.013 A 
HETATM   14  N1  UNL     1      21.641   1.219  51.649  1.00  0.00    -0.175 NA
HETATM   15  N2  UNL     1      21.640   2.062  50.533  1.00  0.00    -0.262 N 
ENDROOT
BRANCH  15  16
HETATM   16  C13 UNL     1      20.519   2.524  49.751  1.00  0.00     0.229 C 
BRANCH  16  17
HETATM   17  S1  UNL     1      19.707   3.808  50.766  1.00  0.00    -0.120 SA
BRANCH  17  18
HETATM   18  C14 UNL     1      20.564   5.348  50.492  1.00  0.00     0.045 C 
HETATM   19  C15 UNL     1      21.621   5.823  51.126  1.00  0.00     0.008 C 
BRANCH  19  20
HETATM   20  C16 UNL     1      22.464   5.316  52.237  1.00  0.00     0.221 C 
BRANCH  20  21
HETATM   21  O1  UNL     1      23.824   5.453  51.904  1.00  0.00    -0.305 OA
BRANCH  21  22
HETATM   22  N3  UNL     1      24.228   6.672  52.253  1.00  0.00    -0.215 NA
HETATM   23  H15 UNL     1      25.097   6.631  52.830  1.00  0.00     0.150 HD
HETATM   24  H16 UNL     1      23.478   7.259  52.660  1.00  0.00     0.150 HD
ENDBRANCH  21  22
ENDBRANCH  20  21
ENDBRANCH  19  20
ENDBRANCH  17  18
ENDBRANCH  16  17
ENDBRANCH  15  16
TORSDOF 6
ENDMDL
MODEL 9
REMARK VINA RESULT:      -6.7      4.155      7.200
REMARK  6 active torsions:
REMARK  status: ('A' for Active; 'I' for Inactive)
REMARK    1  A    between atoms: N2_15  and  C13_16 
REMARK    2  A    between atoms: C13_16  and  S1_17 
REMARK    3  A    between atoms: S1_17  and  C14_18 
REMARK    4  A    between atoms: C15_19  and  C16_20 
REMARK    5  A    between atoms: C16_20  and  O1_21 
REMARK    6  A    between atoms: O1_21  and  N3_22 
ROOT
HETATM    1  C1  UNL     1      27.783   5.059  48.464  1.00  0.00     0.019 C 
HETATM    2  C2  UNL     1      26.675   5.329  48.918  1.00  0.00    -0.063 C 
HETATM    3  C3  UNL     1      25.370   5.669  49.468  1.00  0.00     0.111 C 
HETATM    4 CL1  UNL     1      24.737   7.198  48.893  1.00  0.00    -0.072 Cl
HETATM    5  C4  UNL     1      24.917   4.755  50.292  1.00  0.00     0.067 A 
HETATM    6  C5  UNL     1      25.792   3.575  50.511  1.00  0.00     0.123 A 
HETATM    7  C6  UNL     1      24.938   2.817  51.477  1.00  0.00     0.070 A 
HETATM    8  C7  UNL     1      25.338   1.541  52.031  1.00  0.00    -0.009 A 
HETATM    9  C8  UNL     1      24.534   0.869  52.913  1.00  0.00     0.013 A 
HETATM   10  C9  UNL     1      24.803  -0.331  53.496  1.00  0.00     0.001 A 
HETATM   11  C10 UNL     1      25.978  -0.936  53.186  1.00  0.00     0.000 A 
HETATM   12  C11 UNL     1      26.855  -0.316  52.295  1.00  0.00     0.001 A 
HETATM   13  C12 UNL     1      26.536   0.920  51.718  1.00  0.00     0.013 A 
HETATM   14  N1  UNL     1      23.829   3.408  51.758  1.00  0.00    -0.175 NA
HETATM   15  N2  UNL     1      23.731   4.620  51.065  1.00  0.00    -0.262 N 
ENDROOT
BRANCH  15  16
HETATM   16  C13 UNL     1      22.663   5.589  51.086  1.00  0.00     0.229 C 
BRANCH  16  17
HETATM   17  S1  UNL     1      21.195   4.718  50.435  1.00  0.00    -0.120 SA
BRANCH  17  18
HETATM   18  C14 UNL     1      21.360   4.614  48.662  1.00  0.00     0.045 C 
HETATM   19  C15 UNL     1      22.009   3.711  47.949  1.00  0.00     0.008 C 
BRANCH  19  20
HETATM   20  C16 UNL     1      22.804   2.507  48.298  1.00  0.00     0.221 C 
BRANCH  20  21
HETATM   21  O1  UNL     1      21.944   1.462  48.678  1.00  0.00    -0.305 OA
BRANCH  21  22
HETATM   22  N3  UNL     1      22.100   1.233  49.980  1.00  0.00    -0.215 NA
HETATM   23  H15 UNL     1      22.388   0.245  50.157  1.00  0.00     0.150 HD
HETATM   24  H16 UNL     1      21.301   1.550  50.557  1.00  0.00     0.150 HD
ENDBRANCH  21  22
ENDBRANCH  20  21
ENDBRANCH  19  20
ENDBRANCH  17  18
ENDBRANCH  16  17
ENDBRANCH  15  16
TORSDOF 6
ENDMDL
