MODEL 1
REMARK VINA RESULT:      -7.6      0.000      0.000
REMARK  5 active torsions:
REMARK  status: ('A' for Active; 'I' for Inactive)
REMARK    1  A    between atoms: C3_3  and  C4_4 
REMARK       I    between atoms: C4_4  and  N1_6 
REMARK    2  A    between atoms: N1_6  and  C5_7 
REMARK    3  A    between atoms: C9_12  and  C10_13 
REMARK    4  A    between atoms: C10_13  and  N2_14 
REMARK    5  A    between atoms: N2_14  and  C11_15 
ROOT
HETATM    1  C1  UNL     1      33.448   3.700  45.896  1.00  0.00     0.112 C 
HETATM    2  C2  UNL     1      32.398   4.385  46.682  1.00  0.00    -0.101 C 
HETATM    3  C3  UNL     1      31.539   4.945  47.348  1.00  0.00    -0.006 C 
ENDROOT
BRANCH   3   4
HETATM    4  C4  UNL     1      30.541   5.599  48.147  1.00  0.00     0.300 C 
HETATM    5  O1  UNL     1      30.902   6.531  48.943  1.00  0.00    -0.258 OA
HETATM    6  N1  UNL     1      29.211   5.149  47.983  1.00  0.00    -0.316 N 
HETATM    7  H4  UNL     1      28.974   4.381  47.315  1.00  0.00     0.170 HD
BRANCH   6   8
HETATM    8  C5  UNL     1      27.914   5.437  48.496  1.00  0.00     0.036 A 
HETATM    9  C6  UNL     1      27.402   6.711  48.398  1.00  0.00     0.031 A 
HETATM   10  C7  UNL     1      26.142   6.954  48.906  1.00  0.00     0.021 A 
HETATM   11  C8  UNL     1      25.413   5.923  49.505  1.00  0.00     0.014 A 
HETATM   12  I1  UNL     1      23.519   6.482  50.220  1.00  0.00    -0.044 I 
HETATM   13  C9  UNL     1      25.958   4.645  49.590  1.00  0.00    -0.022 A 
HETATM   14  C17 UNL     1      27.219   4.399  49.081  1.00  0.00     0.039 A 
BRANCH  13  15
HETATM   15  C10 UNL     1      25.039   3.698  50.253  1.00  0.00     0.160 C 
BRANCH  15  16
HETATM   16  N2  UNL     1      25.606   3.291  51.521  1.00  0.00    -0.386 N 
HETATM   17  H9  UNL     1      26.017   3.993  52.171  1.00  0.00     0.160 HD
BRANCH  16  18
HETATM   18  C11 UNL     1      25.651   1.938  51.979  1.00  0.00     0.029 A 
HETATM   19  C12 UNL     1      26.743   1.109  51.852  1.00  0.00     0.029 A 
HETATM   20  C13 UNL     1      26.720  -0.199  52.321  1.00  0.00     0.004 A 
HETATM   21  C14 UNL     1      25.581  -0.713  52.939  1.00  0.00     0.019 A 
HETATM   22  C15 UNL     1      24.500   0.136  53.053  1.00  0.00     0.013 A 
HETATM   23 BR1  UNL     1      22.953  -0.599  53.902  1.00  0.00    -0.051 Br
HETATM   24  C16 UNL     1      24.494   1.448  52.594  1.00  0.00     0.048 A 
ENDBRANCH  16  18
ENDBRANCH  15  16
ENDBRANCH  13  15
ENDBRANCH   6   8
ENDBRANCH   3   4
TORSDOF 5
ENDMDL
MODEL 2
REMARK VINA RESULT:      -7.2      3.906      7.027
REMARK  5 active torsions:
REMARK  status: ('A' for Active; 'I' for Inactive)
REMARK    1  A    between atoms: C3_3  and  C4_4 
REMARK       I    between atoms: C4_4  and  N1_6 
REMARK    2  A    between atoms: N1_6  and  C5_7 
REMARK    3  A    between atoms: C9_12  and  C10_13 
REMARK    4  A    between atoms: C10_13  and  N2_14 
REMARK    5  A    between atoms: N2_14  and  C11_15 
ROOT
HETATM    1  C1  UNL     1      29.567  -2.233  53.447  1.00  0.00     0.112 C 
HETATM    2  C2  UNL     1      28.862  -0.933  53.451  1.00  0.00    -0.101 C 
HETATM    3  C3  UNL     1      28.286   0.146  53.436  1.00  0.00    -0.006 C 
ENDROOT
BRANCH   3   4
HETATM    4  C4  UNL     1      27.613   1.414  53.398  1.00  0.00     0.300 C 
HETATM    5  O1  UNL     1      28.066   2.374  54.107  1.00  0.00    -0.258 OA
HETATM    6  N1  UNL     1      26.478   1.496  52.558  1.00  0.00    -0.316 N 
HETATM    7  H4  UNL     1      26.153   0.675  51.999  1.00  0.00     0.170 HD
BRANCH   6   8
HETATM    8  C5  UNL     1      25.503   2.459  52.171  1.00  0.00     0.036 A 
HETATM    9  C6  UNL     1      24.452   2.750  53.011  1.00  0.00     0.031 A 
HETATM   10  C7  UNL     1      23.525   3.687  52.604  1.00  0.00     0.021 A 
HETATM   11  C8  UNL     1      23.660   4.320  51.365  1.00  0.00     0.014 A 
HETATM   12  I1  UNL     1      22.155   5.715  50.917  1.00  0.00    -0.044 I 
HETATM   13  C9  UNL     1      24.733   4.004  50.536  1.00  0.00    -0.022 A 
HETATM   14  C17 UNL     1      25.663   3.066  50.943  1.00  0.00     0.039 A 
BRANCH  13  15
HETATM   15  C10 UNL     1      24.702   4.774  49.277  1.00  0.00     0.160 C 
BRANCH  15  16
HETATM   16  N2  UNL     1      25.511   5.966  49.426  1.00  0.00    -0.386 N 
HETATM   17  H9  UNL     1      25.151   6.791  49.949  1.00  0.00     0.160 HD
BRANCH  16  18
HETATM   18  C11 UNL     1      26.827   6.110  48.890  1.00  0.00     0.029 A 
HETATM   19  C12 UNL     1      27.682   5.061  48.634  1.00  0.00     0.029 A 
HETATM   20  C13 UNL     1      28.953   5.272  48.111  1.00  0.00     0.004 A 
HETATM   21  C14 UNL     1      29.401   6.562  47.829  1.00  0.00     0.019 A 
HETATM   22  C15 UNL     1      28.527   7.595  48.095  1.00  0.00     0.013 A 
HETATM   23 BR1  UNL     1      29.171   9.351  47.699  1.00  0.00    -0.051 Br
HETATM   24  C16 UNL     1      27.251   7.415  48.618  1.00  0.00     0.048 A 
ENDBRANCH  16  18
ENDBRANCH  15  16
ENDBRANCH  13  15
ENDBRANCH   6   8
ENDBRANCH   3   4
TORSDOF 5
ENDMDL
MODEL 3
REMARK VINA RESULT:      -7.1      5.351      9.571
REMARK  5 active torsions:
REMARK  status: ('A' for Active; 'I' for Inactive)
REMARK    1  A    between atoms: C3_3  and  C4_4 
REMARK       I    between atoms: C4_4  and  N1_6 
REMARK    2  A    between atoms: N1_6  and  C5_7 
REMARK    3  A    between atoms: C9_12  and  C10_13 
REMARK    4  A    between atoms: C10_13  and  N2_14 
REMARK    5  A    between atoms: N2_14  and  C11_15 
ROOT
HETATM    1  C1  UNL     1      16.409   0.179  49.447  1.00  0.00     0.112 C 
HETATM    2  C2  UNL     1      17.482   0.089  50.461  1.00  0.00    -0.101 C 
HETATM    3  C3  UNL     1      18.371  -0.004  51.295  1.00  0.00    -0.006 C 
ENDROOT
BRANCH   3   4
HETATM    4  C4  UNL     1      19.420  -0.133  52.267  1.00  0.00     0.300 C 
HETATM    5  O1  UNL     1      19.123  -0.514  53.449  1.00  0.00    -0.258 OA
HETATM    6  N1  UNL     1      20.727   0.180  51.824  1.00  0.00    -0.316 N 
HETATM    7  H4  UNL     1      20.911   0.487  50.842  1.00  0.00     0.170 HD
BRANCH   6   8
HETATM    8  C5  UNL     1      22.051   0.218  52.345  1.00  0.00     0.036 A 
HETATM    9  C6  UNL     1      22.425  -0.657  53.341  1.00  0.00     0.031 A 
HETATM   10  C7  UNL     1      23.716  -0.593  53.823  1.00  0.00     0.021 A 
HETATM   11  C8  UNL     1      24.615   0.344  53.304  1.00  0.00     0.014 A 
HETATM   12  I1  UNL     1      26.533   0.294  54.160  1.00  0.00    -0.044 I 
HETATM   13  C9  UNL     1      24.208   1.216  52.299  1.00  0.00    -0.022 A 
HETATM   14  C17 UNL     1      22.916   1.152  51.814  1.00  0.00     0.039 A 
BRANCH  13  15
HETATM   15  C10 UNL     1      25.296   2.125  51.886  1.00  0.00     0.160 C 
BRANCH  15  16
HETATM   16  N2  UNL     1      24.735   3.233  51.140  1.00  0.00    -0.386 N 
HETATM   17  H9  UNL     1      23.724   3.469  51.220  1.00  0.00     0.160 HD
BRANCH  16  18
HETATM   18  C11 UNL     1      25.490   4.070  50.263  1.00  0.00     0.029 A 
HETATM   19  C12 UNL     1      26.703   3.724  49.710  1.00  0.00     0.029 A 
HETATM   20  C13 UNL     1      27.387   4.587  48.862  1.00  0.00     0.004 A 
HETATM   21  C14 UNL     1      26.859   5.838  48.545  1.00  0.00     0.019 A 
HETATM   22  C15 UNL     1      25.645   6.162  49.113  1.00  0.00     0.013 A 
HETATM   23 BR1  UNL     1      24.950   7.885  48.661  1.00  0.00    -0.051 Br
HETATM   24  C16 UNL     1      24.938   5.320  49.964  1.00  0.00     0.048 A 
ENDBRANCH  16  18
ENDBRANCH  15  16
ENDBRANCH  13  15
ENDBRANCH   6   8
ENDBRANCH   3   4
TORSDOF 5
ENDMDL
MODEL 4
REMARK VINA RESULT:      -7.0      3.946      5.674
REMARK  5 active torsions:
REMARK  status: ('A' for Active; 'I' for Inactive)
REMARK    1  A    between atoms: C3_3  and  C4_4 
REMARK       I    between atoms: C4_4  and  N1_6 
REMARK    2  A    between atoms: N1_6  and  C5_7 
REMARK    3  A    between atoms: C9_12  and  C10_13 
REMARK    4  A    between atoms: C10_13  and  N2_14 
REMARK    5  A    between atoms: N2_14  and  C11_15 
ROOT
HETATM    1  C1  UNL     1      29.901  -1.353  53.830  1.00  0.00     0.112 C 
HETATM    2  C2  UNL     1      28.667  -0.717  53.321  1.00  0.00    -0.101 C 
HETATM    3  C3  UNL     1      27.656  -0.176  52.895  1.00  0.00    -0.006 C 
ENDROOT
BRANCH   3   4
HETATM    4  C4  UNL     1      26.482   0.473  52.384  1.00  0.00     0.300 C 
HETATM    5  O1  UNL     1      25.337  -0.030  52.642  1.00  0.00    -0.258 OA
HETATM    6  N1  UNL     1      26.695   1.644  51.619  1.00  0.00    -0.316 N 
HETATM    7  H4  UNL     1      27.657   2.010  51.440  1.00  0.00     0.170 HD
BRANCH   6   8
HETATM    8  C5  UNL     1      25.927   2.619  50.921  1.00  0.00     0.036 A 
HETATM    9  C6  UNL     1      26.504   3.356  49.911  1.00  0.00     0.031 A 
HETATM   10  C7  UNL     1      25.731   4.292  49.256  1.00  0.00     0.021 A 
HETATM   11  C8  UNL     1      24.394   4.478  49.617  1.00  0.00     0.014 A 
HETATM   12  I1  UNL     1      23.377   5.944  48.509  1.00  0.00    -0.044 I 
HETATM   13  C9  UNL     1      23.838   3.718  50.642  1.00  0.00    -0.022 A 
HETATM   14  C17 UNL     1      24.610   2.779  51.299  1.00  0.00     0.039 A 
BRANCH  13  15
HETATM   15  C10 UNL     1      22.420   4.059  50.873  1.00  0.00     0.160 C 
BRANCH  15  16
HETATM   16  N2  UNL     1      21.983   3.463  52.118  1.00  0.00    -0.386 N 
HETATM   17  H9  UNL     1      22.245   3.887  53.032  1.00  0.00     0.160 HD
BRANCH  16  18
HETATM   18  C11 UNL     1      21.181   2.284  52.201  1.00  0.00     0.029 A 
HETATM   19  C12 UNL     1      19.989   2.105  51.534  1.00  0.00     0.029 A 
HETATM   20  C13 UNL     1      19.256   0.930  51.659  1.00  0.00     0.004 A 
HETATM   21  C14 UNL     1      19.712  -0.109  52.469  1.00  0.00     0.019 A 
HETATM   22  C15 UNL     1      20.907   0.095  53.127  1.00  0.00     0.013 A 
HETATM   23 BR1  UNL     1      21.503  -1.348  54.231  1.00  0.00    -0.051 Br
HETATM   24  C16 UNL     1      21.661   1.258  53.022  1.00  0.00     0.048 A 
ENDBRANCH  16  18
ENDBRANCH  15  16
ENDBRANCH  13  15
ENDBRANCH   6   8
ENDBRANCH   3   4
TORSDOF 5
ENDMDL
MODEL 5
REMARK VINA RESULT:      -7.0      1.819      1.987
REMARK  5 active torsions:
REMARK  status: ('A' for Active; 'I' for Inactive)
REMARK    1  A    between atoms: C3_3  and  C4_4 
REMARK       I    between atoms: C4_4  and  N1_6 
REMARK    2  A    between atoms: N1_6  and  C5_7 
REMARK    3  A    between atoms: C9_12  and  C10_13 
REMARK    4  A    between atoms: C10_13  and  N2_14 
REMARK    5  A    between atoms: N2_14  and  C11_15 
ROOT
HETATM    1  C1  UNL     1      32.477   8.478  48.499  1.00  0.00     0.112 C 
HETATM    2  C2  UNL     1      31.279   7.611  48.441  1.00  0.00    -0.101 C 
HETATM    3  C3  UNL     1      30.300   6.880  48.399  1.00  0.00    -0.006 C 
ENDROOT
BRANCH   3   4
HETATM    4  C4  UNL     1      29.161   6.007  48.360  1.00  0.00     0.300 C 
HETATM    5  O1  UNL     1      29.332   4.783  48.036  1.00  0.00    -0.258 OA
HETATM    6  N1  UNL     1      27.914   6.586  48.693  1.00  0.00    -0.316 N 
HETATM    7  H4  UNL     1      27.834   7.596  48.951  1.00  0.00     0.170 HD
BRANCH   6   8
HETATM    8  C5  UNL     1      26.550   6.194  48.808  1.00  0.00     0.036 A 
HETATM    9  C6  UNL     1      25.576   6.880  48.116  1.00  0.00     0.031 A 
HETATM   10  C7  UNL     1      24.265   6.473  48.251  1.00  0.00     0.021 A 
HETATM   11  C8  UNL     1      23.944   5.389  49.074  1.00  0.00     0.014 A 
HETATM   12  I1  UNL     1      21.899   4.917  49.155  1.00  0.00    -0.044 I 
HETATM   13  C9  UNL     1      24.950   4.717  49.761  1.00  0.00    -0.022 A 
HETATM   14  C17 UNL     1      26.265   5.122  49.627  1.00  0.00     0.039 A 
BRANCH  13  15
HETATM   15  C10 UNL     1      24.415   3.606  50.574  1.00  0.00     0.160 C 
BRANCH  15  16
HETATM   16  N2  UNL     1      25.431   3.161  51.503  1.00  0.00    -0.386 N 
HETATM   17  H9  UNL     1      26.151   3.822  51.861  1.00  0.00     0.160 HD
BRANCH  16  18
HETATM   18  C11 UNL     1      25.534   1.824  51.996  1.00  0.00     0.029 A 
HETATM   19  C12 UNL     1      26.651   1.029  51.863  1.00  0.00     0.029 A 
HETATM   20  C13 UNL     1      26.684  -0.266  52.367  1.00  0.00     0.004 A 
HETATM   21  C14 UNL     1      25.579  -0.801  53.028  1.00  0.00     0.019 A 
HETATM   22  C15 UNL     1      24.473   0.015  53.147  1.00  0.00     0.013 A 
HETATM   23 BR1  UNL     1      22.973  -0.748  54.056  1.00  0.00    -0.051 Br
HETATM   24  C16 UNL     1      24.410   1.313  52.654  1.00  0.00     0.048 A 
ENDBRANCH  16  18
ENDBRANCH  15  16
ENDBRANCH  13  15
ENDBRANCH   6   8
ENDBRANCH   3   4
TORSDOF 5
ENDMDL
MODEL 6
REMARK VINA RESULT:      -6.8      1.788      2.133
REMARK  5 active torsions:
REMARK  status: ('A' for Active; 'I' for Inactive)
REMARK    1  A    between atoms: C3_3  and  C4_4 
REMARK       I    between atoms: C4_4  and  N1_6 
REMARK    2  A    between atoms: N1_6  and  C5_7 
REMARK    3  A    between atoms: C9_12  and  C10_13 
REMARK    4  A    between atoms: C10_13  and  N2_14 
REMARK    5  A    between atoms: N2_14  and  C11_15 
ROOT
HETATM    1  C1  UNL     1      33.249   5.497  48.473  1.00  0.00     0.112 C 
HETATM    2  C2  UNL     1      31.818   5.871  48.453  1.00  0.00    -0.101 C 
HETATM    3  C3  UNL     1      30.639   6.196  48.448  1.00  0.00    -0.006 C 
ENDROOT
BRANCH   3   4
HETATM    4  C4  UNL     1      29.260   6.597  48.449  1.00  0.00     0.300 C 
HETATM    5  O1  UNL     1      28.973   7.817  48.205  1.00  0.00    -0.258 OA
HETATM    6  N1  UNL     1      28.312   5.584  48.724  1.00  0.00    -0.316 N 
HETATM    7  H4  UNL     1      28.606   4.600  48.916  1.00  0.00     0.170 HD
BRANCH   6   8
HETATM    8  C5  UNL     1      26.900   5.445  48.840  1.00  0.00     0.036 A 
HETATM    9  C6  UNL     1      26.069   6.436  48.365  1.00  0.00     0.031 A 
HETATM   10  C7  UNL     1      24.706   6.269  48.494  1.00  0.00     0.021 A 
HETATM   11  C8  UNL     1      24.191   5.116  49.095  1.00  0.00     0.014 A 
HETATM   12  I1  UNL     1      22.095   5.038  49.203  1.00  0.00    -0.044 I 
HETATM   13  C9  UNL     1      25.056   4.132  49.566  1.00  0.00    -0.022 A 
HETATM   14  C17 UNL     1      26.422   4.297  49.437  1.00  0.00     0.039 A 
BRANCH  13  15
HETATM   15  C10 UNL     1      24.325   2.997  50.164  1.00  0.00     0.160 C 
BRANCH  15  16
HETATM   16  N2  UNL     1      24.669   2.893  51.567  1.00  0.00    -0.386 N 
HETATM   17  H9  UNL     1      24.765   3.746  52.155  1.00  0.00     0.160 HD
BRANCH  16  18
HETATM   18  C11 UNL     1      24.899   1.657  52.244  1.00  0.00     0.029 A 
HETATM   19  C12 UNL     1      23.905   0.861  52.770  1.00  0.00     0.029 A 
HETATM   20  C13 UNL     1      24.197  -0.333  53.418  1.00  0.00     0.004 A 
HETATM   21  C14 UNL     1      25.516  -0.763  53.555  1.00  0.00     0.019 A 
HETATM   22  C15 UNL     1      26.493   0.051  53.020  1.00  0.00     0.013 A 
HETATM   23 BR1  UNL     1      28.292  -0.566  53.226  1.00  0.00    -0.051 Br
HETATM   24  C16 UNL     1      26.231   1.250  52.367  1.00  0.00     0.048 A 
ENDBRANCH  16  18
ENDBRANCH  15  16
ENDBRANCH  13  15
ENDBRANCH   6   8
ENDBRANCH   3   4
TORSDOF 5
ENDMDL
MODEL 7
REMARK VINA RESULT:      -6.8      5.522      7.737
REMARK  5 active torsions:
REMARK  status: ('A' for Active; 'I' for Inactive)
REMARK    1  A    between atoms: C3_3  and  C4_4 
REMARK       I    between atoms: C4_4  and  N1_6 
REMARK    2  A    between atoms: N1_6  and  C5_7 
REMARK    3  A    between atoms: C9_12  and  C10_13 
REMARK    4  A    between atoms: C10_13  and  N2_14 
REMARK    5  A    between atoms: N2_14  and  C11_15 
ROOT
HETATM    1  C1  UNL     1      30.148  -1.466  53.796  1.00  0.00     0.112 C 
HETATM    2  C2  UNL     1      28.930  -0.630  53.861  1.00  0.00    -0.101 C 
HETATM    3  C3  UNL     1      27.923   0.062  53.896  1.00  0.00    -0.006 C 
ENDROOT
BRANCH   3   4
HETATM    4  C4  UNL     1      26.736   0.871  53.916  1.00  0.00     0.300 C 
HETATM    5  O1  UNL     1      26.759   1.984  54.542  1.00  0.00    -0.258 OA
HETATM    6  N1  UNL     1      25.615   0.358  53.223  1.00  0.00    -0.316 N 
HETATM    7  H4  UNL     1      25.655  -0.562  52.727  1.00  0.00     0.170 HD
BRANCH   6   8
HETATM    8  C5  UNL     1      24.270   0.731  52.942  1.00  0.00     0.036 A 
HETATM    9  C6  UNL     1      23.278  -0.224  52.932  1.00  0.00     0.031 A 
HETATM   10  C7  UNL     1      21.986   0.172  52.655  1.00  0.00     0.021 A 
HETATM   11  C8  UNL     1      21.703   1.516  52.392  1.00  0.00     0.014 A 
HETATM   12  I1  UNL     1      19.683   1.929  51.991  1.00  0.00    -0.044 I 
HETATM   13  C9  UNL     1      22.727   2.458  52.408  1.00  0.00    -0.022 A 
HETATM   14  C17 UNL     1      24.021   2.063  52.686  1.00  0.00     0.039 A 
BRANCH  13  15
HETATM   15  C10 UNL     1      22.230   3.816  52.107  1.00  0.00     0.160 C 
BRANCH  15  16
HETATM   16  N2  UNL     1      23.350   4.672  51.776  1.00  0.00    -0.386 N 
HETATM   17  H9  UNL     1      24.323   4.387  52.009  1.00  0.00     0.160 HD
BRANCH  16  18
HETATM   18  C11 UNL     1      23.224   5.937  51.125  1.00  0.00     0.029 A 
HETATM   19  C12 UNL     1      22.029   6.483  50.711  1.00  0.00     0.029 A 
HETATM   20  C13 UNL     1      21.977   7.722  50.081  1.00  0.00     0.004 A 
HETATM   21  C14 UNL     1      23.142   8.451  49.849  1.00  0.00     0.019 A 
HETATM   22  C15 UNL     1      24.325   7.882  50.272  1.00  0.00     0.013 A 
HETATM   23 BR1  UNL     1      25.905   8.906  49.938  1.00  0.00    -0.051 Br
HETATM   24  C16 UNL     1      24.408   6.646  50.904  1.00  0.00     0.048 A 
ENDBRANCH  16  18
ENDBRANCH  15  16
ENDBRANCH  13  15
ENDBRANCH   6   8
ENDBRANCH   3   4
TORSDOF 5
ENDMDL
MODEL 8
REMARK VINA RESULT:      -6.8      4.618      7.253
REMARK  5 active torsions:
REMARK  status: ('A' for Active; 'I' for Inactive)
REMARK    1  A    between atoms: C3_3  and  C4_4 
REMARK       I    between atoms: C4_4  and  N1_6 
REMARK    2  A    between atoms: N1_6  and  C5_7 
REMARK    3  A    between atoms: C9_12  and  C10_13 
REMARK    4  A    between atoms: C10_13  and  N2_14 
REMARK    5  A    between atoms: N2_14  and  C11_15 
ROOT
HETATM    1  C1  UNL     1      29.974  -1.469  53.870  1.00  0.00     0.112 C 
HETATM    2  C2  UNL     1      28.743  -0.829  53.356  1.00  0.00    -0.101 C 
HETATM    3  C3  UNL     1      27.734  -0.283  52.933  1.00  0.00    -0.006 C 
ENDROOT
BRANCH   3   4
HETATM    4  C4  UNL     1      26.560   0.375  52.432  1.00  0.00     0.300 C 
HETATM    5  O1  UNL     1      26.701   1.405  51.690  1.00  0.00    -0.258 OA
HETATM    6  N1  UNL     1      25.318  -0.184  52.810  1.00  0.00    -0.316 N 
HETATM    7  H4  UNL     1      25.264  -1.030  53.421  1.00  0.00     0.170 HD
BRANCH   6   8
HETATM    8  C5  UNL     1      23.930   0.059  52.603  1.00  0.00     0.036 A 
HETATM    9  C6  UNL     1      22.992  -0.692  53.277  1.00  0.00     0.031 A 
HETATM   10  C7  UNL     1      21.656  -0.431  53.053  1.00  0.00     0.021 A 
HETATM   11  C8  UNL     1      21.275   0.576  52.161  1.00  0.00     0.014 A 
HETATM   12  I1  UNL     1      19.201   0.829  51.949  1.00  0.00    -0.044 I 
HETATM   13  C9  UNL     1      22.246   1.318  51.494  1.00  0.00    -0.022 A 
HETATM   14  C17 UNL     1      23.585   1.058  51.717  1.00  0.00     0.039 A 
BRANCH  13  15
HETATM   15  C10 UNL     1      21.648   2.328  50.599  1.00  0.00     0.160 C 
BRANCH  15  16
HETATM   16  N2  UNL     1      22.644   2.772  49.646  1.00  0.00    -0.386 N 
HETATM   17  H9  UNL     1      22.774   2.273  48.742  1.00  0.00     0.160 HD
BRANCH  16  18
HETATM   18  C11 UNL     1      23.504   3.893  49.852  1.00  0.00     0.029 A 
HETATM   19  C12 UNL     1      23.139   5.042  50.519  1.00  0.00     0.029 A 
HETATM   20  C13 UNL     1      24.027   6.099  50.686  1.00  0.00     0.004 A 
HETATM   21  C14 UNL     1      25.323   6.024  50.178  1.00  0.00     0.019 A 
HETATM   22  C15 UNL     1      25.664   4.864  49.514  1.00  0.00     0.013 A 
HETATM   23 BR1  UNL     1      27.448   4.794  48.828  1.00  0.00    -0.051 Br
HETATM   24  C16 UNL     1      24.798   3.792  49.332  1.00  0.00     0.048 A 
ENDBRANCH  16  18
ENDBRANCH  15  16
ENDBRANCH  13  15
ENDBRANCH   6   8
ENDBRANCH   3   4
TORSDOF 5
ENDMDL
MODEL 9
REMARK VINA RESULT:      -6.6      5.637      6.960
REMARK  5 active torsions:
REMARK  status: ('A' for Active; 'I' for Inactive)
REMARK    1  A    between atoms: C3_3  and  C4_4 
REMARK       I    between atoms: C4_4  and  N1_6 
REMARK    2  A    between atoms: N1_6  and  C5_7 
REMARK    3  A    between atoms: C9_12  and  C10_13 
REMARK    4  A    between atoms: C10_13  and  N2_14 
REMARK    5  A    between atoms: N2_14  and  C11_15 
ROOT
HETATM    1  C1  UNL     1      23.375   6.914  46.640  1.00  0.00     0.112 C 
HETATM    2  C2  UNL     1      22.772   5.772  47.362  1.00  0.00    -0.101 C 
HETATM    3  C3  UNL     1      22.289   4.817  47.954  1.00  0.00    -0.006 C 
ENDROOT
BRANCH   3   4
HETATM    4  C4  UNL     1      21.741   3.686  48.648  1.00  0.00     0.300 C 
HETATM    5  O1  UNL     1      20.761   3.057  48.125  1.00  0.00    -0.258 OA
HETATM    6  N1  UNL     1      22.347   3.354  49.882  1.00  0.00    -0.316 N 
HETATM    7  H4  UNL     1      23.149   3.906  50.262  1.00  0.00     0.170 HD
BRANCH   6   8
HETATM    8  C5  UNL     1      22.206   2.384  50.915  1.00  0.00     0.036 A 
HETATM    9  C6  UNL     1      20.956   2.084  51.411  1.00  0.00     0.031 A 
HETATM   10  C7  UNL     1      20.856   1.140  52.412  1.00  0.00     0.021 A 
HETATM   11  C8  UNL     1      22.003   0.509  52.904  1.00  0.00     0.014 A 
HETATM   12  I1  UNL     1      21.654  -0.897  54.424  1.00  0.00    -0.044 I 
HETATM   13  C9  UNL     1      23.252   0.834  52.383  1.00  0.00    -0.022 A 
HETATM   14  C17 UNL     1      23.355   1.779  51.380  1.00  0.00     0.039 A 
BRANCH  13  15
HETATM   15  C10 UNL     1      24.334   0.065  53.028  1.00  0.00     0.160 C 
BRANCH  15  16
HETATM   16  N2  UNL     1      25.214   0.976  53.731  1.00  0.00    -0.386 N 
HETATM   17  H9  UNL     1      24.827   1.762  54.292  1.00  0.00     0.160 HD
BRANCH  16  18
HETATM   18  C11 UNL     1      26.639   0.879  53.720  1.00  0.00     0.029 A 
HETATM   19  C12 UNL     1      27.493   1.951  53.862  1.00  0.00     0.029 A 
HETATM   20  C13 UNL     1      28.873   1.787  53.842  1.00  0.00     0.004 A 
HETATM   21  C14 UNL     1      29.437   0.523  53.676  1.00  0.00     0.019 A 
HETATM   22  C15 UNL     1      28.561  -0.533  53.535  1.00  0.00     0.013 A 
HETATM   23 BR1  UNL     1      29.365  -2.254  53.308  1.00  0.00    -0.051 Br
HETATM   24  C16 UNL     1      27.177  -0.401  53.551  1.00  0.00     0.048 A 
ENDBRANCH  16  18
ENDBRANCH  15  16
ENDBRANCH  13  15
ENDBRANCH   6   8
ENDBRANCH   3   4
TORSDOF 5
ENDMDL
