MODEL 1
REMARK VINA RESULT:      -8.6      0.000      0.000
REMARK  3 active torsions:
REMARK  status: ('A' for Active; 'I' for Inactive)
REMARK    1  A    between atoms: C2_2  and  C3_3 
REMARK    2  A    between atoms: C6_7  and  N2_8 
REMARK    3  A    between atoms: N2_8  and  C7_9 
ROOT
HETATM    1  C3  UNL     1      26.287   0.699  51.991  1.00  0.00     0.045 C 
HETATM    2  C4  UNL     1      26.890   1.848  52.819  1.00  0.00     0.280 C 
HETATM    3  N1  UNL     1      25.958   2.900  52.480  1.00  0.00     0.098 N 
HETATM    4  C5  UNL     1      24.652   2.256  52.221  1.00  0.00     0.299 C 
HETATM    5  C6  UNL     1      24.329   2.504  50.785  1.00  0.00     0.048 C 
HETATM    6  C13 UNL     1      23.194   1.829  50.694  1.00  0.00     0.101 C 
HETATM    7  C14 UNL     1      22.671   1.138  51.898  1.00  0.00     0.247 C 
HETATM    8  O1  UNL     1      21.722   0.375  52.216  1.00  0.00    -0.268 OA
HETATM    9  N4  UNL     1      22.826   0.878  53.319  1.00  0.00    -0.328 N 
HETATM   10  C15 UNL     1      21.948  -0.018  53.967  1.00  0.00     0.008 C 
HETATM   11  C16 UNL     1      20.629   0.461  54.338  1.00  0.00     0.068 C 
HETATM   12  C17 UNL     1      23.070  -0.776  53.771  1.00  0.00     0.025 C 
HETATM   13  C18 UNL     1      24.213  -0.168  53.114  1.00  0.00     0.008 C 
HETATM   14  C19 UNL     1      24.877   0.818  52.531  1.00  0.00    -0.035 C 
HETATM   15  H9  UNL     1      26.324   3.330  51.605  1.00  0.00     0.317 HD
HETATM   16  H19 UNL     1      23.374   1.198  54.202  1.00  0.00     0.169 HD
ENDROOT
BRANCH   5  17
HETATM   17  N2  UNL     1      24.612   3.076  49.513  1.00  0.00    -0.379 N 
HETATM   18  H11 UNL     1      24.765   2.381  48.746  1.00  0.00     0.160 HD
BRANCH  17  19
HETATM   19  C7  UNL     1      24.613   4.532  49.616  1.00  0.00     0.137 C 
HETATM   20  C8  UNL     1      23.552   5.121  48.762  1.00  0.00     0.036 C 
HETATM   21  C9  UNL     1      23.558   6.436  48.842  1.00  0.00     0.083 C 
HETATM   22  N3  UNL     1      24.623   7.092  49.093  1.00  0.00    -0.259 NA
HETATM   23  C10 UNL     1      25.895   6.431  48.932  1.00  0.00     0.122 C 
HETATM   24  C11 UNL     1      25.903   5.133  49.195  1.00  0.00    -0.040 C 
HETATM   25  C12 UNL     1      27.209   4.416  49.039  1.00  0.00     0.047 C 
ENDBRANCH  17  19
ENDBRANCH   5  17
BRANCH   1  26
HETATM   26  C2  UNL     1      26.952  -0.583  52.325  1.00  0.00     0.006 C 
HETATM   27  C1  UNL     1      27.980  -0.388  53.401  1.00  0.00     0.006 C 
ENDBRANCH   1  26
TORSDOF 3
ENDMDL
MODEL 2
REMARK VINA RESULT:      -8.0      1.831      3.845
REMARK  3 active torsions:
REMARK  status: ('A' for Active; 'I' for Inactive)
REMARK    1  A    between atoms: C2_2  and  C3_3 
REMARK    2  A    between atoms: C6_7  and  N2_8 
REMARK    3  A    between atoms: N2_8  and  C7_9 
ROOT
HETATM    1  C3  UNL     1      21.772   0.821  53.243  1.00  0.00     0.045 C 
HETATM    2  C4  UNL     1      21.284   0.238  51.904  1.00  0.00     0.280 C 
HETATM    3  N1  UNL     1      22.136   0.973  50.998  1.00  0.00     0.098 N 
HETATM    4  C5  UNL     1      23.398   1.250  51.718  1.00  0.00     0.299 C 
HETATM    5  C6  UNL     1      23.496   2.733  51.858  1.00  0.00     0.048 C 
HETATM    6  C13 UNL     1      24.616   2.815  52.559  1.00  0.00     0.101 C 
HETATM    7  C14 UNL     1      25.326   1.566  52.928  1.00  0.00     0.247 C 
HETATM    8  O1  UNL     1      26.324   1.207  53.605  1.00  0.00    -0.268 OA
HETATM    9  N4  UNL     1      25.391   0.119  52.808  1.00  0.00    -0.328 N 
HETATM   10  C15 UNL     1      26.371  -0.600  53.528  1.00  0.00     0.008 C 
HETATM   11  C16 UNL     1      27.723  -0.632  53.000  1.00  0.00     0.068 C 
HETATM   12  C17 UNL     1      25.245  -0.777  54.283  1.00  0.00     0.025 C 
HETATM   13  C18 UNL     1      24.006  -0.164  53.839  1.00  0.00     0.008 C 
HETATM   14  C19 UNL     1      23.246   0.548  53.021  1.00  0.00    -0.035 C 
HETATM   15  H9  UNL     1      21.635   1.864  50.801  1.00  0.00     0.317 HD
HETATM   16  H19 UNL     1      24.978  -0.723  52.258  1.00  0.00     0.169 HD
ENDROOT
BRANCH   5  17
HETATM   17  N2  UNL     1      23.016   4.052  51.627  1.00  0.00    -0.379 N 
HETATM   18  H11 UNL     1      22.049   4.233  51.984  1.00  0.00     0.160 HD
BRANCH  17  19
HETATM   19  C7  UNL     1      24.033   4.833  50.929  1.00  0.00     0.137 C 
HETATM   20  C8  UNL     1      23.972   6.258  51.337  1.00  0.00     0.036 C 
HETATM   21  C9  UNL     1      24.880   6.969  50.700  1.00  0.00     0.083 C 
HETATM   22  N3  UNL     1      25.297   6.647  49.538  1.00  0.00    -0.259 NA
HETATM   23  C10 UNL     1      24.521   5.713  48.760  1.00  0.00     0.122 C 
HETATM   24  C11 UNL     1      23.875   4.788  49.454  1.00  0.00    -0.040 C 
HETATM   25  C12 UNL     1      23.059   3.802  48.677  1.00  0.00     0.047 C 
ENDBRANCH  17  19
ENDBRANCH   5  17
BRANCH   1  26
HETATM   26  C2  UNL     1      21.186   0.069  54.378  1.00  0.00     0.006 C 
HETATM   27  C1  UNL     1      20.422  -1.126  53.891  1.00  0.00     0.006 C 
ENDBRANCH   1  26
TORSDOF 3
ENDMDL
MODEL 3
REMARK VINA RESULT:      -7.9      2.321      6.676
REMARK  3 active torsions:
REMARK  status: ('A' for Active; 'I' for Inactive)
REMARK    1  A    between atoms: C2_2  and  C3_3 
REMARK    2  A    between atoms: C6_7  and  N2_8 
REMARK    3  A    between atoms: N2_8  and  C7_9 
ROOT
HETATM    1  C3  UNL     1      22.941   2.529  50.292  1.00  0.00     0.045 C 
HETATM    2  C4  UNL     1      22.437   2.876  51.705  1.00  0.00     0.280 C 
HETATM    3  N1  UNL     1      23.701   2.929  52.403  1.00  0.00     0.098 N 
HETATM    4  C5  UNL     1      24.719   3.370  51.424  1.00  0.00     0.299 C 
HETATM    5  C6  UNL     1      25.682   2.240  51.267  1.00  0.00     0.048 C 
HETATM    6  C13 UNL     1      26.473   2.752  50.338  1.00  0.00     0.101 C 
HETATM    7  C14 UNL     1      26.189   4.113  49.822  1.00  0.00     0.247 C 
HETATM    8  O1  UNL     1      26.620   4.904  48.943  1.00  0.00    -0.268 OA
HETATM    9  N4  UNL     1      25.371   5.310  49.924  1.00  0.00    -0.328 N 
HETATM   10  C15 UNL     1      25.560   6.368  49.008  1.00  0.00     0.008 C 
HETATM   11  C16 UNL     1      26.672   7.274  49.227  1.00  0.00     0.068 C 
HETATM   12  C17 UNL     1      24.453   5.731  48.517  1.00  0.00     0.025 C 
HETATM   13  C18 UNL     1      23.953   4.565  49.221  1.00  0.00     0.008 C 
HETATM   14  C19 UNL     1      23.946   3.657  50.186  1.00  0.00    -0.035 C 
HETATM   15  H9  UNL     1      23.897   1.951  52.706  1.00  0.00     0.317 HD
HETATM   16  H19 UNL     1      24.630   5.801  50.552  1.00  0.00     0.169 HD
ENDROOT
BRANCH   5  17
HETATM   17  N2  UNL     1      26.162   0.942  51.598  1.00  0.00    -0.379 N 
HETATM   18  H11 UNL     1      26.158   0.260  50.805  1.00  0.00     0.160 HD
BRANCH  17  19
HETATM   19  C7  UNL     1      26.548   0.902  53.005  1.00  0.00     0.137 C 
HETATM   20  C8  UNL     1      27.905   0.323  53.162  1.00  0.00     0.036 C 
HETATM   21  C9  UNL     1      28.252   0.274  54.432  1.00  0.00     0.083 C 
HETATM   22  N3  UNL     1      27.389   0.156  55.364  1.00  0.00    -0.259 NA
HETATM   23  C10 UNL     1      26.059  -0.287  55.022  1.00  0.00     0.122 C 
HETATM   24  C11 UNL     1      25.622   0.085  53.828  1.00  0.00    -0.040 C 
HETATM   25  C12 UNL     1      24.244  -0.358  53.442  1.00  0.00     0.047 C 
ENDBRANCH  17  19
ENDBRANCH   5  17
BRANCH   1  26
HETATM   26  C2  UNL     1      21.832   2.617  49.312  1.00  0.00     0.006 C 
HETATM   27  C1  UNL     1      21.910   1.500  48.315  1.00  0.00     0.006 C 
ENDBRANCH   1  26
TORSDOF 3
ENDMDL
MODEL 4
REMARK VINA RESULT:      -7.7      2.122      6.004
REMARK  3 active torsions:
REMARK  status: ('A' for Active; 'I' for Inactive)
REMARK    1  A    between atoms: C2_2  and  C3_3 
REMARK    2  A    between atoms: C6_7  and  N2_8 
REMARK    3  A    between atoms: N2_8  and  C7_9 
ROOT
HETATM    1  C3  UNL     1      26.025   5.263  49.743  1.00  0.00     0.045 C 
HETATM    2  C4  UNL     1      27.064   4.396  49.008  1.00  0.00     0.280 C 
HETATM    3  N1  UNL     1      26.713   3.099  49.539  1.00  0.00     0.098 N 
HETATM    4  C5  UNL     1      25.262   3.127  49.826  1.00  0.00     0.299 C 
HETATM    5  C6  UNL     1      25.113   2.964  51.302  1.00  0.00     0.048 C 
HETATM    6  C13 UNL     1      23.797   3.070  51.404  1.00  0.00     0.101 C 
HETATM    7  C14 UNL     1      22.996   3.282  50.175  1.00  0.00     0.247 C 
HETATM    8  O1  UNL     1      21.799   3.493  49.847  1.00  0.00    -0.268 OA
HETATM    9  N4  UNL     1      22.990   3.383  48.725  1.00  0.00    -0.328 N 
HETATM   10  C15 UNL     1      21.790   3.697  48.050  1.00  0.00     0.008 C 
HETATM   11  C16 UNL     1      20.821   2.636  47.843  1.00  0.00     0.068 C 
HETATM   12  C17 UNL     1      22.454   4.893  48.066  1.00  0.00     0.025 C 
HETATM   13  C18 UNL     1      23.761   4.953  48.696  1.00  0.00     0.008 C 
HETATM   14  C19 UNL     1      24.809   4.456  49.334  1.00  0.00    -0.035 C 
HETATM   15  H9  UNL     1      27.250   3.004  50.426  1.00  0.00     0.317 HD
HETATM   16  H19 UNL     1      23.606   3.219  47.843  1.00  0.00     0.169 HD
ENDROOT
BRANCH   5  17
HETATM   17  N2  UNL     1      25.647   2.760  52.605  1.00  0.00    -0.379 N 
HETATM   18  H11 UNL     1      25.615   3.601  53.227  1.00  0.00     0.160 HD
BRANCH  17  19
HETATM   19  C7  UNL     1      26.116   1.384  52.736  1.00  0.00     0.137 C 
HETATM   20  C8  UNL     1      25.186   0.590  53.578  1.00  0.00     0.036 C 
HETATM   21  C9  UNL     1      25.612  -0.649  53.709  1.00  0.00     0.083 C 
HETATM   22  N3  UNL     1      26.851  -0.946  53.661  1.00  0.00    -0.259 NA
HETATM   23  C10 UNL     1      27.821   0.109  53.825  1.00  0.00     0.122 C 
HETATM   24  C11 UNL     1      27.460   1.295  53.360  1.00  0.00    -0.040 C 
HETATM   25  C12 UNL     1      28.444   2.414  53.514  1.00  0.00     0.047 C 
ENDBRANCH  17  19
ENDBRANCH   5  17
BRANCH   1  26
HETATM   26  C2  UNL     1      26.035   6.645  49.209  1.00  0.00     0.006 C 
HETATM   27  C1  UNL     1      27.121   6.818  48.189  1.00  0.00     0.006 C 
ENDBRANCH   1  26
TORSDOF 3
ENDMDL
MODEL 5
REMARK VINA RESULT:      -7.6      2.245      6.440
REMARK  3 active torsions:
REMARK  status: ('A' for Active; 'I' for Inactive)
REMARK    1  A    between atoms: C2_2  and  C3_3 
REMARK    2  A    between atoms: C6_7  and  N2_8 
REMARK    3  A    between atoms: N2_8  and  C7_9 
ROOT
HETATM    1  C3  UNL     1      23.644   1.440  51.862  1.00  0.00     0.045 C 
HETATM    2  C4  UNL     1      22.993   2.243  53.003  1.00  0.00     0.280 C 
HETATM    3  N1  UNL     1      24.180   2.791  53.617  1.00  0.00     0.098 N 
HETATM    4  C5  UNL     1      25.184   2.960  52.544  1.00  0.00     0.299 C 
HETATM    5  C6  UNL     1      26.319   2.047  52.871  1.00  0.00     0.048 C 
HETATM    6  C13 UNL     1      27.087   2.261  51.813  1.00  0.00     0.101 C 
HETATM    7  C14 UNL     1      26.632   3.223  50.780  1.00  0.00     0.247 C 
HETATM    8  O1  UNL     1      26.998   3.646  49.652  1.00  0.00    -0.268 OA
HETATM    9  N4  UNL     1      25.634   4.198  50.376  1.00  0.00    -0.328 N 
HETATM   10  C15 UNL     1      25.722   4.805  49.103  1.00  0.00     0.008 C 
HETATM   11  C16 UNL     1      26.661   5.897  48.927  1.00  0.00     0.068 C 
HETATM   12  C17 UNL     1      24.765   3.844  48.920  1.00  0.00     0.025 C 
HETATM   13  C18 UNL     1      24.402   3.001  50.044  1.00  0.00     0.008 C 
HETATM   14  C19 UNL     1      24.467   2.580  51.298  1.00  0.00    -0.035 C 
HETATM   15  H9  UNL     1      24.503   2.071  54.298  1.00  0.00     0.317 HD
HETATM   16  H19 UNL     1      24.783   4.769  50.742  1.00  0.00     0.169 HD
ENDROOT
BRANCH   5  17
HETATM   17  N2  UNL     1      26.970   1.101  53.711  1.00  0.00    -0.379 N 
HETATM   18  H11 UNL     1      27.137   1.428  54.690  1.00  0.00     0.160 HD
BRANCH  17  19
HETATM   19  C7  UNL     1      27.242  -0.121  52.959  1.00  0.00     0.137 C 
HETATM   20  C8  UNL     1      26.156  -1.113  53.158  1.00  0.00     0.036 C 
HETATM   21  C9  UNL     1      26.403  -2.222  52.491  1.00  0.00     0.083 C 
HETATM   22  N3  UNL     1      27.593  -2.609  52.243  1.00  0.00    -0.259 NA
HETATM   23  C10 UNL     1      28.679  -2.032  52.998  1.00  0.00     0.122 C 
HETATM   24  C11 UNL     1      28.512  -0.771  53.367  1.00  0.00    -0.040 C 
HETATM   25  C12 UNL     1      29.621  -0.141  54.152  1.00  0.00     0.047 C 
ENDBRANCH  17  19
ENDBRANCH   5  17
BRANCH   1  26
HETATM   26  C2  UNL     1      22.608   0.930  50.932  1.00  0.00     0.006 C 
HETATM   27  C1  UNL     1      21.355   0.570  51.674  1.00  0.00     0.006 C 
ENDBRANCH   1  26
TORSDOF 3
ENDMDL
MODEL 6
REMARK VINA RESULT:      -7.5      2.351      5.137
REMARK  3 active torsions:
REMARK  status: ('A' for Active; 'I' for Inactive)
REMARK    1  A    between atoms: C2_2  and  C3_3 
REMARK    2  A    between atoms: C6_7  and  N2_8 
REMARK    3  A    between atoms: N2_8  and  C7_9 
ROOT
HETATM    1  C3  UNL     1      24.166   3.259  50.657  1.00  0.00     0.045 C 
HETATM    2  C4  UNL     1      24.113   4.624  51.367  1.00  0.00     0.280 C 
HETATM    3  N1  UNL     1      23.493   4.223  52.609  1.00  0.00     0.098 N 
HETATM    4  C5  UNL     1      23.906   2.828  52.869  1.00  0.00     0.299 C 
HETATM    5  C6  UNL     1      22.667   1.997  52.826  1.00  0.00     0.048 C 
HETATM    6  C13 UNL     1      23.198   0.798  53.009  1.00  0.00     0.101 C 
HETATM    7  C14 UNL     1      24.666   0.682  53.184  1.00  0.00     0.247 C 
HETATM    8  O1  UNL     1      25.538  -0.217  53.309  1.00  0.00    -0.268 OA
HETATM    9  N4  UNL     1      25.937   1.373  53.318  1.00  0.00    -0.328 N 
HETATM   10  C15 UNL     1      27.134   0.629  53.399  1.00  0.00     0.008 C 
HETATM   11  C16 UNL     1      27.483   0.026  54.673  1.00  0.00     0.068 C 
HETATM   12  C17 UNL     1      27.119   1.044  52.096  1.00  0.00     0.025 C 
HETATM   13  C18 UNL     1      26.006   1.856  51.638  1.00  0.00     0.008 C 
HETATM   14  C19 UNL     1      24.863   2.511  51.775  1.00  0.00    -0.035 C 
HETATM   15  H9  UNL     1      22.466   4.265  52.437  1.00  0.00     0.317 HD
HETATM   16  H19 UNL     1      26.375   2.357  53.474  1.00  0.00     0.169 HD
ENDROOT
BRANCH   5  17
HETATM   17  N2  UNL     1      21.258   1.846  52.693  1.00  0.00    -0.379 N 
HETATM   18  H11 UNL     1      20.738   1.787  53.599  1.00  0.00     0.160 HD
BRANCH  17  19
HETATM   19  C7  UNL     1      20.897   1.815  51.279  1.00  0.00     0.137 C 
HETATM   20  C8  UNL     1      20.593   3.180  50.783  1.00  0.00     0.036 C 
HETATM   21  C9  UNL     1      20.253   3.155  49.511  1.00  0.00     0.083 C 
HETATM   22  N3  UNL     1      19.695   2.137  48.981  1.00  0.00    -0.259 NA
HETATM   23  C10 UNL     1      19.102   1.147  49.846  1.00  0.00     0.122 C 
HETATM   24  C11 UNL     1      19.703   0.974  51.014  1.00  0.00    -0.040 C 
HETATM   25  C12 UNL     1      19.113  -0.048  51.936  1.00  0.00     0.047 C 
ENDBRANCH  17  19
ENDBRANCH   5  17
BRANCH   1  26
HETATM   26  C2  UNL     1      24.963   3.356  49.411  1.00  0.00     0.006 C 
HETATM   27  C1  UNL     1      25.654   4.684  49.319  1.00  0.00     0.006 C 
ENDBRANCH   1  26
TORSDOF 3
ENDMDL
MODEL 7
REMARK VINA RESULT:      -7.4      2.666      7.685
REMARK  3 active torsions:
REMARK  status: ('A' for Active; 'I' for Inactive)
REMARK    1  A    between atoms: C2_2  and  C3_3 
REMARK    2  A    between atoms: C6_7  and  N2_8 
REMARK    3  A    between atoms: N2_8  and  C7_9 
ROOT
HETATM    1  C3  UNL     1      24.155   6.018  48.548  1.00  0.00     0.045 C 
HETATM    2  C4  UNL     1      23.695   6.507  49.933  1.00  0.00     0.280 C 
HETATM    3  N1  UNL     1      24.625   5.779  50.765  1.00  0.00     0.098 N 
HETATM    4  C5  UNL     1      25.867   5.609  49.980  1.00  0.00     0.299 C 
HETATM    5  C6  UNL     1      26.040   4.142  49.762  1.00  0.00     0.048 C 
HETATM    6  C13 UNL     1      27.131   4.158  49.012  1.00  0.00     0.101 C 
HETATM    7  C14 UNL     1      27.754   5.461  48.678  1.00  0.00     0.247 C 
HETATM    8  O1  UNL     1      28.701   5.908  47.979  1.00  0.00    -0.268 OA
HETATM    9  N4  UNL     1      27.746   6.901  48.868  1.00  0.00    -0.328 N 
HETATM   10  C15 UNL     1      28.653   7.709  48.147  1.00  0.00     0.008 C 
HETATM   11  C16 UNL     1      30.023   7.791  48.619  1.00  0.00     0.068 C 
HETATM   12  C17 UNL     1      27.487   7.859  47.448  1.00  0.00     0.025 C 
HETATM   13  C18 UNL     1      26.304   7.156  47.911  1.00  0.00     0.008 C 
HETATM   14  C19 UNL     1      25.621   6.363  48.722  1.00  0.00    -0.035 C 
HETATM   15  H9  UNL     1      24.182   4.852  50.938  1.00  0.00     0.317 HD
HETATM   16  H19 UNL     1      27.312   7.692  49.477  1.00  0.00     0.169 HD
ENDROOT
BRANCH   5  17
HETATM   17  N2  UNL     1      25.643   2.788  49.945  1.00  0.00    -0.379 N 
HETATM   18  H11 UNL     1      25.413   2.278  49.062  1.00  0.00     0.160 HD
BRANCH  17  19
HETATM   19  C7  UNL     1      25.662   2.456  51.367  1.00  0.00     0.137 C 
HETATM   20  C8  UNL     1      26.661   1.395  51.645  1.00  0.00     0.036 C 
HETATM   21  C9  UNL     1      26.673   1.083  52.925  1.00  0.00     0.083 C 
HETATM   22  N3  UNL     1      25.635   1.201  53.658  1.00  0.00    -0.259 NA
HETATM   23  C10 UNL     1      24.349   1.331  53.019  1.00  0.00     0.122 C 
HETATM   24  C11 UNL     1      24.350   1.966  51.856  1.00  0.00    -0.040 C 
HETATM   25  C12 UNL     1      23.029   2.120  51.166  1.00  0.00     0.047 C 
ENDBRANCH  17  19
ENDBRANCH   5  17
BRANCH   1  26
HETATM   26  C2  UNL     1      23.480   6.789  47.477  1.00  0.00     0.006 C 
HETATM   27  C1  UNL     1      22.610   7.864  48.059  1.00  0.00     0.006 C 
ENDBRANCH   1  26
TORSDOF 3
ENDMDL
MODEL 8
REMARK VINA RESULT:      -7.3      3.448      7.431
REMARK  3 active torsions:
REMARK  status: ('A' for Active; 'I' for Inactive)
REMARK    1  A    between atoms: C2_2  and  C3_3 
REMARK    2  A    between atoms: C6_7  and  N2_8 
REMARK    3  A    between atoms: N2_8  and  C7_9 
ROOT
HETATM    1  C3  UNL     1      24.399   7.400  48.524  1.00  0.00     0.045 C 
HETATM    2  C4  UNL     1      24.281   8.261  49.796  1.00  0.00     0.280 C 
HETATM    3  N1  UNL     1      24.746   7.306  50.775  1.00  0.00     0.098 N 
HETATM    4  C5  UNL     1      25.717   6.423  50.092  1.00  0.00     0.299 C 
HETATM    5  C6  UNL     1      25.130   5.050  50.102  1.00  0.00     0.048 C 
HETATM    6  C13 UNL     1      26.063   4.407  49.418  1.00  0.00     0.101 C 
HETATM    7  C14 UNL     1      27.244   5.159  48.931  1.00  0.00     0.247 C 
HETATM    8  O1  UNL     1      28.269   4.964  48.226  1.00  0.00    -0.268 OA
HETATM    9  N4  UNL     1      27.960   6.424  48.905  1.00  0.00    -0.328 N 
HETATM   10  C15 UNL     1      29.129   6.552  48.123  1.00  0.00     0.008 C 
HETATM   11  C16 UNL     1      30.370   6.016  48.652  1.00  0.00     0.068 C 
HETATM   12  C17 UNL     1      28.174   7.150  47.348  1.00  0.00     0.025 C 
HETATM   13  C18 UNL     1      26.811   7.208  47.845  1.00  0.00     0.008 C 
HETATM   14  C19 UNL     1      25.845   6.995  48.725  1.00  0.00    -0.035 C 
HETATM   15  H9  UNL     1      23.905   6.760  51.058  1.00  0.00     0.317 HD
HETATM   16  H19 UNL     1      27.994   7.408  49.367  1.00  0.00     0.169 HD
ENDROOT
BRANCH   5  17
HETATM   17  N2  UNL     1      24.116   4.119  50.461  1.00  0.00    -0.379 N 
HETATM   18  H11 UNL     1      23.935   4.046  51.489  1.00  0.00     0.160 HD
BRANCH  17  19
HETATM   19  C7  UNL     1      23.577   3.489  49.260  1.00  0.00     0.137 C 
HETATM   20  C8  UNL     1      22.676   4.421  48.537  1.00  0.00     0.036 C 
HETATM   21  C9  UNL     1      22.177   3.852  47.459  1.00  0.00     0.083 C 
HETATM   22  N3  UNL     1      21.998   2.592  47.382  1.00  0.00    -0.259 NA
HETATM   23  C10 UNL     1      21.998   1.819  48.600  1.00  0.00     0.122 C 
HETATM   24  C11 UNL     1      22.796   2.264  49.559  1.00  0.00    -0.040 C 
HETATM   25  C12 UNL     1      22.821   1.484  50.838  1.00  0.00     0.047 C 
ENDBRANCH  17  19
ENDBRANCH   5  17
BRANCH   1  26
HETATM   26  C2  UNL     1      24.170   8.228  47.317  1.00  0.00     0.006 C 
HETATM   27  C1  UNL     1      23.519   7.422  46.231  1.00  0.00     0.006 C 
ENDBRANCH   1  26
TORSDOF 3
ENDMDL
MODEL 9
REMARK VINA RESULT:      -7.3      2.213      6.061
REMARK  3 active torsions:
REMARK  status: ('A' for Active; 'I' for Inactive)
REMARK    1  A    between atoms: C2_2  and  C3_3 
REMARK    2  A    between atoms: C6_7  and  N2_8 
REMARK    3  A    between atoms: N2_8  and  C7_9 
ROOT
HETATM    1  C3  UNL     1      22.194   1.698  51.122  1.00  0.00     0.045 C 
HETATM    2  C4  UNL     1      21.201   2.308  52.128  1.00  0.00     0.280 C 
HETATM    3  N1  UNL     1      22.036   3.346  52.688  1.00  0.00     0.098 N 
HETATM    4  C5  UNL     1      22.974   3.768  51.626  1.00  0.00     0.299 C 
HETATM    5  C6  UNL     1      24.346   3.418  52.101  1.00  0.00     0.048 C 
HETATM    6  C13 UNL     1      25.048   3.791  51.042  1.00  0.00     0.101 C 
HETATM    7  C14 UNL     1      24.337   4.369  49.876  1.00  0.00     0.247 C 
HETATM    8  O1  UNL     1      24.594   4.767  48.710  1.00  0.00    -0.268 OA
HETATM    9  N4  UNL     1      23.073   4.821  49.319  1.00  0.00    -0.328 N 
HETATM   10  C15 UNL     1      23.015   5.260  47.978  1.00  0.00     0.008 C 
HETATM   11  C16 UNL     1      23.472   6.604  47.676  1.00  0.00     0.068 C 
HETATM   12  C17 UNL     1      22.519   3.987  47.905  1.00  0.00     0.025 C 
HETATM   13  C18 UNL     1      22.426   3.207  49.126  1.00  0.00     0.008 C 
HETATM   14  C19 UNL     1      22.555   2.995  50.427  1.00  0.00    -0.035 C 
HETATM   15  H9  UNL     1      22.559   2.896  53.468  1.00  0.00     0.317 HD
HETATM   16  H19 UNL     1      22.043   5.051  49.585  1.00  0.00     0.169 HD
ENDROOT
BRANCH   5  17
HETATM   17  N2  UNL     1      25.246   2.908  53.077  1.00  0.00    -0.379 N 
HETATM   18  H11 UNL     1      25.462   3.568  53.860  1.00  0.00     0.160 HD
BRANCH  17  19
HETATM   19  C7  UNL     1      25.646   1.551  52.718  1.00  0.00     0.137 C 
HETATM   20  C8  UNL     1      24.832   0.551  53.454  1.00  0.00     0.036 C 
HETATM   21  C9  UNL     1      25.198  -0.675  53.142  1.00  0.00     0.083 C 
HETATM   22  N3  UNL     1      26.390  -0.953  52.781  1.00  0.00    -0.259 NA
HETATM   23  C10 UNL     1      27.435   0.001  53.057  1.00  0.00     0.122 C 
HETATM   24  C11 UNL     1      27.070   1.274  53.028  1.00  0.00    -0.040 C 
HETATM   25  C12 UNL     1      28.133   2.291  53.310  1.00  0.00     0.047 C 
ENDBRANCH  17  19
ENDBRANCH   5  17
BRANCH   1  26
HETATM   26  C2  UNL     1      21.508   0.718  50.248  1.00  0.00     0.006 C 
HETATM   27  C1  UNL     1      20.060   0.592  50.619  1.00  0.00     0.006 C 
ENDBRANCH   1  26
TORSDOF 3
ENDMDL
