MODEL 1
REMARK VINA RESULT:      -7.5      0.000      0.000
REMARK  5 active torsions:
REMARK  status: ('A' for Active; 'I' for Inactive)
REMARK    1  A    between atoms: C2_2  and  C3_3 
REMARK    2  A    between atoms: C4_4  and  N1_5 
REMARK    3  A    between atoms: N1_5  and  C5_6 
REMARK    4  A    between atoms: C9_12  and  N3_13 
REMARK    5  A    between atoms: N3_13  and  C10_14 
ROOT
HETATM    1  C5  UNL     1      26.445   1.825  53.774  1.00  0.00     0.060 C 
HETATM    2  C6  UNL     1      27.694   2.160  53.502  1.00  0.00     0.045 C 
HETATM    3  C7  UNL     1      28.758   1.206  53.902  1.00  0.00     0.235 C 
HETATM    4  F1  UNL     1      29.818   1.839  54.515  1.00  0.00    -0.239 F 
HETATM    5  C8  UNL     1      28.229   0.146  54.769  1.00  0.00     0.127 C 
HETATM    6  N2  UNL     1      27.029  -0.161  55.036  1.00  0.00    -0.271 NA
HETATM    7  C9  UNL     1      25.974   0.590  54.443  1.00  0.00     0.256 C 
ENDROOT
BRANCH   7   8
HETATM    8  N3  UNL     1      25.185  -0.238  53.562  1.00  0.00    -0.362 N 
HETATM    9  H9  UNL     1      25.705  -0.746  52.787  1.00  0.00     0.162 HD
BRANCH   8  10
HETATM   10  C10 UNL     1      23.778  -0.430  53.641  1.00  0.00     0.031 A 
HETATM   11  C11 UNL     1      23.187  -1.031  54.751  1.00  0.00     0.029 A 
HETATM   12  C12 UNL     1      21.823  -1.208  54.808  1.00  0.00     0.004 A 
HETATM   13  C13 UNL     1      21.034  -0.791  53.766  1.00  0.00     0.024 A 
HETATM   14  C14 UNL     1      21.572  -0.191  52.647  1.00  0.00     0.036 A 
HETATM   15 CL1  UNL     1      20.539   0.332  51.332  1.00  0.00    -0.084 Cl
HETATM   16  C15 UNL     1      22.956  -0.025  52.617  1.00  0.00     0.053 A 
ENDBRANCH   8  10
ENDBRANCH   7   8
BRANCH   1  17
HETATM   17  N1  UNL     1      25.354   2.684  53.425  1.00  0.00    -0.315 N 
HETATM   18  H4  UNL     1      24.725   3.172  54.104  1.00  0.00     0.176 HD
BRANCH  17  19
HETATM   19  C4  UNL     1      25.074   2.914  52.070  1.00  0.00     0.015 C 
HETATM   20  C3  UNL     1      24.813   3.101  50.886  1.00  0.00    -0.056 C 
BRANCH  20  21
HETATM   21  C2  UNL     1      24.515   3.298  49.499  1.00  0.00     0.056 C 
HETATM   22  C1  UNL     1      23.313   2.946  49.058  1.00  0.00     0.021 C 
ENDBRANCH  20  21
ENDBRANCH  17  19
ENDBRANCH   1  17
TORSDOF 5
ENDMDL
MODEL 2
REMARK VINA RESULT:      -7.2      1.350      1.502
REMARK  5 active torsions:
REMARK  status: ('A' for Active; 'I' for Inactive)
REMARK    1  A    between atoms: C2_2  and  C3_3 
REMARK    2  A    between atoms: C4_4  and  N1_5 
REMARK    3  A    between atoms: N1_5  and  C5_6 
REMARK    4  A    between atoms: C9_12  and  N3_13 
REMARK    5  A    between atoms: N3_13  and  C10_14 
ROOT
HETATM    1  C5  UNL     1      26.409   1.147  52.674  1.00  0.00     0.060 C 
HETATM    2  C6  UNL     1      27.725   1.123  52.550  1.00  0.00     0.045 C 
HETATM    3  C7  UNL     1      28.501   0.496  53.648  1.00  0.00     0.235 C 
HETATM    4  F1  UNL     1      29.591   1.258  54.012  1.00  0.00    -0.239 F 
HETATM    5  C8  UNL     1      27.655   0.228  54.817  1.00  0.00     0.127 C 
HETATM    6  N2  UNL     1      26.394   0.267  54.933  1.00  0.00    -0.271 NA
HETATM    7  C9  UNL     1      25.605   0.615  53.799  1.00  0.00     0.256 C 
ENDROOT
BRANCH   7   8
HETATM    8  N3  UNL     1      24.769  -0.489  53.395  1.00  0.00    -0.362 N 
HETATM    9  H9  UNL     1      25.258  -1.331  52.969  1.00  0.00     0.162 HD
BRANCH   8  10
HETATM   10  C10 UNL     1      23.353  -0.547  53.516  1.00  0.00     0.031 A 
HETATM   11  C11 UNL     1      22.741  -1.087  54.646  1.00  0.00     0.029 A 
HETATM   12  C12 UNL     1      21.369  -1.133  54.744  1.00  0.00     0.004 A 
HETATM   13  C13 UNL     1      20.592  -0.646  53.725  1.00  0.00     0.024 A 
HETATM   14  C14 UNL     1      21.151  -0.101  52.587  1.00  0.00     0.036 A 
HETATM   15 CL1  UNL     1      20.133   0.516  51.301  1.00  0.00    -0.084 Cl
HETATM   16  C15 UNL     1      22.543  -0.067  52.516  1.00  0.00     0.053 A 
ENDBRANCH   8  10
ENDBRANCH   7   8
BRANCH   1  17
HETATM   17  N1  UNL     1      25.579   1.731  51.664  1.00  0.00    -0.315 N 
HETATM   18  H4  UNL     1      24.562   1.534  51.527  1.00  0.00     0.176 HD
BRANCH  17  19
HETATM   19  C4  UNL     1      26.143   2.649  50.766  1.00  0.00     0.015 C 
HETATM   20  C3  UNL     1      26.617   3.454  49.971  1.00  0.00    -0.056 C 
BRANCH  20  21
HETATM   21  C2  UNL     1      27.168   4.378  49.024  1.00  0.00     0.056 C 
HETATM   22  C1  UNL     1      26.564   5.550  48.864  1.00  0.00     0.021 C 
ENDBRANCH  20  21
ENDBRANCH  17  19
ENDBRANCH   1  17
TORSDOF 5
ENDMDL
MODEL 3
REMARK VINA RESULT:      -7.1      3.998      5.796
REMARK  5 active torsions:
REMARK  status: ('A' for Active; 'I' for Inactive)
REMARK    1  A    between atoms: C2_2  and  C3_3 
REMARK    2  A    between atoms: C4_4  and  N1_5 
REMARK    3  A    between atoms: N1_5  and  C5_6 
REMARK    4  A    between atoms: C9_12  and  N3_13 
REMARK    5  A    between atoms: N3_13  and  C10_14 
ROOT
HETATM    1  C5  UNL     1      25.137   3.855  50.581  1.00  0.00     0.060 C 
HETATM    2  C6  UNL     1      24.353   4.918  50.649  1.00  0.00     0.045 C 
HETATM    3  C7  UNL     1      23.633   5.153  51.925  1.00  0.00     0.235 C 
HETATM    4  F1  UNL     1      22.309   5.479  51.719  1.00  0.00    -0.239 F 
HETATM    5  C8  UNL     1      23.737   3.995  52.821  1.00  0.00     0.127 C 
HETATM    6  N2  UNL     1      24.481   2.972  52.742  1.00  0.00    -0.271 NA
HETATM    7  C9  UNL     1      25.383   2.854  51.645  1.00  0.00     0.256 C 
ENDROOT
BRANCH   7   8
HETATM    8  N3  UNL     1      26.752   2.872  52.100  1.00  0.00    -0.362 N 
HETATM    9  H9  UNL     1      27.284   3.785  51.988  1.00  0.00     0.162 HD
BRANCH   8  10
HETATM   10  C10 UNL     1      27.448   1.776  52.683  1.00  0.00     0.031 A 
HETATM   11  C11 UNL     1      28.532   1.974  53.537  1.00  0.00     0.029 A 
HETATM   12  C12 UNL     1      29.191   0.901  54.091  1.00  0.00     0.004 A 
HETATM   13  C13 UNL     1      28.783  -0.377  53.804  1.00  0.00     0.024 A 
HETATM   14  C14 UNL     1      27.716  -0.624  52.965  1.00  0.00     0.036 A 
HETATM   15 CL1  UNL     1      27.218  -2.267  52.617  1.00  0.00    -0.084 Cl
HETATM   16  C15 UNL     1      27.067   0.483  52.419  1.00  0.00     0.053 A 
ENDBRANCH   8  10
ENDBRANCH   7   8
BRANCH   1  17
HETATM   17  N1  UNL     1      25.870   3.549  49.390  1.00  0.00    -0.315 N 
HETATM   18  H4  UNL     1      25.720   2.710  48.784  1.00  0.00     0.176 HD
BRANCH  17  19
HETATM   19  C4  UNL     1      26.882   4.424  48.970  1.00  0.00     0.015 C 
HETATM   20  C3  UNL     1      27.752   5.204  48.596  1.00  0.00    -0.056 C 
BRANCH  20  21
HETATM   21  C2  UNL     1      28.761   6.113  48.138  1.00  0.00     0.056 C 
HETATM   22  C1  UNL     1      30.000   5.658  47.998  1.00  0.00     0.021 C 
ENDBRANCH  20  21
ENDBRANCH  17  19
ENDBRANCH   1  17
TORSDOF 5
ENDMDL
MODEL 4
REMARK VINA RESULT:      -7.0      3.330      6.540
REMARK  5 active torsions:
REMARK  status: ('A' for Active; 'I' for Inactive)
REMARK    1  A    between atoms: C2_2  and  C3_3 
REMARK    2  A    between atoms: C4_4  and  N1_5 
REMARK    3  A    between atoms: N1_5  and  C5_6 
REMARK    4  A    between atoms: C9_12  and  N3_13 
REMARK    5  A    between atoms: N3_13  and  C10_14 
ROOT
HETATM    1  C5  UNL     1      25.290   1.701  53.038  1.00  0.00     0.060 C 
HETATM    2  C6  UNL     1      24.931   0.571  53.624  1.00  0.00     0.045 C 
HETATM    3  C7  UNL     1      23.613   0.000  53.253  1.00  0.00     0.235 C 
HETATM    4  F1  UNL     1      22.898  -0.412  54.357  1.00  0.00    -0.239 F 
HETATM    5  C8  UNL     1      22.821   0.950  52.461  1.00  0.00     0.127 C 
HETATM    6  N2  UNL     1      23.169   2.039  51.913  1.00  0.00    -0.271 NA
HETATM    7  C9  UNL     1      24.519   2.477  52.039  1.00  0.00     0.256 C 
ENDROOT
BRANCH   7   8
HETATM    8  N3  UNL     1      25.171   2.508  50.753  1.00  0.00    -0.362 N 
HETATM    9  H9  UNL     1      25.434   1.571  50.324  1.00  0.00     0.162 HD
BRANCH   8  10
HETATM   10  C10 UNL     1      25.494   3.679  50.013  1.00  0.00     0.031 A 
HETATM   11  C11 UNL     1      24.533   4.649  49.731  1.00  0.00     0.029 A 
HETATM   12  C12 UNL     1      24.866   5.775  49.013  1.00  0.00     0.004 A 
HETATM   13  C13 UNL     1      26.151   5.950  48.568  1.00  0.00     0.024 A 
HETATM   14  C14 UNL     1      27.137   5.018  48.822  1.00  0.00     0.036 A 
HETATM   15 CL1  UNL     1      28.771   5.269  48.242  1.00  0.00    -0.084 Cl
HETATM   16  C15 UNL     1      26.771   3.888  49.552  1.00  0.00     0.053 A 
ENDBRANCH   8  10
ENDBRANCH   7   8
BRANCH   1  17
HETATM   17  N1  UNL     1      26.544   2.324  53.334  1.00  0.00    -0.315 N 
HETATM   18  H4  UNL     1      26.691   3.347  53.492  1.00  0.00     0.176 HD
BRANCH  17  19
HETATM   19  C4  UNL     1      27.695   1.528  53.429  1.00  0.00     0.015 C 
HETATM   20  C3  UNL     1      28.696   0.821  53.493  1.00  0.00    -0.056 C 
BRANCH  20  21
HETATM   21  C2  UNL     1      29.852  -0.022  53.572  1.00  0.00     0.056 C 
HETATM   22  C1  UNL     1      29.674  -1.338  53.537  1.00  0.00     0.021 C 
ENDBRANCH  20  21
ENDBRANCH  17  19
ENDBRANCH   1  17
TORSDOF 5
ENDMDL
MODEL 5
REMARK VINA RESULT:      -6.8      2.218      4.437
REMARK  5 active torsions:
REMARK  status: ('A' for Active; 'I' for Inactive)
REMARK    1  A    between atoms: C2_2  and  C3_3 
REMARK    2  A    between atoms: C4_4  and  N1_5 
REMARK    3  A    between atoms: N1_5  and  C5_6 
REMARK    4  A    between atoms: C9_12  and  N3_13 
REMARK    5  A    between atoms: N3_13  and  C10_14 
ROOT
HETATM    1  C5  UNL     1      25.350   1.466  51.646  1.00  0.00     0.060 C 
HETATM    2  C6  UNL     1      26.219   2.394  51.282  1.00  0.00     0.045 C 
HETATM    3  C7  UNL     1      25.682   3.601  50.606  1.00  0.00     0.235 C 
HETATM    4  F1  UNL     1      26.424   3.947  49.497  1.00  0.00    -0.239 F 
HETATM    5  C8  UNL     1      24.271   3.427  50.239  1.00  0.00     0.127 C 
HETATM    6  N2  UNL     1      23.448   2.527  50.581  1.00  0.00    -0.271 NA
HETATM    7  C9  UNL     1      23.882   1.489  51.456  1.00  0.00     0.256 C 
ENDROOT
BRANCH   7   8
HETATM    8  N3  UNL     1      23.172   1.543  52.711  1.00  0.00    -0.362 N 
HETATM    9  H9  UNL     1      23.276   2.432  53.283  1.00  0.00     0.162 HD
BRANCH   8  10
HETATM   10  C10 UNL     1      22.350   0.513  53.246  1.00  0.00     0.031 A 
HETATM   11  C11 UNL     1      22.852  -0.426  54.146  1.00  0.00     0.029 A 
HETATM   12  C12 UNL     1      22.039  -1.415  54.652  1.00  0.00     0.004 A 
HETATM   13  C13 UNL     1      20.724  -1.482  54.271  1.00  0.00     0.024 A 
HETATM   14  C14 UNL     1      20.180  -0.576  53.384  1.00  0.00     0.036 A 
HETATM   15 CL1  UNL     1      18.495  -0.686  52.918  1.00  0.00    -0.084 Cl
HETATM   16  C15 UNL     1      21.027   0.415  52.888  1.00  0.00     0.053 A 
ENDBRANCH   8  10
ENDBRANCH   7   8
BRANCH   1  17
HETATM   17  N1  UNL     1      25.778   0.268  52.303  1.00  0.00    -0.315 N 
HETATM   18  H4  UNL     1      25.192  -0.586  52.449  1.00  0.00     0.176 HD
BRANCH  17  19
HETATM   19  C4  UNL     1      27.085   0.196  52.807  1.00  0.00     0.015 C 
HETATM   20  C3  UNL     1      28.233   0.120  53.231  1.00  0.00    -0.056 C 
BRANCH  20  21
HETATM   21  C2  UNL     1      29.571   0.009  53.732  1.00  0.00     0.056 C 
HETATM   22  C1  UNL     1      30.131  -1.194  53.769  1.00  0.00     0.021 C 
ENDBRANCH  20  21
ENDBRANCH  17  19
ENDBRANCH   1  17
TORSDOF 5
ENDMDL
MODEL 6
REMARK VINA RESULT:      -6.6      7.690      9.560
REMARK  5 active torsions:
REMARK  status: ('A' for Active; 'I' for Inactive)
REMARK    1  A    between atoms: C2_2  and  C3_3 
REMARK    2  A    between atoms: C4_4  and  N1_5 
REMARK    3  A    between atoms: N1_5  and  C5_6 
REMARK    4  A    between atoms: C9_12  and  N3_13 
REMARK    5  A    between atoms: N3_13  and  C10_14 
ROOT
HETATM    1  C5  UNL     1      31.928   6.945  49.066  1.00  0.00     0.060 C 
HETATM    2  C6  UNL     1      33.195   7.174  48.764  1.00  0.00     0.045 C 
HETATM    3  C7  UNL     1      33.920   6.114  48.022  1.00  0.00     0.235 C 
HETATM    4  F1  UNL     1      35.171   5.874  48.550  1.00  0.00    -0.239 F 
HETATM    5  C8  UNL     1      33.144   4.869  47.969  1.00  0.00     0.127 C 
HETATM    6  N2  UNL     1      31.932   4.654  48.273  1.00  0.00    -0.271 NA
HETATM    7  C9  UNL     1      31.135   5.736  48.746  1.00  0.00     0.256 C 
ENDROOT
BRANCH   7   8
HETATM    8  N3  UNL     1      30.058   6.020  47.829  1.00  0.00    -0.362 N 
HETATM    9  H9  UNL     1      30.328   6.262  46.830  1.00  0.00     0.162 HD
BRANCH   8  10
HETATM   10  C10 UNL     1      28.671   6.004  48.145  1.00  0.00     0.031 A 
HETATM   11  C11 UNL     1      27.875   7.137  47.983  1.00  0.00     0.029 A 
HETATM   12  C12 UNL     1      26.535   7.101  48.295  1.00  0.00     0.004 A 
HETATM   13  C13 UNL     1      25.973   5.944  48.770  1.00  0.00     0.024 A 
HETATM   14  C14 UNL     1      26.719   4.797  48.948  1.00  0.00     0.036 A 
HETATM   15 CL1  UNL     1      25.972   3.333  49.555  1.00  0.00    -0.084 Cl
HETATM   16  C15 UNL     1      28.073   4.863  48.623  1.00  0.00     0.053 A 
ENDBRANCH   8  10
ENDBRANCH   7   8
BRANCH   1  17
HETATM   17  N1  UNL     1      31.150   7.911  49.781  1.00  0.00    -0.315 N 
HETATM   18  H4  UNL     1      30.643   7.737  50.679  1.00  0.00     0.176 HD
BRANCH  17  19
HETATM   19  C4  UNL     1      31.035   9.210  49.265  1.00  0.00     0.015 C 
HETATM   20  C3  UNL     1      30.954  10.352  48.823  1.00  0.00    -0.056 C 
BRANCH  20  21
HETATM   21  C2  UNL     1      30.857  11.693  48.328  1.00  0.00     0.056 C 
HETATM   22  C1  UNL     1      30.374  12.629  49.137  1.00  0.00     0.021 C 
ENDBRANCH  20  21
ENDBRANCH  17  19
ENDBRANCH   1  17
TORSDOF 5
ENDMDL
MODEL 7
REMARK VINA RESULT:      -6.5      4.017      5.699
REMARK  5 active torsions:
REMARK  status: ('A' for Active; 'I' for Inactive)
REMARK    1  A    between atoms: C2_2  and  C3_3 
REMARK    2  A    between atoms: C4_4  and  N1_5 
REMARK    3  A    between atoms: N1_5  and  C5_6 
REMARK    4  A    between atoms: C9_12  and  N3_13 
REMARK    5  A    between atoms: N3_13  and  C10_14 
ROOT
HETATM    1  C5  UNL     1      25.666   4.782  50.102  1.00  0.00     0.060 C 
HETATM    2  C6  UNL     1      25.450   6.084  50.021  1.00  0.00     0.045 C 
HETATM    3  C7  UNL     1      24.295   6.631  50.776  1.00  0.00     0.235 C 
HETATM    4  F1  UNL     1      23.553   7.513  50.020  1.00  0.00    -0.239 F 
HETATM    5  C8  UNL     1      23.437   5.558  51.294  1.00  0.00     0.127 C 
HETATM    6  N2  UNL     1      23.646   4.310  51.356  1.00  0.00    -0.271 NA
HETATM    7  C9  UNL     1      24.879   3.789  50.869  1.00  0.00     0.256 C 
ENDROOT
BRANCH   7   8
HETATM    8  N3  UNL     1      25.646   3.197  51.938  1.00  0.00    -0.362 N 
HETATM    9  H9  UNL     1      26.239   3.855  52.525  1.00  0.00     0.162 HD
BRANCH   8  10
HETATM   10  C10 UNL     1      25.676   1.815  52.273  1.00  0.00     0.031 A 
HETATM   11  C11 UNL     1      26.735   0.995  51.885  1.00  0.00     0.029 A 
HETATM   12  C12 UNL     1      26.744  -0.340  52.220  1.00  0.00     0.004 A 
HETATM   13  C13 UNL     1      25.707  -0.874  52.940  1.00  0.00     0.024 A 
HETATM   14  C14 UNL     1      24.637  -0.103  53.347  1.00  0.00     0.036 A 
HETATM   15 CL1  UNL     1      23.327  -0.813  54.267  1.00  0.00    -0.084 Cl
HETATM   16  C15 UNL     1      24.654   1.246  52.994  1.00  0.00     0.053 A 
ENDBRANCH   8  10
ENDBRANCH   7   8
BRANCH   1  17
HETATM   17  N1  UNL     1      26.757   4.168  49.407  1.00  0.00    -0.315 N 
HETATM   18  H4  UNL     1      26.912   3.138  49.313  1.00  0.00     0.176 HD
BRANCH  17  19
HETATM   19  C4  UNL     1      27.717   4.982  48.789  1.00  0.00     0.015 C 
HETATM   20  C3  UNL     1      28.567   5.676  48.242  1.00  0.00    -0.056 C 
BRANCH  20  21
HETATM   21  C2  UNL     1      29.576   6.481  47.618  1.00  0.00     0.056 C 
HETATM   22  C1  UNL     1      29.580   7.786  47.863  1.00  0.00     0.021 C 
ENDBRANCH  20  21
ENDBRANCH  17  19
ENDBRANCH   1  17
TORSDOF 5
ENDMDL
MODEL 8
REMARK VINA RESULT:      -6.4      3.301      5.517
REMARK  5 active torsions:
REMARK  status: ('A' for Active; 'I' for Inactive)
REMARK    1  A    between atoms: C2_2  and  C3_3 
REMARK    2  A    between atoms: C4_4  and  N1_5 
REMARK    3  A    between atoms: N1_5  and  C5_6 
REMARK    4  A    between atoms: C9_12  and  N3_13 
REMARK    5  A    between atoms: N3_13  and  C10_14 
ROOT
HETATM    1  C5  UNL     1      23.262   1.269  52.555  1.00  0.00     0.060 C 
HETATM    2  C6  UNL     1      22.015   1.207  52.989  1.00  0.00     0.045 C 
HETATM    3  C7  UNL     1      21.697   0.168  54.000  1.00  0.00     0.235 C 
HETATM    4  F1  UNL     1      20.528  -0.502  53.703  1.00  0.00    -0.239 F 
HETATM    5  C8  UNL     1      22.803  -0.785  54.156  1.00  0.00     0.127 C 
HETATM    6  N2  UNL     1      23.993  -0.725  53.724  1.00  0.00    -0.271 NA
HETATM    7  C9  UNL     1      24.397   0.410  52.964  1.00  0.00     0.256 C 
ENDROOT
BRANCH   7   8
HETATM    8  N3  UNL     1      25.421   1.154  53.655  1.00  0.00    -0.362 N 
HETATM    9  H9  UNL     1      25.103   1.991  54.227  1.00  0.00     0.162 HD
BRANCH   8  10
HETATM   10  C10 UNL     1      26.814   0.866  53.636  1.00  0.00     0.031 A 
HETATM   11  C11 UNL     1      27.767   1.872  53.794  1.00  0.00     0.029 A 
HETATM   12  C12 UNL     1      29.110   1.572  53.773  1.00  0.00     0.004 A 
HETATM   13  C13 UNL     1      29.520   0.275  53.596  1.00  0.00     0.024 A 
HETATM   14  C14 UNL     1      28.616  -0.754  53.436  1.00  0.00     0.036 A 
HETATM   15 CL1  UNL     1      29.170  -2.401  53.213  1.00  0.00    -0.084 Cl
HETATM   16  C15 UNL     1      27.262  -0.420  53.462  1.00  0.00     0.053 A 
ENDBRANCH   8  10
ENDBRANCH   7   8
BRANCH   1  17
HETATM   17  N1  UNL     1      23.660   2.239  51.581  1.00  0.00    -0.315 N 
HETATM   18  H4  UNL     1      24.347   3.012  51.740  1.00  0.00     0.176 HD
BRANCH  17  19
HETATM   19  C4  UNL     1      23.105   2.181  50.294  1.00  0.00     0.015 C 
HETATM   20  C3  UNL     1      22.599   2.129  49.178  1.00  0.00    -0.056 C 
BRANCH  20  21
HETATM   21  C2  UNL     1      22.002   2.047  47.878  1.00  0.00     0.056 C 
HETATM   22  C1  UNL     1      21.508   3.157  47.341  1.00  0.00     0.021 C 
ENDBRANCH  20  21
ENDBRANCH  17  19
ENDBRANCH   1  17
TORSDOF 5
ENDMDL
MODEL 9
REMARK VINA RESULT:      -6.3      3.345      5.958
REMARK  5 active torsions:
REMARK  status: ('A' for Active; 'I' for Inactive)
REMARK    1  A    between atoms: C2_2  and  C3_3 
REMARK    2  A    between atoms: C4_4  and  N1_5 
REMARK    3  A    between atoms: N1_5  and  C5_6 
REMARK    4  A    between atoms: C9_12  and  N3_13 
REMARK    5  A    between atoms: N3_13  and  C10_14 
ROOT
HETATM    1  C5  UNL     1      22.623   3.135  51.153  1.00  0.00     0.060 C 
HETATM    2  C6  UNL     1      22.485   2.511  49.996  1.00  0.00     0.045 C 
HETATM    3  C7  UNL     1      23.373   2.934  48.884  1.00  0.00     0.235 C 
HETATM    4  F1  UNL     1      22.683   3.086  47.700  1.00  0.00    -0.239 F 
HETATM    5  C8  UNL     1      24.094   4.169  49.214  1.00  0.00     0.127 C 
HETATM    6  N2  UNL     1      24.211   4.769  50.324  1.00  0.00    -0.271 NA
HETATM    7  C9  UNL     1      23.573   4.225  51.476  1.00  0.00     0.256 C 
ENDROOT
BRANCH   7   8
HETATM    8  N3  UNL     1      24.546   3.822  52.461  1.00  0.00    -0.362 N 
HETATM    9  H9  UNL     1      24.759   4.515  53.238  1.00  0.00     0.162 HD
BRANCH   8  10
HETATM   10  C10 UNL     1      25.244   2.583  52.482  1.00  0.00     0.031 A 
HETATM   11  C11 UNL     1      26.149   2.240  51.479  1.00  0.00     0.029 A 
HETATM   12  C12 UNL     1      26.815   1.036  51.518  1.00  0.00     0.004 A 
HETATM   13  C13 UNL     1      26.589   0.162  52.551  1.00  0.00     0.024 A 
HETATM   14  C14 UNL     1      25.704   0.456  53.567  1.00  0.00     0.036 A 
HETATM   15 CL1  UNL     1      25.438  -0.680  54.874  1.00  0.00    -0.084 Cl
HETATM   16  C15 UNL     1      25.045   1.683  53.501  1.00  0.00     0.053 A 
ENDBRANCH   8  10
ENDBRANCH   7   8
BRANCH   1  17
HETATM   17  N1  UNL     1      21.809   2.794  52.281  1.00  0.00    -0.315 N 
HETATM   18  H4  UNL     1      21.227   3.464  52.833  1.00  0.00     0.176 HD
BRANCH  17  19
HETATM   19  C4  UNL     1      21.765   1.459  52.710  1.00  0.00     0.015 C 
HETATM   20  C3  UNL     1      21.747   0.291  53.083  1.00  0.00    -0.056 C 
BRANCH  20  21
HETATM   21  C2  UNL     1      21.734  -1.080  53.499  1.00  0.00     0.056 C 
HETATM   22  C1  UNL     1      21.817  -1.345  54.797  1.00  0.00     0.021 C 
ENDBRANCH  20  21
ENDBRANCH  17  19
ENDBRANCH   1  17
TORSDOF 5
ENDMDL
