MODEL 1
REMARK VINA RESULT:      -7.8      0.000      0.000
REMARK  5 active torsions:
REMARK  status: ('A' for Active; 'I' for Inactive)
REMARK    1  A    between atoms: C2_2  and  C3_3 
REMARK    2  A    between atoms: C7_7  and  N1_8 
REMARK    3  A    between atoms: N1_8  and  P1_9 
REMARK    4  A    between atoms: P1_9  and  P2_10 
REMARK    5  A    between atoms: P2_10  and  C8_11 
ROOT
HETATM    1  P2  UNL     1      26.114   0.035  52.335  1.00  0.00    -0.018 P 
HETATM    2  H11 UNL     1      27.107  -0.973  51.991  1.00  0.00     0.071 HD
ENDROOT
BRANCH   1   3
HETATM    3  P1  UNL     1      27.074   1.978  52.731  1.00  0.00     0.003 P 
HETATM    4  H10 UNL     1      28.517   1.762  52.710  1.00  0.00     0.085 HD
BRANCH   3   5
HETATM    5  N1  UNL     1      26.679   3.148  51.404  1.00  0.00    -0.363 N 
HETATM    6  H9  UNL     1      27.371   3.734  50.873  1.00  0.00     0.164 HD
BRANCH   5   7
HETATM    7  C7  UNL     1      25.290   3.231  51.109  1.00  0.00     0.032 A 
HETATM    8  C6  UNL     1      24.481   3.397  52.226  1.00  0.00     0.029 A 
HETATM    9  C5  UNL     1      23.108   3.483  52.100  1.00  0.00     0.003 A 
HETATM   10  C4  UNL     1      22.599   3.392  50.822  1.00  0.00     0.007 A 
HETATM   11  C3  UNL     1      23.376   3.224  49.669  1.00  0.00    -0.056 A 
HETATM   12  C16 UNL     1      24.740   3.145  49.847  1.00  0.00     0.036 A 
BRANCH  11  13
HETATM   13  C2  UNL     1      22.749   3.133  48.348  1.00  0.00     0.034 C 
HETATM   14  C1  UNL     1      22.147   1.790  48.030  1.00  0.00     0.010 C 
ENDBRANCH  11  13
ENDBRANCH   5   7
ENDBRANCH   3   5
ENDBRANCH   1   3
BRANCH   1  15
HETATM   15  C8  UNL     1      25.128  -0.522  53.780  1.00  0.00     0.127 C 
HETATM   16  C9  UNL     1      23.812  -0.529  53.656  1.00  0.00     0.030 A 
HETATM   17  C10 UNL     1      23.105  -0.126  52.460  1.00  0.00     0.019 A 
HETATM   18  C15 UNL     1      23.055  -0.974  54.815  1.00  0.00     0.067 A 
HETATM   19  C11 UNL     1      21.790  -0.173  52.455  1.00  0.00    -0.079 A 
HETATM   20  C12 UNL     1      21.086   0.248  51.211  1.00  0.00     0.043 C 
HETATM   21  C13 UNL     1      20.937  -0.609  53.580  1.00  0.00     0.063 A 
HETATM   22  C14 UNL     1      21.732  -1.009  54.771  1.00  0.00     0.010 A 
HETATM   23  N2  UNL     1      23.798  -1.361  55.966  1.00  0.00    -0.234 N 
HETATM   24  O1  UNL     1      25.101  -1.691  55.872  1.00  0.00    -0.107 OA
HETATM   25  H19 UNL     1      23.261  -1.370  56.883  1.00  0.00     0.197 HD
HETATM   26  O2  UNL     1      25.744  -0.923  54.964  1.00  0.00    -0.172 OA
ENDBRANCH   1  15
TORSDOF 5
ENDMDL
MODEL 2
REMARK VINA RESULT:      -7.5      1.800      2.621
REMARK  5 active torsions:
REMARK  status: ('A' for Active; 'I' for Inactive)
REMARK    1  A    between atoms: C2_2  and  C3_3 
REMARK    2  A    between atoms: C7_7  and  N1_8 
REMARK    3  A    between atoms: N1_8  and  P1_9 
REMARK    4  A    between atoms: P1_9  and  P2_10 
REMARK    5  A    between atoms: P2_10  and  C8_11 
ROOT
HETATM    1  P2  UNL     1      25.071  -0.693  53.191  1.00  0.00    -0.018 P 
HETATM    2  H11 UNL     1      25.544  -2.031  52.865  1.00  0.00     0.071 HD
ENDROOT
BRANCH   1   3
HETATM    3  P1  UNL     1      26.374   0.256  54.692  1.00  0.00     0.003 P 
HETATM    4  H10 UNL     1      27.533  -0.613  54.872  1.00  0.00     0.085 HD
BRANCH   3   5
HETATM    5  N1  UNL     1      26.979   1.848  54.071  1.00  0.00    -0.363 N 
HETATM    6  H9  UNL     1      27.860   2.333  54.375  1.00  0.00     0.164 HD
BRANCH   5   7
HETATM    7  C7  UNL     1      26.134   2.438  53.091  1.00  0.00     0.032 A 
HETATM    8  C6  UNL     1      24.907   2.867  53.582  1.00  0.00     0.029 A 
HETATM    9  C5  UNL     1      23.974   3.451  52.746  1.00  0.00     0.003 A 
HETATM   10  C4  UNL     1      24.328   3.576  51.419  1.00  0.00     0.007 A 
HETATM   11  C3  UNL     1      25.552   3.157  50.882  1.00  0.00    -0.056 A 
HETATM   12  C16 UNL     1      26.449   2.583  51.756  1.00  0.00     0.036 A 
BRANCH  11  13
HETATM   13  C2  UNL     1      25.842   3.326  49.456  1.00  0.00     0.034 C 
HETATM   14  C1  UNL     1      27.022   4.212  49.156  1.00  0.00     0.010 C 
ENDBRANCH  11  13
ENDBRANCH   5   7
ENDBRANCH   3   5
ENDBRANCH   1   3
BRANCH   1  15
HETATM   15  C8  UNL     1      23.332  -0.769  53.778  1.00  0.00     0.127 C 
HETATM   16  C9  UNL     1      22.397  -0.273  52.986  1.00  0.00     0.030 A 
HETATM   17  C10 UNL     1      22.658   0.323  51.693  1.00  0.00     0.019 A 
HETATM   18  C15 UNL     1      21.030  -0.345  53.475  1.00  0.00     0.067 A 
HETATM   19  C11 UNL     1      21.644   0.786  50.994  1.00  0.00    -0.079 A 
HETATM   20  C12 UNL     1      21.939   1.395  49.666  1.00  0.00     0.043 C 
HETATM   21  C13 UNL     1      20.225   0.758  51.405  1.00  0.00     0.063 A 
HETATM   22  C14 UNL     1      20.036   0.132  52.741  1.00  0.00     0.010 A 
HETATM   23  N2  UNL     1      20.827  -0.941  54.751  1.00  0.00    -0.234 N 
HETATM   24  O1  UNL     1      21.758  -1.751  55.294  1.00  0.00    -0.107 OA
HETATM   25  H19 UNL     1      19.910  -0.705  55.233  1.00  0.00     0.197 HD
HETATM   26  O2  UNL     1      23.010  -1.328  55.013  1.00  0.00    -0.172 OA
ENDBRANCH   1  15
TORSDOF 5
ENDMDL
MODEL 3
REMARK VINA RESULT:      -7.4      3.240      5.067
REMARK  5 active torsions:
REMARK  status: ('A' for Active; 'I' for Inactive)
REMARK    1  A    between atoms: C2_2  and  C3_3 
REMARK    2  A    between atoms: C7_7  and  N1_8 
REMARK    3  A    between atoms: N1_8  and  P1_9 
REMARK    4  A    between atoms: P1_9  and  P2_10 
REMARK    5  A    between atoms: P2_10  and  C8_11 
ROOT
HETATM    1  P2  UNL     1      22.278   1.643  51.322  1.00  0.00    -0.018 P 
HETATM    2  H11 UNL     1      22.047   1.052  50.012  1.00  0.00     0.071 HD
ENDROOT
BRANCH   1   3
HETATM    3  P1  UNL     1      24.432   1.935  51.681  1.00  0.00     0.003 P 
HETATM    4  H10 UNL     1      24.577   3.139  52.493  1.00  0.00     0.085 HD
BRANCH   3   5
HETATM    5  N1  UNL     1      25.096   0.548  52.641  1.00  0.00    -0.363 N 
HETATM    6  H9  UNL     1      24.561  -0.305  52.941  1.00  0.00     0.164 HD
BRANCH   5   7
HETATM    7  C7  UNL     1      26.468   0.696  52.986  1.00  0.00     0.032 A 
HETATM    8  C6  UNL     1      26.871   2.013  53.164  1.00  0.00     0.029 A 
HETATM    9  C5  UNL     1      28.178   2.317  53.490  1.00  0.00     0.003 A 
HETATM   10  C4  UNL     1      29.044   1.253  53.624  1.00  0.00     0.007 A 
HETATM   11  C3  UNL     1      28.681  -0.090  53.454  1.00  0.00    -0.056 A 
HETATM   12  C16 UNL     1      27.366  -0.341  53.130  1.00  0.00     0.036 A 
BRANCH  11  13
HETATM   13  C2  UNL     1      29.670  -1.159  53.612  1.00  0.00     0.034 C 
HETATM   14  C1  UNL     1      29.176  -2.532  53.237  1.00  0.00     0.010 C 
ENDBRANCH  11  13
ENDBRANCH   5   7
ENDBRANCH   3   5
ENDBRANCH   1   3
BRANCH   1  15
HETATM   15  C8  UNL     1      21.527   0.591  52.627  1.00  0.00     0.127 C 
HETATM   16  C9  UNL     1      20.293   0.161  52.431  1.00  0.00     0.030 A 
HETATM   17  C10 UNL     1      19.501   0.468  51.259  1.00  0.00     0.019 A 
HETATM   18  C15 UNL     1      19.722  -0.669  53.479  1.00  0.00     0.067 A 
HETATM   19  C11 UNL     1      18.281  -0.016  51.175  1.00  0.00    -0.079 A 
HETATM   20  C12 UNL     1      17.486   0.314  49.959  1.00  0.00     0.043 C 
HETATM   21  C13 UNL     1      17.616  -0.866  52.185  1.00  0.00     0.063 A 
HETATM   22  C14 UNL     1      18.489  -1.138  53.358  1.00  0.00     0.010 A 
HETATM   23  N2  UNL     1      20.542  -0.942  54.610  1.00  0.00    -0.234 N 
HETATM   24  O1  UNL     1      21.881  -0.800  54.546  1.00  0.00    -0.107 OA
HETATM   25  H19 UNL     1      20.033  -1.258  55.487  1.00  0.00     0.197 HD
HETATM   26  O2  UNL     1      22.233   0.258  53.782  1.00  0.00    -0.172 OA
ENDBRANCH   1  15
TORSDOF 5
ENDMDL
MODEL 4
REMARK VINA RESULT:      -7.3      3.812      5.417
REMARK  5 active torsions:
REMARK  status: ('A' for Active; 'I' for Inactive)
REMARK    1  A    between atoms: C2_2  and  C3_3 
REMARK    2  A    between atoms: C7_7  and  N1_8 
REMARK    3  A    between atoms: N1_8  and  P1_9 
REMARK    4  A    between atoms: P1_9  and  P2_10 
REMARK    5  A    between atoms: P2_10  and  C8_11 
ROOT
HETATM    1  P2  UNL     1      23.381   4.032  52.431  1.00  0.00    -0.018 P 
HETATM    2  H11 UNL     1      23.331   5.485  52.522  1.00  0.00     0.071 HD
ENDROOT
BRANCH   1   3
HETATM    3  P1  UNL     1      24.698   3.394  50.784  1.00  0.00     0.003 P 
HETATM    4  H10 UNL     1      24.616   4.413  49.743  1.00  0.00     0.085 HD
BRANCH   3   5
HETATM    5  N1  UNL     1      26.418   3.333  51.353  1.00  0.00    -0.363 N 
HETATM    6  H9  UNL     1      27.121   4.109  51.271  1.00  0.00     0.164 HD
BRANCH   5   7
HETATM    7  C7  UNL     1      26.779   2.093  51.949  1.00  0.00     0.032 A 
HETATM    8  C6  UNL     1      25.898   1.054  51.679  1.00  0.00     0.029 A 
HETATM    9  C5  UNL     1      26.109  -0.208  52.199  1.00  0.00     0.003 A 
HETATM   10  C4  UNL     1      27.227  -0.370  52.990  1.00  0.00     0.007 A 
HETATM   11  C3  UNL     1      28.141   0.648  53.288  1.00  0.00    -0.056 A 
HETATM   12  C16 UNL     1      27.887   1.888  52.745  1.00  0.00     0.036 A 
BRANCH  11  13
HETATM   13  C2  UNL     1      29.303   0.387  54.142  1.00  0.00     0.034 C 
HETATM   14  C1  UNL     1      30.096  -0.837  53.768  1.00  0.00     0.010 C 
ENDBRANCH  11  13
ENDBRANCH   5   7
ENDBRANCH   3   5
ENDBRANCH   1   3
BRANCH   1  15
HETATM   15  C8  UNL     1      21.685   3.358  52.221  1.00  0.00     0.127 C 
HETATM   16  C9  UNL     1      21.471   2.112  52.605  1.00  0.00     0.030 A 
HETATM   17  C10 UNL     1      22.484   1.251  53.175  1.00  0.00     0.019 A 
HETATM   18  C15 UNL     1      20.120   1.604  52.427  1.00  0.00     0.067 A 
HETATM   19  C11 UNL     1      22.152   0.025  53.519  1.00  0.00    -0.079 A 
HETATM   20  C12 UNL     1      23.213  -0.842  54.104  1.00  0.00     0.043 C 
HETATM   21  C13 UNL     1      20.811  -0.580  53.377  1.00  0.00     0.063 A 
HETATM   22  C14 UNL     1      19.825   0.363  52.786  1.00  0.00     0.010 A 
HETATM   23  N2  UNL     1      19.161   2.491  51.863  1.00  0.00    -0.234 N 
HETATM   24  O1  UNL     1      19.361   3.824  51.870  1.00  0.00    -0.107 OA
HETATM   25  H19 UNL     1      18.298   2.035  51.444  1.00  0.00     0.197 HD
HETATM   26  O2  UNL     1      20.662   4.133  51.677  1.00  0.00    -0.172 OA
ENDBRANCH   1  15
TORSDOF 5
ENDMDL
MODEL 5
REMARK VINA RESULT:      -7.3      3.997      7.083
REMARK  5 active torsions:
REMARK  status: ('A' for Active; 'I' for Inactive)
REMARK    1  A    between atoms: C2_2  and  C3_3 
REMARK    2  A    between atoms: C7_7  and  N1_8 
REMARK    3  A    between atoms: N1_8  and  P1_9 
REMARK    4  A    between atoms: P1_9  and  P2_10 
REMARK    5  A    between atoms: P2_10  and  C8_11 
ROOT
HETATM    1  P2  UNL     1      21.794   0.176  52.053  1.00  0.00    -0.018 P 
HETATM    2  H11 UNL     1      22.303   1.486  51.673  1.00  0.00     0.071 HD
ENDROOT
BRANCH   1   3
HETATM    3  P1  UNL     1      19.640   0.272  52.506  1.00  0.00     0.003 P 
HETATM    4  H10 UNL     1      18.923  -0.070  51.282  1.00  0.00     0.085 HD
BRANCH   3   5
HETATM    5  N1  UNL     1      19.211  -0.970  53.754  1.00  0.00    -0.363 N 
HETATM    6  H9  UNL     1      19.721  -1.137  54.657  1.00  0.00     0.164 HD
BRANCH   5   7
HETATM    7  C7  UNL     1      18.075  -1.755  53.412  1.00  0.00     0.032 A 
HETATM    8  C6  UNL     1      17.123  -1.080  52.661  1.00  0.00     0.029 A 
HETATM    9  C5  UNL     1      15.958  -1.707  52.262  1.00  0.00     0.003 A 
HETATM   10  C4  UNL     1      15.802  -3.021  52.651  1.00  0.00     0.007 A 
HETATM   11  C3  UNL     1      16.735  -3.740  53.407  1.00  0.00    -0.056 A 
HETATM   12  C16 UNL     1      17.881  -3.071  53.779  1.00  0.00     0.036 A 
BRANCH  11  13
HETATM   13  C2  UNL     1      16.485  -5.135  53.779  1.00  0.00     0.034 C 
HETATM   14  C1  UNL     1      15.032  -5.483  53.971  1.00  0.00     0.010 C 
ENDBRANCH  11  13
ENDBRANCH   5   7
ENDBRANCH   3   5
ENDBRANCH   1   3
BRANCH   1  15
HETATM   15  C8  UNL     1      22.742  -0.476  53.484  1.00  0.00     0.127 C 
HETATM   16  C9  UNL     1      24.027  -0.172  53.556  1.00  0.00     0.030 A 
HETATM   17  C10 UNL     1      24.728   0.636  52.581  1.00  0.00     0.019 A 
HETATM   18  C15 UNL     1      24.754  -0.701  54.698  1.00  0.00     0.067 A 
HETATM   19  C11 UNL     1      26.010   0.870  52.758  1.00  0.00    -0.079 A 
HETATM   20  C12 UNL     1      26.709   1.705  51.741  1.00  0.00     0.043 C 
HETATM   21  C13 UNL     1      26.832   0.377  53.883  1.00  0.00     0.063 A 
HETATM   22  C14 UNL     1      26.045  -0.443  54.842  1.00  0.00     0.010 A 
HETATM   23  N2  UNL     1      24.018  -1.489  55.628  1.00  0.00    -0.234 N 
HETATM   24  O1  UNL     1      22.674  -1.418  55.686  1.00  0.00    -0.107 OA
HETATM   25  H19 UNL     1      24.594  -2.123  56.257  1.00  0.00     0.197 HD
HETATM   26  O2  UNL     1      22.130  -1.262  54.458  1.00  0.00    -0.172 OA
ENDBRANCH   1  15
TORSDOF 5
ENDMDL
MODEL 6
REMARK VINA RESULT:      -7.1      3.316      4.171
REMARK  5 active torsions:
REMARK  status: ('A' for Active; 'I' for Inactive)
REMARK    1  A    between atoms: C2_2  and  C3_3 
REMARK    2  A    between atoms: C7_7  and  N1_8 
REMARK    3  A    between atoms: N1_8  and  P1_9 
REMARK    4  A    between atoms: P1_9  and  P2_10 
REMARK    5  A    between atoms: P2_10  and  C8_11 
ROOT
HETATM    1  P2  UNL     1      21.591   1.277  50.522  1.00  0.00    -0.018 P 
HETATM    2  H11 UNL     1      22.906   0.728  50.225  1.00  0.00     0.071 HD
ENDROOT
BRANCH   1   3
HETATM    3  P1  UNL     1      21.738   3.397  51.100  1.00  0.00     0.003 P 
HETATM    4  H10 UNL     1      20.609   3.687  51.977  1.00  0.00     0.085 HD
BRANCH   3   5
HETATM    5  N1  UNL     1      23.254   3.677  52.054  1.00  0.00    -0.363 N 
HETATM    6  H9  UNL     1      23.309   3.834  53.091  1.00  0.00     0.164 HD
BRANCH   5   7
HETATM    7  C7  UNL     1      24.436   3.674  51.262  1.00  0.00     0.032 A 
HETATM    8  C6  UNL     1      25.233   2.549  51.435  1.00  0.00     0.029 A 
HETATM    9  C5  UNL     1      26.420   2.408  50.742  1.00  0.00     0.003 A 
HETATM   10  C4  UNL     1      26.760   3.434  49.886  1.00  0.00     0.007 A 
HETATM   11  C3  UNL     1      25.988   4.585  49.682  1.00  0.00    -0.056 A 
HETATM   12  C16 UNL     1      24.812   4.678  50.394  1.00  0.00     0.036 A 
BRANCH  11  13
HETATM   13  C2  UNL     1      26.429   5.629  48.754  1.00  0.00     0.034 C 
HETATM   14  C1  UNL     1      27.899   5.600  48.428  1.00  0.00     0.010 C 
ENDBRANCH  11  13
ENDBRANCH   5   7
ENDBRANCH   3   5
ENDBRANCH   1   3
BRANCH   1  15
HETATM   15  C8  UNL     1      20.780   0.287  51.840  1.00  0.00     0.127 C 
HETATM   16  C9  UNL     1      21.544  -0.176  52.814  1.00  0.00     0.030 A 
HETATM   17  C10 UNL     1      22.971   0.047  52.906  1.00  0.00     0.019 A 
HETATM   18  C15 UNL     1      20.877  -0.956  53.844  1.00  0.00     0.067 A 
HETATM   19  C11 UNL     1      23.627  -0.465  53.924  1.00  0.00    -0.079 A 
HETATM   20  C12 UNL     1      25.095  -0.222  53.995  1.00  0.00     0.043 C 
HETATM   21  C13 UNL     1      23.039  -1.270  55.015  1.00  0.00     0.063 A 
HETATM   22  C14 UNL     1      21.573  -1.456  54.854  1.00  0.00     0.010 A 
HETATM   23  N2  UNL     1      19.473  -1.146  53.707  1.00  0.00    -0.234 N 
HETATM   24  O1  UNL     1      18.736  -0.332  52.925  1.00  0.00    -0.107 OA
HETATM   25  H19 UNL     1      19.059  -1.957  54.255  1.00  0.00     0.197 HD
HETATM   26  O2  UNL     1      19.410   0.032  51.812  1.00  0.00    -0.172 OA
ENDBRANCH   1  15
TORSDOF 5
ENDMDL
MODEL 7
REMARK VINA RESULT:      -7.1      3.347      4.463
REMARK  5 active torsions:
REMARK  status: ('A' for Active; 'I' for Inactive)
REMARK    1  A    between atoms: C2_2  and  C3_3 
REMARK    2  A    between atoms: C7_7  and  N1_8 
REMARK    3  A    between atoms: N1_8  and  P1_9 
REMARK    4  A    between atoms: P1_9  and  P2_10 
REMARK    5  A    between atoms: P2_10  and  C8_11 
ROOT
HETATM    1  P2  UNL     1      21.564   1.174  50.333  1.00  0.00    -0.018 P 
HETATM    2  H11 UNL     1      22.943   0.712  50.270  1.00  0.00     0.071 HD
ENDROOT
BRANCH   1   3
HETATM    3  P1  UNL     1      21.481   3.354  50.640  1.00  0.00     0.003 P 
HETATM    4  H10 UNL     1      20.208   3.652  51.290  1.00  0.00     0.085 HD
BRANCH   3   5
HETATM    5  N1  UNL     1      22.802   3.874  51.767  1.00  0.00    -0.363 N 
HETATM    6  H9  UNL     1      22.670   4.371  52.683  1.00  0.00     0.164 HD
BRANCH   5   7
HETATM    7  C7  UNL     1      24.108   3.550  51.304  1.00  0.00     0.032 A 
HETATM    8  C6  UNL     1      24.417   4.081  50.058  1.00  0.00     0.029 A 
HETATM    9  C5  UNL     1      25.645   3.844  49.472  1.00  0.00     0.003 A 
HETATM   10  C4  UNL     1      26.528   3.061  50.184  1.00  0.00     0.007 A 
HETATM   11  C3  UNL     1      26.258   2.505  51.441  1.00  0.00    -0.056 A 
HETATM   12  C16 UNL     1      25.021   2.772  51.985  1.00  0.00     0.036 A 
BRANCH  11  13
HETATM   13  C2  UNL     1      27.256   1.680  52.126  1.00  0.00     0.034 C 
HETATM   14  C1  UNL     1      27.753   2.247  53.430  1.00  0.00     0.010 C 
ENDBRANCH  11  13
ENDBRANCH   5   7
ENDBRANCH   3   5
ENDBRANCH   1   3
BRANCH   1  15
HETATM   15  C8  UNL     1      20.664   0.284  51.663  1.00  0.00     0.127 C 
HETATM   16  C9  UNL     1      21.373  -0.177  52.679  1.00  0.00     0.030 A 
HETATM   17  C10 UNL     1      22.806  -0.025  52.806  1.00  0.00     0.019 A 
HETATM   18  C15 UNL     1      20.635  -0.878  53.718  1.00  0.00     0.067 A 
HETATM   19  C11 UNL     1      23.405  -0.529  53.864  1.00  0.00    -0.079 A 
HETATM   20  C12 UNL     1      24.881  -0.359  53.972  1.00  0.00     0.043 C 
HETATM   21  C13 UNL     1      22.743  -1.255  54.968  1.00  0.00     0.063 A 
HETATM   22  C14 UNL     1      21.274  -1.371  54.768  1.00  0.00     0.010 A 
HETATM   23  N2  UNL     1      19.228  -0.999  53.545  1.00  0.00    -0.234 N 
HETATM   24  O1  UNL     1      18.558  -0.182  52.709  1.00  0.00    -0.107 OA
HETATM   25  H19 UNL     1      18.755  -1.764  54.111  1.00  0.00     0.197 HD
HETATM   26  O2  UNL     1      19.284   0.100  51.603  1.00  0.00    -0.172 OA
ENDBRANCH   1  15
TORSDOF 5
ENDMDL
MODEL 8
REMARK VINA RESULT:      -7.0      2.649      3.362
REMARK  5 active torsions:
REMARK  status: ('A' for Active; 'I' for Inactive)
REMARK    1  A    between atoms: C2_2  and  C3_3 
REMARK    2  A    between atoms: C7_7  and  N1_8 
REMARK    3  A    between atoms: N1_8  and  P1_9 
REMARK    4  A    between atoms: P1_9  and  P2_10 
REMARK    5  A    between atoms: P2_10  and  C8_11 
ROOT
HETATM    1  P2  UNL     1      24.524   1.749  51.645  1.00  0.00    -0.018 P 
HETATM    2  H11 UNL     1      24.022   1.043  50.475  1.00  0.00     0.071 HD
ENDROOT
BRANCH   1   3
HETATM    3  P1  UNL     1      26.452   2.721  51.208  1.00  0.00     0.003 P 
HETATM    4  H10 UNL     1      27.505   1.792  51.604  1.00  0.00     0.085 HD
BRANCH   3   5
HETATM    5  N1  UNL     1      26.616   3.003  49.425  1.00  0.00    -0.363 N 
HETATM    6  H9  UNL     1      26.698   2.257  48.689  1.00  0.00     0.164 HD
BRANCH   5   7
HETATM    7  C7  UNL     1      26.630   4.378  49.062  1.00  0.00     0.032 A 
HETATM    8  C6  UNL     1      27.867   4.839  48.631  1.00  0.00     0.029 A 
HETATM    9  C5  UNL     1      28.040   6.157  48.255  1.00  0.00     0.003 A 
HETATM   10  C4  UNL     1      26.931   6.973  48.336  1.00  0.00     0.007 A 
HETATM   11  C3  UNL     1      25.667   6.550  48.765  1.00  0.00    -0.056 A 
HETATM   12  C16 UNL     1      25.545   5.227  49.128  1.00  0.00     0.036 A 
BRANCH  11  13
HETATM   13  C2  UNL     1      24.543   7.488  48.824  1.00  0.00     0.034 C 
HETATM   14  C1  UNL     1      24.382   8.195  50.144  1.00  0.00     0.010 C 
ENDBRANCH  11  13
ENDBRANCH   5   7
ENDBRANCH   3   5
ENDBRANCH   1   3
BRANCH   1  15
HETATM   15  C8  UNL     1      24.673   0.591  53.062  1.00  0.00     0.127 C 
HETATM   16  C9  UNL     1      23.566   0.020  53.505  1.00  0.00     0.030 A 
HETATM   17  C10 UNL     1      22.251   0.252  52.946  1.00  0.00     0.019 A 
HETATM   18  C15 UNL     1      23.712  -0.892  54.627  1.00  0.00     0.067 A 
HETATM   19  C11 UNL     1      21.220  -0.373  53.472  1.00  0.00    -0.079 A 
HETATM   20  C12 UNL     1      19.878  -0.117  52.879  1.00  0.00     0.043 C 
HETATM   21  C13 UNL     1      21.269  -1.315  54.610  1.00  0.00     0.063 A 
HETATM   22  C14 UNL     1      22.650  -1.503  55.130  1.00  0.00     0.010 A 
HETATM   23  N2  UNL     1      25.026  -1.086  55.139  1.00  0.00    -0.234 N 
HETATM   24  O1  UNL     1      26.111  -0.783  54.399  1.00  0.00    -0.107 OA
HETATM   25  H19 UNL     1      25.087  -1.477  56.125  1.00  0.00     0.197 HD
HETATM   26  O2  UNL     1      25.908   0.323  53.649  1.00  0.00    -0.172 OA
ENDBRANCH   1  15
TORSDOF 5
ENDMDL
MODEL 9
REMARK VINA RESULT:      -7.0      2.410      3.987
REMARK  5 active torsions:
REMARK  status: ('A' for Active; 'I' for Inactive)
REMARK    1  A    between atoms: C2_2  and  C3_3 
REMARK    2  A    between atoms: C7_7  and  N1_8 
REMARK    3  A    between atoms: N1_8  and  P1_9 
REMARK    4  A    between atoms: P1_9  and  P2_10 
REMARK    5  A    between atoms: P2_10  and  C8_11 
ROOT
HETATM    1  P2  UNL     1      22.655  -1.147  53.435  1.00  0.00    -0.018 P 
HETATM    2  H11 UNL     1      22.653  -1.045  51.982  1.00  0.00     0.071 HD
ENDROOT
BRANCH   1   3
HETATM    3  P1  UNL     1      21.075   0.113  54.312  1.00  0.00     0.003 P 
HETATM    4  H10 UNL     1      21.697   1.369  54.718  1.00  0.00     0.085 HD
BRANCH   3   5
HETATM    5  N1  UNL     1      19.826   0.505  53.058  1.00  0.00    -0.363 N 
HETATM    6  H9  UNL     1      18.824   0.188  53.067  1.00  0.00     0.164 HD
BRANCH   5   7
HETATM    7  C7  UNL     1      20.316   1.314  51.996  1.00  0.00     0.032 A 
HETATM    8  C6  UNL     1      20.316   2.675  52.272  1.00  0.00     0.029 A 
HETATM    9  C5  UNL     1      20.753   3.589  51.333  1.00  0.00     0.003 A 
HETATM   10  C4  UNL     1      21.179   3.077  50.126  1.00  0.00     0.007 A 
HETATM   11  C3  UNL     1      21.196   1.714  49.805  1.00  0.00    -0.056 A 
HETATM   12  C16 UNL     1      20.752   0.842  50.775  1.00  0.00     0.036 A 
BRANCH  11  13
HETATM   13  C2  UNL     1      21.663   1.257  48.493  1.00  0.00     0.034 C 
HETATM   14  C1  UNL     1      22.352   2.313  47.670  1.00  0.00     0.010 C 
ENDBRANCH  11  13
ENDBRANCH   5   7
ENDBRANCH   3   5
ENDBRANCH   1   3
BRANCH   1  15
HETATM   15  C8  UNL     1      24.307  -0.691  54.095  1.00  0.00     0.127 C 
HETATM   16  C9  UNL     1      24.968   0.273  53.476  1.00  0.00     0.030 A 
HETATM   17  C10 UNL     1      24.473   0.985  52.318  1.00  0.00     0.019 A 
HETATM   18  C15 UNL     1      26.273   0.614  54.019  1.00  0.00     0.067 A 
HETATM   19  C11 UNL     1      25.222   1.926  51.786  1.00  0.00    -0.079 A 
HETATM   20  C12 UNL     1      24.690   2.645  50.594  1.00  0.00     0.043 C 
HETATM   21  C13 UNL     1      26.557   2.342  52.264  1.00  0.00     0.063 A 
HETATM   22  C14 UNL     1      26.998   1.568  53.455  1.00  0.00     0.010 A 
HETATM   23  N2  UNL     1      26.713  -0.116  55.159  1.00  0.00    -0.234 N 
HETATM   24  O1  UNL     1      25.836  -0.781  55.937  1.00  0.00    -0.107 OA
HETATM   25  H19 UNL     1      27.759  -0.098  55.346  1.00  0.00     0.197 HD
HETATM   26  O2  UNL     1      24.845  -1.337  55.206  1.00  0.00    -0.172 OA
ENDBRANCH   1  15
TORSDOF 5
ENDMDL
