MODEL 1
REMARK VINA RESULT:      -7.6      0.000      0.000
REMARK  9 active torsions:
REMARK  status: ('A' for Active; 'I' for Inactive)
REMARK    1  A    between atoms: O1_2  and  C2_3 
REMARK    2  A    between atoms: C9_12  and  C10_13 
REMARK    3  A    between atoms: C10_13  and  C11_14 
REMARK    4  A    between atoms: C11_14  and  C12_15 
REMARK    5  A    between atoms: C12_15  and  C14_17 
REMARK    6  A    between atoms: C14_17  and  C16_19 
REMARK    7  A    between atoms: C16_19  and  C17_20 
REMARK    8  A    between atoms: C17_20  and  C18_21 
REMARK    9  A    between atoms: C18_21  and  O4_23 
ROOT
HETATM    1  C2  UNL     1      27.527  -0.067  53.717  1.00  0.00     0.070 A 
HETATM    2  C3  UNL     1      27.133  -0.570  52.506  1.00  0.00     0.038 A 
HETATM    3  C4  UNL     1      26.142   0.148  51.823  1.00  0.00     0.017 A 
HETATM    4  C5  UNL     1      25.625   1.293  52.380  1.00  0.00     0.006 A 
HETATM    5  C6  UNL     1      26.006   1.814  53.588  1.00  0.00     0.049 A 
HETATM    6  C7  UNL     1      26.982   1.089  54.243  1.00  0.00     0.067 A 
HETATM    7  N1  UNL     1      25.325   3.003  53.951  1.00  0.00    -0.322 N 
HETATM    8  C8  UNL     1      24.413   3.292  52.890  1.00  0.00     0.257 A 
HETATM    9  O2  UNL     1      23.684   4.332  53.003  1.00  0.00    -0.267 OA
HETATM   10  C9  UNL     1      24.612   2.217  51.917  1.00  0.00     0.044 A 
HETATM   11  H7  UNL     1      25.505   3.519  54.839  1.00  0.00     0.169 HD
ENDROOT
BRANCH  10  12
HETATM   12  C10 UNL     1      23.877   2.215  50.825  1.00  0.00     0.018 C 
BRANCH  12  13
HETATM   13  C11 UNL     1      22.517   2.086  50.402  1.00  0.00     0.004 C 
BRANCH  13  14
HETATM   14  C12 UNL     1      21.602   1.156  50.505  1.00  0.00    -0.080 C 
HETATM   15  C13 UNL     1      21.184   0.802  49.111  1.00  0.00     0.044 C 
BRANCH  14  16
HETATM   16  C14 UNL     1      21.141   0.596  51.766  1.00  0.00     0.010 C 
HETATM   17  C15 UNL     1      20.763   1.743  52.707  1.00  0.00     0.015 C 
BRANCH  16  18
HETATM   18  C16 UNL     1      21.975  -0.392  52.464  1.00  0.00     0.019 C 
BRANCH  18  19
HETATM   19  C17 UNL     1      22.472  -0.160  53.826  1.00  0.00     0.110 C 
BRANCH  19  20
HETATM   20  C18 UNL     1      22.169  -1.176  54.846  1.00  0.00     0.139 C 
HETATM   21  O3  UNL     1      22.897  -1.734  55.741  1.00  0.00    -0.650 OA
BRANCH  20  22
HETATM   22  O4  UNL     1      20.853  -1.610  54.835  1.00  0.00    -0.776 OA
HETATM   23  H21 UNL     1      20.435  -1.906  55.706  1.00  0.00     0.167 HD
ENDBRANCH  20  22
ENDBRANCH  19  20
ENDBRANCH  18  19
ENDBRANCH  16  18
ENDBRANCH  14  16
ENDBRANCH  13  14
ENDBRANCH  12  13
ENDBRANCH  10  12
BRANCH   1  24
HETATM   24  O1  UNL     1      28.511  -0.831  54.340  1.00  0.00    -0.356 OA
HETATM   25  C1  UNL     1      29.786  -0.880  53.733  1.00  0.00     0.210 C 
ENDBRANCH   1  24
TORSDOF 9
ENDMDL
MODEL 2
REMARK VINA RESULT:      -7.4      2.529      7.237
REMARK  9 active torsions:
REMARK  status: ('A' for Active; 'I' for Inactive)
REMARK    1  A    between atoms: O1_2  and  C2_3 
REMARK    2  A    between atoms: C9_12  and  C10_13 
REMARK    3  A    between atoms: C10_13  and  C11_14 
REMARK    4  A    between atoms: C11_14  and  C12_15 
REMARK    5  A    between atoms: C12_15  and  C14_17 
REMARK    6  A    between atoms: C14_17  and  C16_19 
REMARK    7  A    between atoms: C16_19  and  C17_20 
REMARK    8  A    between atoms: C17_20  and  C18_21 
REMARK    9  A    between atoms: C18_21  and  O4_23 
ROOT
HETATM    1  C2  UNL     1      18.589   0.047  51.917  1.00  0.00     0.070 A 
HETATM    2  C3  UNL     1      19.527   0.705  51.167  1.00  0.00     0.038 A 
HETATM    3  C4  UNL     1      20.851   0.637  51.622  1.00  0.00     0.017 A 
HETATM    4  C5  UNL     1      21.143  -0.067  52.765  1.00  0.00     0.006 A 
HETATM    5  C6  UNL     1      20.222  -0.734  53.528  1.00  0.00     0.049 A 
HETATM    6  C7  UNL     1      18.924  -0.652  53.062  1.00  0.00     0.067 A 
HETATM    7  N1  UNL     1      20.765  -1.385  54.663  1.00  0.00    -0.322 N 
HETATM    8  C8  UNL     1      22.170  -1.125  54.650  1.00  0.00     0.257 A 
HETATM    9  O2  UNL     1      22.873  -1.619  55.591  1.00  0.00    -0.267 OA
HETATM   10  C9  UNL     1      22.391  -0.302  53.460  1.00  0.00     0.044 A 
HETATM   11  H7  UNL     1      20.192  -1.934  55.339  1.00  0.00     0.169 HD
ENDROOT
BRANCH  10  12
HETATM   12  C10 UNL     1      23.614   0.111  53.201  1.00  0.00     0.018 C 
BRANCH  12  13
HETATM   13  C11 UNL     1      24.976  -0.306  53.322  1.00  0.00     0.004 C 
BRANCH  13  14
HETATM   14  C12 UNL     1      26.094   0.003  52.717  1.00  0.00    -0.080 C 
HETATM   15  C13 UNL     1      25.939   1.401  52.203  1.00  0.00     0.044 C 
BRANCH  14  16
HETATM   16  C14 UNL     1      27.244  -0.882  52.619  1.00  0.00     0.010 C 
HETATM   17  C15 UNL     1      26.757  -2.290  52.271  1.00  0.00     0.015 C 
BRANCH  16  18
HETATM   18  C16 UNL     1      28.214  -0.928  53.722  1.00  0.00     0.019 C 
BRANCH  18  19
HETATM   19  C17 UNL     1      28.321   0.159  54.703  1.00  0.00     0.110 C 
BRANCH  19  20
HETATM   20  C18 UNL     1      29.198   1.293  54.373  1.00  0.00     0.139 C 
HETATM   21  O3  UNL     1      29.499   2.359  55.018  1.00  0.00    -0.650 OA
BRANCH  20  22
HETATM   22  O4  UNL     1      29.812   1.189  53.135  1.00  0.00    -0.776 OA
HETATM   23  H21 UNL     1      30.700   0.710  53.075  1.00  0.00     0.167 HD
ENDBRANCH  20  22
ENDBRANCH  19  20
ENDBRANCH  18  19
ENDBRANCH  16  18
ENDBRANCH  14  16
ENDBRANCH  13  14
ENDBRANCH  12  13
ENDBRANCH  10  12
BRANCH   1  24
HETATM   24  O1  UNL     1      17.297   0.158  51.409  1.00  0.00    -0.356 OA
HETATM   25  C1  UNL     1      17.072  -0.282  50.085  1.00  0.00     0.210 C 
ENDBRANCH   1  24
TORSDOF 9
ENDMDL
MODEL 3
REMARK VINA RESULT:      -7.2      1.956      4.343
REMARK  9 active torsions:
REMARK  status: ('A' for Active; 'I' for Inactive)
REMARK    1  A    between atoms: O1_2  and  C2_3 
REMARK    2  A    between atoms: C9_12  and  C10_13 
REMARK    3  A    between atoms: C10_13  and  C11_14 
REMARK    4  A    between atoms: C11_14  and  C12_15 
REMARK    5  A    between atoms: C12_15  and  C14_17 
REMARK    6  A    between atoms: C14_17  and  C16_19 
REMARK    7  A    between atoms: C16_19  and  C17_20 
REMARK    8  A    between atoms: C17_20  and  C18_21 
REMARK    9  A    between atoms: C18_21  and  O4_23 
ROOT
HETATM    1  C2  UNL     1      27.671   0.412  53.520  1.00  0.00     0.070 A 
HETATM    2  C3  UNL     1      27.016   0.806  52.384  1.00  0.00     0.038 A 
HETATM    3  C4  UNL     1      25.643   0.527  52.327  1.00  0.00     0.017 A 
HETATM    4  C5  UNL     1      25.032  -0.107  53.381  1.00  0.00     0.006 A 
HETATM    5  C6  UNL     1      25.667  -0.506  54.526  1.00  0.00     0.049 A 
HETATM    6  C7  UNL     1      27.019  -0.223  54.561  1.00  0.00     0.067 A 
HETATM    7  N1  UNL     1      24.824  -1.144  55.470  1.00  0.00    -0.322 N 
HETATM    8  C8  UNL     1      23.515  -1.168  54.897  1.00  0.00     0.257 A 
HETATM    9  O2  UNL     1      22.581  -1.703  55.579  1.00  0.00    -0.267 OA
HETATM   10  C9  UNL     1      23.661  -0.518  53.595  1.00  0.00     0.044 A 
HETATM   11  H7  UNL     1      25.160  -1.503  56.390  1.00  0.00     0.169 HD
ENDROOT
BRANCH  10  12
HETATM   12  C10 UNL     1      22.599  -0.414  52.823  1.00  0.00     0.018 C 
BRANCH  12  13
HETATM   13  C11 UNL     1      21.895   0.541  52.025  1.00  0.00     0.004 C 
BRANCH  13  14
HETATM   14  C12 UNL     1      22.218   1.335  51.036  1.00  0.00    -0.080 C 
HETATM   15  C13 UNL     1      21.459   0.865  49.834  1.00  0.00     0.044 C 
BRANCH  14  16
HETATM   16  C14 UNL     1      23.131   2.462  51.156  1.00  0.00     0.010 C 
HETATM   17  C15 UNL     1      22.716   3.309  52.362  1.00  0.00     0.015 C 
BRANCH  16  18
HETATM   18  C16 UNL     1      23.379   3.315  49.986  1.00  0.00     0.019 C 
BRANCH  18  19
HETATM   19  C17 UNL     1      24.669   3.311  49.285  1.00  0.00     0.110 C 
BRANCH  19  20
HETATM   20  C18 UNL     1      25.830   3.879  49.987  1.00  0.00     0.139 C 
HETATM   21  O3  UNL     1      27.050   3.494  50.077  1.00  0.00    -0.650 OA
BRANCH  20  22
HETATM   22  O4  UNL     1      25.554   5.046  50.681  1.00  0.00    -0.776 OA
HETATM   23  H21 UNL     1      24.588   5.285  50.859  1.00  0.00     0.167 HD
ENDBRANCH  20  22
ENDBRANCH  19  20
ENDBRANCH  18  19
ENDBRANCH  16  18
ENDBRANCH  14  16
ENDBRANCH  13  14
ENDBRANCH  12  13
ENDBRANCH  10  12
BRANCH   1  24
HETATM   24  O1  UNL     1      29.030   0.718  53.509  1.00  0.00    -0.356 OA
HETATM   25  C1  UNL     1      29.943  -0.357  53.434  1.00  0.00     0.210 C 
ENDBRANCH   1  24
TORSDOF 9
ENDMDL
MODEL 4
REMARK VINA RESULT:      -7.2      3.039      5.845
REMARK  9 active torsions:
REMARK  status: ('A' for Active; 'I' for Inactive)
REMARK    1  A    between atoms: O1_2  and  C2_3 
REMARK    2  A    between atoms: C9_12  and  C10_13 
REMARK    3  A    between atoms: C10_13  and  C11_14 
REMARK    4  A    between atoms: C11_14  and  C12_15 
REMARK    5  A    between atoms: C12_15  and  C14_17 
REMARK    6  A    between atoms: C14_17  and  C16_19 
REMARK    7  A    between atoms: C16_19  and  C17_20 
REMARK    8  A    between atoms: C17_20  and  C18_21 
REMARK    9  A    between atoms: C18_21  and  O4_23 
ROOT
HETATM    1  C2  UNL     1      26.333   5.172  49.266  1.00  0.00     0.070 A 
HETATM    2  C3  UNL     1      26.746   3.868  49.333  1.00  0.00     0.038 A 
HETATM    3  C4  UNL     1      25.907   2.981  50.022  1.00  0.00     0.017 A 
HETATM    4  C5  UNL     1      24.740   3.443  50.581  1.00  0.00     0.006 A 
HETATM    5  C6  UNL     1      24.307   4.741  50.523  1.00  0.00     0.049 A 
HETATM    6  C7  UNL     1      25.150   5.597  49.841  1.00  0.00     0.067 A 
HETATM    7  N1  UNL     1      23.072   4.974  51.177  1.00  0.00    -0.322 N 
HETATM    8  C8  UNL     1      22.652   3.719  51.716  1.00  0.00     0.257 A 
HETATM    9  O2  UNL     1      21.551   3.689  52.358  1.00  0.00    -0.267 OA
HETATM   10  C9  UNL     1      23.702   2.774  51.336  1.00  0.00     0.044 A 
HETATM   11  H7  UNL     1      22.612   5.909  51.219  1.00  0.00     0.169 HD
ENDROOT
BRANCH  10  12
HETATM   12  C10 UNL     1      23.589   1.520  51.722  1.00  0.00     0.018 C 
BRANCH  12  13
HETATM   13  C11 UNL     1      23.917   0.662  52.817  1.00  0.00     0.004 C 
BRANCH  13  14
HETATM   14  C12 UNL     1      24.952  -0.070  53.139  1.00  0.00    -0.080 C 
HETATM   15  C13 UNL     1      24.585  -0.824  54.379  1.00  0.00     0.044 C 
BRANCH  14  16
HETATM   16  C14 UNL     1      26.190  -0.118  52.376  1.00  0.00     0.010 C 
HETATM   17  C15 UNL     1      26.844  -1.487  52.579  1.00  0.00     0.015 C 
BRANCH  16  18
HETATM   18  C16 UNL     1      27.180   0.956  52.540  1.00  0.00     0.019 C 
BRANCH  18  19
HETATM   19  C17 UNL     1      27.492   1.525  53.857  1.00  0.00     0.110 C 
BRANCH  19  20
HETATM   20  C18 UNL     1      28.742   2.289  53.992  1.00  0.00     0.139 C 
HETATM   21  O3  UNL     1      29.599   2.368  54.943  1.00  0.00    -0.650 OA
BRANCH  20  22
HETATM   22  O4  UNL     1      29.049   3.067  52.888  1.00  0.00    -0.776 OA
HETATM   23  H21 UNL     1      28.361   3.159  52.154  1.00  0.00     0.167 HD
ENDBRANCH  20  22
ENDBRANCH  19  20
ENDBRANCH  18  19
ENDBRANCH  16  18
ENDBRANCH  14  16
ENDBRANCH  13  14
ENDBRANCH  12  13
ENDBRANCH  10  12
BRANCH   1  24
HETATM   24  O1  UNL     1      27.214   5.996  48.571  1.00  0.00    -0.356 OA
HETATM   25  C1  UNL     1      27.180   7.380  48.853  1.00  0.00     0.210 C 
ENDBRANCH   1  24
TORSDOF 9
ENDMDL
MODEL 5
REMARK VINA RESULT:      -7.1      2.627      6.995
REMARK  9 active torsions:
REMARK  status: ('A' for Active; 'I' for Inactive)
REMARK    1  A    between atoms: O1_2  and  C2_3 
REMARK    2  A    between atoms: C9_12  and  C10_13 
REMARK    3  A    between atoms: C10_13  and  C11_14 
REMARK    4  A    between atoms: C11_14  and  C12_15 
REMARK    5  A    between atoms: C12_15  and  C14_17 
REMARK    6  A    between atoms: C14_17  and  C16_19 
REMARK    7  A    between atoms: C16_19  and  C17_20 
REMARK    8  A    between atoms: C17_20  and  C18_21 
REMARK    9  A    between atoms: C18_21  and  O4_23 
ROOT
HETATM    1  C2  UNL     1      19.186   0.329  51.460  1.00  0.00     0.070 A 
HETATM    2  C3  UNL     1      20.317   0.711  50.788  1.00  0.00     0.038 A 
HETATM    3  C4  UNL     1      21.540   0.422  51.409  1.00  0.00     0.017 A 
HETATM    4  C5  UNL     1      21.552  -0.215  52.627  1.00  0.00     0.006 A 
HETATM    5  C6  UNL     1      20.435  -0.607  53.313  1.00  0.00     0.049 A 
HETATM    6  C7  UNL     1      19.241  -0.311  52.684  1.00  0.00     0.067 A 
HETATM    7  N1  UNL     1      20.703  -1.244  54.551  1.00  0.00    -0.322 N 
HETATM    8  C8  UNL     1      22.124  -1.274  54.695  1.00  0.00     0.257 A 
HETATM    9  O2  UNL     1      22.601  -1.808  55.749  1.00  0.00    -0.267 OA
HETATM   10  C9  UNL     1      22.640  -0.630  53.487  1.00  0.00     0.044 A 
HETATM   11  H7  UNL     1      19.957  -1.600  55.187  1.00  0.00     0.169 HD
ENDROOT
BRANCH  10  12
HETATM   12  C10 UNL     1      23.943  -0.497  53.354  1.00  0.00     0.018 C 
BRANCH  12  13
HETATM   13  C11 UNL     1      24.958   0.510  53.305  1.00  0.00     0.004 C 
BRANCH  13  14
HETATM   14  C12 UNL     1      25.493   1.236  52.358  1.00  0.00    -0.080 C 
HETATM   15  C13 UNL     1      26.606   0.429  51.766  1.00  0.00     0.044 C 
BRANCH  14  16
HETATM   16  C14 UNL     1      25.029   2.563  51.982  1.00  0.00     0.010 C 
HETATM   17  C15 UNL     1      24.251   3.166  53.155  1.00  0.00     0.015 C 
BRANCH  16  18
HETATM   18  C16 UNL     1      24.288   2.739  50.726  1.00  0.00     0.019 C 
BRANCH  18  19
HETATM   19  C17 UNL     1      24.922   3.298  49.525  1.00  0.00     0.110 C 
BRANCH  19  20
HETATM   20  C18 UNL     1      26.113   4.141  49.712  1.00  0.00     0.139 C 
HETATM   21  O3  UNL     1      27.340   3.977  49.377  1.00  0.00    -0.650 OA
BRANCH  20  22
HETATM   22  O4  UNL     1      25.862   5.333  50.373  1.00  0.00    -0.776 OA
HETATM   23  H21 UNL     1      25.322   6.043  49.899  1.00  0.00     0.167 HD
ENDBRANCH  20  22
ENDBRANCH  19  20
ENDBRANCH  18  19
ENDBRANCH  16  18
ENDBRANCH  14  16
ENDBRANCH  13  14
ENDBRANCH  12  13
ENDBRANCH  10  12
BRANCH   1  24
HETATM   24  O1  UNL     1      18.010   0.650  50.788  1.00  0.00    -0.356 OA
HETATM   25  C1  UNL     1      17.028   1.380  51.495  1.00  0.00     0.210 C 
ENDBRANCH   1  24
TORSDOF 9
ENDMDL
MODEL 6
REMARK VINA RESULT:      -7.1      2.539      6.768
REMARK  9 active torsions:
REMARK  status: ('A' for Active; 'I' for Inactive)
REMARK    1  A    between atoms: O1_2  and  C2_3 
REMARK    2  A    between atoms: C9_12  and  C10_13 
REMARK    3  A    between atoms: C10_13  and  C11_14 
REMARK    4  A    between atoms: C11_14  and  C12_15 
REMARK    5  A    between atoms: C12_15  and  C14_17 
REMARK    6  A    between atoms: C14_17  and  C16_19 
REMARK    7  A    between atoms: C16_19  and  C17_20 
REMARK    8  A    between atoms: C17_20  and  C18_21 
REMARK    9  A    between atoms: C18_21  and  O4_23 
ROOT
HETATM    1  C2  UNL     1      18.195  -0.157  51.805  1.00  0.00     0.070 A 
HETATM    2  C3  UNL     1      19.109   0.593  51.115  1.00  0.00     0.038 A 
HETATM    3  C4  UNL     1      20.421   0.590  51.610  1.00  0.00     0.017 A 
HETATM    4  C5  UNL     1      20.724  -0.145  52.731  1.00  0.00     0.006 A 
HETATM    5  C6  UNL     1      19.826  -0.903  53.433  1.00  0.00     0.049 A 
HETATM    6  C7  UNL     1      18.541  -0.885  52.929  1.00  0.00     0.067 A 
HETATM    7  N1  UNL     1      20.377  -1.569  54.556  1.00  0.00    -0.322 N 
HETATM    8  C8  UNL     1      21.762  -1.218  54.600  1.00  0.00     0.257 A 
HETATM    9  O2  UNL     1      22.467  -1.708  55.543  1.00  0.00    -0.267 OA
HETATM   10  C9  UNL     1      21.963  -0.330  53.456  1.00  0.00     0.044 A 
HETATM   11  H7  UNL     1      19.821  -2.184  55.189  1.00  0.00     0.169 HD
ENDROOT
BRANCH  10  12
HETATM   12  C10 UNL     1      23.164   0.173  53.255  1.00  0.00     0.018 C 
BRANCH  12  13
HETATM   13  C11 UNL     1      23.807   1.391  52.872  1.00  0.00     0.004 C 
BRANCH  13  14
HETATM   14  C12 UNL     1      24.577   1.756  51.879  1.00  0.00    -0.080 C 
HETATM   15  C13 UNL     1      23.675   2.206  50.771  1.00  0.00     0.044 C 
BRANCH  14  16
HETATM   16  C14 UNL     1      26.031   1.731  51.918  1.00  0.00     0.010 C 
HETATM   17  C15 UNL     1      26.571   2.659  50.827  1.00  0.00     0.015 C 
BRANCH  16  18
HETATM   18  C16 UNL     1      26.730   0.440  51.891  1.00  0.00     0.019 C 
BRANCH  18  19
HETATM   19  C17 UNL     1      26.711  -0.474  53.039  1.00  0.00     0.110 C 
BRANCH  19  20
HETATM   20  C18 UNL     1      27.355  -0.023  54.283  1.00  0.00     0.139 C 
HETATM   21  O3  UNL     1      28.471  -0.335  54.832  1.00  0.00    -0.650 OA
BRANCH  20  22
HETATM   22  O4  UNL     1      26.618   0.913  54.991  1.00  0.00    -0.776 OA
HETATM   23  H21 UNL     1      25.722   1.200  54.625  1.00  0.00     0.167 HD
ENDBRANCH  20  22
ENDBRANCH  19  20
ENDBRANCH  18  19
ENDBRANCH  16  18
ENDBRANCH  14  16
ENDBRANCH  13  14
ENDBRANCH  12  13
ENDBRANCH  10  12
BRANCH   1  24
HETATM   24  O1  UNL     1      16.915  -0.106  51.260  1.00  0.00    -0.356 OA
HETATM   25  C1  UNL     1      16.790  -0.262  49.861  1.00  0.00     0.210 C 
ENDBRANCH   1  24
TORSDOF 9
ENDMDL
MODEL 7
REMARK VINA RESULT:      -7.0      2.403      4.097
REMARK  9 active torsions:
REMARK  status: ('A' for Active; 'I' for Inactive)
REMARK    1  A    between atoms: O1_2  and  C2_3 
REMARK    2  A    between atoms: C9_12  and  C10_13 
REMARK    3  A    between atoms: C10_13  and  C11_14 
REMARK    4  A    between atoms: C11_14  and  C12_15 
REMARK    5  A    between atoms: C12_15  and  C14_17 
REMARK    6  A    between atoms: C14_17  and  C16_19 
REMARK    7  A    between atoms: C16_19  and  C17_20 
REMARK    8  A    between atoms: C17_20  and  C18_21 
REMARK    9  A    between atoms: C18_21  and  O4_23 
ROOT
HETATM    1  C2  UNL     1      27.779  -0.645  53.615  1.00  0.00     0.070 A 
HETATM    2  C3  UNL     1      26.860  -1.365  52.900  1.00  0.00     0.038 A 
HETATM    3  C4  UNL     1      25.671  -0.702  52.565  1.00  0.00     0.017 A 
HETATM    4  C5  UNL     1      25.485   0.602  52.954  1.00  0.00     0.006 A 
HETATM    5  C6  UNL     1      26.391   1.340  53.667  1.00  0.00     0.049 A 
HETATM    6  C7  UNL     1      27.555   0.667  53.988  1.00  0.00     0.067 A 
HETATM    7  N1  UNL     1      25.971   2.663  53.953  1.00  0.00    -0.322 N 
HETATM    8  C8  UNL     1      24.671   2.812  53.378  1.00  0.00     0.257 A 
HETATM    9  O2  UNL     1      24.089   3.938  53.514  1.00  0.00    -0.267 OA
HETATM   10  C9  UNL     1      24.382   1.518  52.759  1.00  0.00     0.044 A 
HETATM   11  H7  UNL     1      26.550   3.347  54.486  1.00  0.00     0.169 HD
ENDROOT
BRANCH  10  12
HETATM   12  C10 UNL     1      23.221   1.355  52.159  1.00  0.00     0.018 C 
BRANCH  12  13
HETATM   13  C11 UNL     1      22.585   1.565  50.896  1.00  0.00     0.004 C 
BRANCH  13  14
HETATM   14  C12 UNL     1      22.241   2.617  50.199  1.00  0.00    -0.080 C 
HETATM   15  C13 UNL     1      21.132   3.291  50.945  1.00  0.00     0.044 C 
BRANCH  14  16
HETATM   16  C14 UNL     1      22.877   3.018  48.953  1.00  0.00     0.010 C 
HETATM   17  C15 UNL     1      22.373   2.110  47.827  1.00  0.00     0.015 C 
BRANCH  16  18
HETATM   18  C16 UNL     1      24.339   3.146  48.898  1.00  0.00     0.019 C 
BRANCH  18  19
HETATM   19  C17 UNL     1      25.087   3.908  49.905  1.00  0.00     0.110 C 
BRANCH  19  20
HETATM   20  C18 UNL     1      26.556   3.845  49.858  1.00  0.00     0.139 C 
HETATM   21  O3  UNL     1      27.398   4.169  48.947  1.00  0.00    -0.650 OA
BRANCH  20  22
HETATM   22  O4  UNL     1      27.136   3.342  51.012  1.00  0.00    -0.776 OA
HETATM   23  H21 UNL     1      28.058   2.933  50.950  1.00  0.00     0.167 HD
ENDBRANCH  20  22
ENDBRANCH  19  20
ENDBRANCH  18  19
ENDBRANCH  16  18
ENDBRANCH  14  16
ENDBRANCH  13  14
ENDBRANCH  12  13
ENDBRANCH  10  12
BRANCH   1  24
HETATM   24  O1  UNL     1      28.933  -1.365  53.916  1.00  0.00    -0.356 OA
HETATM   25  C1  UNL     1      30.177  -0.762  53.623  1.00  0.00     0.210 C 
ENDBRANCH   1  24
TORSDOF 9
ENDMDL
MODEL 8
REMARK VINA RESULT:      -6.9      2.331      6.902
REMARK  9 active torsions:
REMARK  status: ('A' for Active; 'I' for Inactive)
REMARK    1  A    between atoms: O1_2  and  C2_3 
REMARK    2  A    between atoms: C9_12  and  C10_13 
REMARK    3  A    between atoms: C10_13  and  C11_14 
REMARK    4  A    between atoms: C11_14  and  C12_15 
REMARK    5  A    between atoms: C12_15  and  C14_17 
REMARK    6  A    between atoms: C14_17  and  C16_19 
REMARK    7  A    between atoms: C16_19  and  C17_20 
REMARK    8  A    between atoms: C17_20  and  C18_21 
REMARK    9  A    between atoms: C18_21  and  O4_23 
ROOT
HETATM    1  C2  UNL     1      19.241   0.124  51.667  1.00  0.00     0.070 A 
HETATM    2  C3  UNL     1      20.300   0.548  50.910  1.00  0.00     0.038 A 
HETATM    3  C4  UNL     1      21.575   0.382  51.470  1.00  0.00     0.017 A 
HETATM    4  C5  UNL     1      21.703  -0.183  52.716  1.00  0.00     0.006 A 
HETATM    5  C6  UNL     1      20.658  -0.615  53.488  1.00  0.00     0.049 A 
HETATM    6  C7  UNL     1      19.412  -0.441  52.917  1.00  0.00     0.067 A 
HETATM    7  N1  UNL     1      21.042  -1.161  54.738  1.00  0.00    -0.322 N 
HETATM    8  C8  UNL     1      22.467  -1.082  54.798  1.00  0.00     0.257 A 
HETATM    9  O2  UNL     1      23.041  -1.520  55.848  1.00  0.00    -0.267 OA
HETATM   10  C9  UNL     1      22.865  -0.470  53.529  1.00  0.00     0.044 A 
HETATM   11  H7  UNL     1      20.362  -1.534  55.435  1.00  0.00     0.169 HD
ENDROOT
BRANCH  10  12
HETATM   12  C10 UNL     1      24.145  -0.252  53.312  1.00  0.00     0.018 C 
BRANCH  12  13
HETATM   13  C11 UNL     1      25.435  -0.673  53.761  1.00  0.00     0.004 C 
BRANCH  13  14
HETATM   14  C12 UNL     1      26.633  -0.699  53.236  1.00  0.00    -0.080 C 
HETATM   15  C13 UNL     1      26.732  -1.965  52.441  1.00  0.00     0.044 C 
BRANCH  14  16
HETATM   16  C14 UNL     1      27.627   0.349  53.409  1.00  0.00     0.010 C 
HETATM   17  C15 UNL     1      28.258   0.208  54.797  1.00  0.00     0.015 C 
BRANCH  16  18
HETATM   18  C16 UNL     1      27.254   1.746  53.150  1.00  0.00     0.019 C 
BRANCH  18  19
HETATM   19  C17 UNL     1      26.856   2.205  51.814  1.00  0.00     0.110 C 
BRANCH  19  20
HETATM   20  C18 UNL     1      25.476   2.684  51.638  1.00  0.00     0.139 C 
HETATM   21  O3  UNL     1      24.680   2.653  50.633  1.00  0.00    -0.650 OA
BRANCH  20  22
HETATM   22  O4  UNL     1      24.938   3.280  52.768  1.00  0.00    -0.776 OA
HETATM   23  H21 UNL     1      24.790   4.279  52.763  1.00  0.00     0.167 HD
ENDBRANCH  20  22
ENDBRANCH  19  20
ENDBRANCH  18  19
ENDBRANCH  16  18
ENDBRANCH  14  16
ENDBRANCH  13  14
ENDBRANCH  12  13
ENDBRANCH  10  12
BRANCH   1  24
HETATM   24  O1  UNL     1      18.007   0.321  51.051  1.00  0.00    -0.356 OA
HETATM   25  C1  UNL     1      16.858   0.333  51.873  1.00  0.00     0.210 C 
ENDBRANCH   1  24
TORSDOF 9
ENDMDL
MODEL 9
REMARK VINA RESULT:      -6.9      2.151      5.484
REMARK  9 active torsions:
REMARK  status: ('A' for Active; 'I' for Inactive)
REMARK    1  A    between atoms: O1_2  and  C2_3 
REMARK    2  A    between atoms: C9_12  and  C10_13 
REMARK    3  A    between atoms: C10_13  and  C11_14 
REMARK    4  A    between atoms: C11_14  and  C12_15 
REMARK    5  A    between atoms: C12_15  and  C14_17 
REMARK    6  A    between atoms: C14_17  and  C16_19 
REMARK    7  A    between atoms: C16_19  and  C17_20 
REMARK    8  A    between atoms: C17_20  and  C18_21 
REMARK    9  A    between atoms: C18_21  and  O4_23 
ROOT
HETATM    1  C2  UNL     1      22.580  -0.327  53.678  1.00  0.00     0.070 A 
HETATM    2  C3  UNL     1      22.480   0.679  52.755  1.00  0.00     0.038 A 
HETATM    3  C4  UNL     1      23.686   1.187  52.252  1.00  0.00     0.017 A 
HETATM    4  C5  UNL     1      24.880   0.669  52.692  1.00  0.00     0.006 A 
HETATM    5  C6  UNL     1      25.001  -0.338  53.612  1.00  0.00     0.049 A 
HETATM    6  C7  UNL     1      23.801  -0.823  54.095  1.00  0.00     0.067 A 
HETATM    7  N1  UNL     1      26.339  -0.700  53.908  1.00  0.00    -0.322 N 
HETATM    8  C8  UNL     1      27.176   0.143  53.113  1.00  0.00     0.257 A 
HETATM    9  O2  UNL     1      28.437  -0.006  53.218  1.00  0.00    -0.267 OA
HETATM   10  C9  UNL     1      26.251   0.991  52.360  1.00  0.00     0.044 A 
HETATM   11  H7  UNL     1      26.595  -1.449  54.587  1.00  0.00     0.169 HD
ENDROOT
BRANCH  10  12
HETATM   12  C10 UNL     1      26.751   1.896  51.545  1.00  0.00     0.018 C 
BRANCH  12  13
HETATM   13  C11 UNL     1      26.531   2.470  50.254  1.00  0.00     0.004 C 
BRANCH  13  14
HETATM   14  C12 UNL     1      25.968   3.567  49.816  1.00  0.00    -0.080 C 
HETATM   15  C13 UNL     1      27.027   4.342  49.094  1.00  0.00     0.044 C 
BRANCH  14  16
HETATM   16  C14 UNL     1      24.564   3.900  50.005  1.00  0.00     0.010 C 
HETATM   17  C15 UNL     1      23.733   3.155  48.957  1.00  0.00     0.015 C 
BRANCH  16  18
HETATM   18  C16 UNL     1      24.161   5.310  50.077  1.00  0.00     0.019 C 
BRANCH  18  19
HETATM   19  C17 UNL     1      23.941   5.987  51.361  1.00  0.00     0.110 C 
BRANCH  19  20
HETATM   20  C18 UNL     1      23.266   5.229  52.427  1.00  0.00     0.139 C 
HETATM   21  O3  UNL     1      22.195   4.524  52.429  1.00  0.00    -0.650 OA
BRANCH  20  22
HETATM   22  O4  UNL     1      23.907   5.289  53.654  1.00  0.00    -0.776 OA
HETATM   23  H21 UNL     1      24.132   6.196  54.038  1.00  0.00     0.167 HD
ENDBRANCH  20  22
ENDBRANCH  19  20
ENDBRANCH  18  19
ENDBRANCH  16  18
ENDBRANCH  14  16
ENDBRANCH  13  14
ENDBRANCH  12  13
ENDBRANCH  10  12
BRANCH   1  24
HETATM   24  O1  UNL     1      21.346  -0.782  54.136  1.00  0.00    -0.356 OA
HETATM   25  C1  UNL     1      20.188  -0.124  53.665  1.00  0.00     0.210 C 
ENDBRANCH   1  24
TORSDOF 9
ENDMDL
