MODEL 1
REMARK VINA RESULT:      -9.1      0.000      0.000
REMARK  5 active torsions:
REMARK  status: ('A' for Active; 'I' for Inactive)
REMARK    1  A    between atoms: O1_1  and  C1_2 
REMARK    2  A    between atoms: C3_5  and  N1_6 
REMARK    3  A    between atoms: N2_9  and  C6_10 
REMARK    4  A    between atoms: C6_10  and  C7_11 
REMARK    5  A    between atoms: C12_16  and  C13_17 
ROOT
HETATM    1  C6  UNL     1      23.809   1.400  52.029  1.00  0.00     0.149 C 
ENDROOT
BRANCH   1   2
HETATM    2  N2  UNL     1      22.802   2.211  51.363  1.00  0.00    -0.228 NA
HETATM    3  C5  UNL     1      22.481   3.397  52.138  1.00  0.00     0.131 C 
HETATM    4  C4  UNL     1      23.690   4.249  51.887  1.00  0.00     0.162 C 
HETATM    5  N1  UNL     1      24.082   3.813  50.537  1.00  0.00    -0.275 N 
HETATM    6  N3  UNL     1      23.328   2.718  50.188  1.00  0.00    -0.164 NA
HETATM    7  H17 UNL     1      23.756   2.031  49.562  1.00  0.00     0.167 HD
BRANCH   5   8
HETATM    8  C3  UNL     1      25.101   4.528  49.847  1.00  0.00     0.186 A 
HETATM    9  S1  UNL     1      24.621   6.103  48.998  1.00  0.00    -0.058 SA
HETATM   10  C2  UNL     1      26.403   6.363  48.400  1.00  0.00     0.111 A 
HETATM   11  C1  UNL     1      27.024   5.235  48.941  1.00  0.00     0.171 A 
HETATM   12  N4  UNL     1      26.258   4.420  49.629  1.00  0.00    -0.199 NA
BRANCH  11  13
HETATM   13  O1  UNL     1      28.378   4.835  48.857  1.00  0.00    -0.344 OA
HETATM   14  H1  UNL     1      29.042   5.109  49.569  1.00  0.00     0.219 HD
ENDBRANCH  11  13
ENDBRANCH   5   8
ENDBRANCH   1   2
BRANCH   1  15
HETATM   15  C7  UNL     1      23.243   0.512  53.043  1.00  0.00    -0.033 A 
HETATM   16  C8  UNL     1      21.881   0.399  53.226  1.00  0.00     0.009 A 
HETATM   17  C9  UNL     1      21.280  -0.440  54.142  1.00  0.00     0.001 A 
HETATM   18  C10 UNL     1      22.138  -1.218  54.926  1.00  0.00     0.001 A 
HETATM   19  C11 UNL     1      23.493  -1.114  54.753  1.00  0.00     0.013 A 
HETATM   20  C12 UNL     1      24.078  -0.255  53.817  1.00  0.00    -0.018 A 
BRANCH  20  21
HETATM   21  C13 UNL     1      25.529  -0.270  53.825  1.00  0.00    -0.025 A 
HETATM   22  C14 UNL     1      26.118  -1.123  52.885  1.00  0.00     0.014 A 
HETATM   23  C15 UNL     1      27.507  -1.253  52.801  1.00  0.00     0.024 A 
HETATM   24  C16 UNL     1      28.317  -0.532  53.653  1.00  0.00     0.034 A 
HETATM   25 CL1  UNL     1      30.082  -0.622  53.634  1.00  0.00    -0.084 Cl
HETATM   26  C17 UNL     1      27.771   0.308  54.580  1.00  0.00     0.024 A 
HETATM   27  C18 UNL     1      26.406   0.404  54.629  1.00  0.00     0.014 A 
ENDBRANCH  20  21
ENDBRANCH   1  15
TORSDOF 5
ENDMDL
MODEL 2
REMARK VINA RESULT:      -9.1      2.109      2.706
REMARK  5 active torsions:
REMARK  status: ('A' for Active; 'I' for Inactive)
REMARK    1  A    between atoms: O1_1  and  C1_2 
REMARK    2  A    between atoms: C3_5  and  N1_6 
REMARK    3  A    between atoms: N2_9  and  C6_10 
REMARK    4  A    between atoms: C6_10  and  C7_11 
REMARK    5  A    between atoms: C12_16  and  C13_17 
ROOT
HETATM    1  C6  UNL     1      24.000   1.406  51.960  1.00  0.00     0.149 C 
ENDROOT
BRANCH   1   2
HETATM    2  N2  UNL     1      25.037   2.297  52.457  1.00  0.00    -0.228 NA
HETATM    3  C5  UNL     1      26.004   2.613  51.420  1.00  0.00     0.131 C 
HETATM    4  C4  UNL     1      25.227   3.583  50.580  1.00  0.00     0.162 C 
HETATM    5  N1  UNL     1      24.353   4.209  51.585  1.00  0.00    -0.275 N 
HETATM    6  N3  UNL     1      24.475   3.522  52.769  1.00  0.00    -0.164 NA
HETATM    7  H17 UNL     1      23.658   3.490  53.383  1.00  0.00     0.167 HD
BRANCH   5   8
HETATM    8  C3  UNL     1      23.572   5.341  51.216  1.00  0.00     0.186 A 
HETATM    9  S1  UNL     1      21.737   5.227  51.438  1.00  0.00    -0.058 SA
HETATM   10  C2  UNL     1      21.513   6.988  50.767  1.00  0.00     0.111 A 
HETATM   11  C1  UNL     1      22.839   7.334  50.503  1.00  0.00     0.171 A 
HETATM   12  N4  UNL     1      23.746   6.423  50.773  1.00  0.00    -0.199 NA
BRANCH  11  13
HETATM   13  O1  UNL     1      23.360   8.540  49.981  1.00  0.00    -0.344 OA
HETATM   14  H1  UNL     1      23.367   9.384  50.539  1.00  0.00     0.219 HD
ENDBRANCH  11  13
ENDBRANCH   5   8
ENDBRANCH   1   2
BRANCH   1  15
HETATM   15  C7  UNL     1      23.379   0.611  53.017  1.00  0.00    -0.033 A 
HETATM   16  C8  UNL     1      22.026   0.684  53.276  1.00  0.00     0.009 A 
HETATM   17  C9  UNL     1      21.371  -0.058  54.238  1.00  0.00     0.001 A 
HETATM   18  C10 UNL     1      22.160  -0.937  54.986  1.00  0.00     0.001 A 
HETATM   19  C11 UNL     1      23.505  -1.018  54.737  1.00  0.00     0.013 A 
HETATM   20  C12 UNL     1      24.146  -0.254  53.757  1.00  0.00    -0.018 A 
BRANCH  20  21
HETATM   21  C13 UNL     1      25.580  -0.464  53.686  1.00  0.00    -0.025 A 
HETATM   22  C14 UNL     1      26.325   0.192  54.672  1.00  0.00     0.014 A 
HETATM   23  C15 UNL     1      27.719   0.096  54.706  1.00  0.00     0.024 A 
HETATM   24  C16 UNL     1      28.378  -0.656  53.757  1.00  0.00     0.034 A 
HETATM   25 CL1  UNL     1      30.135  -0.844  53.705  1.00  0.00    -0.084 Cl
HETATM   26  C17 UNL     1      27.679  -1.308  52.782  1.00  0.00     0.024 A 
HETATM   27  C18 UNL     1      26.315  -1.186  52.786  1.00  0.00     0.014 A 
ENDBRANCH  20  21
ENDBRANCH   1  15
TORSDOF 5
ENDMDL
MODEL 3
REMARK VINA RESULT:      -8.6      4.236      7.291
REMARK  5 active torsions:
REMARK  status: ('A' for Active; 'I' for Inactive)
REMARK    1  A    between atoms: O1_1  and  C1_2 
REMARK    2  A    between atoms: C3_5  and  N1_6 
REMARK    3  A    between atoms: N2_9  and  C6_10 
REMARK    4  A    between atoms: C6_10  and  C7_11 
REMARK    5  A    between atoms: C12_16  and  C13_17 
ROOT
HETATM    1  C6  UNL     1      25.373   2.413  50.822  1.00  0.00     0.149 C 
ENDROOT
BRANCH   1   2
HETATM    2  N2  UNL     1      25.377   2.669  52.254  1.00  0.00    -0.228 NA
HETATM    3  C5  UNL     1      24.416   1.827  52.945  1.00  0.00     0.131 C 
HETATM    4  C4  UNL     1      25.120   0.502  52.929  1.00  0.00     0.162 C 
HETATM    5  N1  UNL     1      26.531   0.919  52.956  1.00  0.00    -0.275 N 
HETATM    6  N3  UNL     1      26.595   2.281  52.784  1.00  0.00    -0.164 NA
HETATM    7  H17 UNL     1      27.422   2.659  52.315  1.00  0.00     0.167 HD
BRANCH   5   8
HETATM    8  C3  UNL     1      27.541  -0.068  53.139  1.00  0.00     0.186 A 
HETATM    9  S1  UNL     1      29.197   0.501  53.744  1.00  0.00    -0.058 SA
HETATM   10  C2  UNL     1      29.858  -1.278  53.706  1.00  0.00     0.111 A 
HETATM   11  C1  UNL     1      28.730  -1.963  53.254  1.00  0.00     0.171 A 
HETATM   12  N4  UNL     1      27.662  -1.236  53.015  1.00  0.00    -0.199 NA
BRANCH  11  13
HETATM   13  O1  UNL     1      28.562  -3.346  53.011  1.00  0.00    -0.344 OA
HETATM   14  H1  UNL     1      28.701  -3.728  52.085  1.00  0.00     0.219 HD
ENDBRANCH  11  13
ENDBRANCH   5   8
ENDBRANCH   1   2
BRANCH   1  15
HETATM   15  C7  UNL     1      25.082   3.607  50.032  1.00  0.00    -0.033 A 
HETATM   16  C8  UNL     1      26.052   4.549  49.762  1.00  0.00     0.009 A 
HETATM   17  C9  UNL     1      25.853   5.682  49.000  1.00  0.00     0.001 A 
HETATM   18  C10 UNL     1      24.568   5.861  48.479  1.00  0.00     0.001 A 
HETATM   19  C11 UNL     1      23.596   4.932  48.741  1.00  0.00     0.013 A 
HETATM   20  C12 UNL     1      23.822   3.791  49.517  1.00  0.00    -0.018 A 
BRANCH  20  21
HETATM   21  C13 UNL     1      22.648   2.959  49.704  1.00  0.00    -0.025 A 
HETATM   22  C14 UNL     1      21.811   3.345  50.757  1.00  0.00     0.014 A 
HETATM   23  C15 UNL     1      20.658   2.617  51.064  1.00  0.00     0.024 A 
HETATM   24  C16 UNL     1      20.332   1.501  50.322  1.00  0.00     0.034 A 
HETATM   25 CL1  UNL     1      18.902   0.508  50.624  1.00  0.00    -0.084 Cl
HETATM   26  C17 UNL     1      21.130   1.101  49.289  1.00  0.00     0.024 A 
HETATM   27  C18 UNL     1      22.250   1.842  49.023  1.00  0.00     0.014 A 
ENDBRANCH  20  21
ENDBRANCH   1  15
TORSDOF 5
ENDMDL
MODEL 4
REMARK VINA RESULT:      -8.6      2.270      2.549
REMARK  5 active torsions:
REMARK  status: ('A' for Active; 'I' for Inactive)
REMARK    1  A    between atoms: O1_1  and  C1_2 
REMARK    2  A    between atoms: C3_5  and  N1_6 
REMARK    3  A    between atoms: N2_9  and  C6_10 
REMARK    4  A    between atoms: C6_10  and  C7_11 
REMARK    5  A    between atoms: C12_16  and  C13_17 
ROOT
HETATM    1  C6  UNL     1      23.632   1.267  52.016  1.00  0.00     0.149 C 
ENDROOT
BRANCH   1   2
HETATM    2  N2  UNL     1      23.442   2.677  52.318  1.00  0.00    -0.228 NA
HETATM    3  C5  UNL     1      24.655   3.438  52.073  1.00  0.00     0.131 C 
HETATM    4  C4  UNL     1      24.664   3.505  50.575  1.00  0.00     0.162 C 
HETATM    5  N1  UNL     1      23.224   3.483  50.271  1.00  0.00    -0.275 N 
HETATM    6  N3  UNL     1      22.530   3.216  51.427  1.00  0.00    -0.164 NA
HETATM    7  H17 UNL     1      21.645   2.710  51.340  1.00  0.00     0.167 HD
BRANCH   5   8
HETATM    8  C3  UNL     1      22.794   3.721  48.934  1.00  0.00     0.186 A 
HETATM    9  S1  UNL     1      22.240   2.262  47.938  1.00  0.00    -0.058 SA
HETATM   10  C2  UNL     1      21.880   3.376  46.445  1.00  0.00     0.111 A 
HETATM   11  C1  UNL     1      22.237   4.623  46.961  1.00  0.00     0.171 A 
HETATM   12  N4  UNL     1      22.671   4.639  48.201  1.00  0.00    -0.199 NA
BRANCH  11  13
HETATM   13  O1  UNL     1      22.199   5.891  46.338  1.00  0.00    -0.344 OA
HETATM   14  H1  UNL     1      22.451   5.995  45.363  1.00  0.00     0.219 HD
ENDBRANCH  11  13
ENDBRANCH   5   8
ENDBRANCH   1   2
BRANCH   1  15
HETATM   15  C7  UNL     1      23.119   0.388  53.065  1.00  0.00    -0.033 A 
HETATM   16  C8  UNL     1      21.765   0.231  53.278  1.00  0.00     0.009 A 
HETATM   17  C9  UNL     1      21.213  -0.604  54.229  1.00  0.00     0.001 A 
HETATM   18  C10 UNL     1      22.115  -1.328  55.016  1.00  0.00     0.001 A 
HETATM   19  C11 UNL     1      23.461  -1.180  54.813  1.00  0.00     0.013 A 
HETATM   20  C12 UNL     1      23.996  -0.327  53.843  1.00  0.00    -0.018 A 
BRANCH  20  21
HETATM   21  C13 UNL     1      25.447  -0.289  53.822  1.00  0.00    -0.025 A 
HETATM   22  C14 UNL     1      26.049  -1.161  52.907  1.00  0.00     0.014 A 
HETATM   23  C15 UNL     1      27.440  -1.244  52.800  1.00  0.00     0.024 A 
HETATM   24  C16 UNL     1      28.239  -0.458  53.604  1.00  0.00     0.034 A 
HETATM   25 CL1  UNL     1      30.005  -0.484  53.553  1.00  0.00    -0.084 Cl
HETATM   26  C17 UNL     1      27.680   0.402  54.505  1.00  0.00     0.024 A 
HETATM   27  C18 UNL     1      26.313   0.451  54.578  1.00  0.00     0.014 A 
ENDBRANCH  20  21
ENDBRANCH   1  15
TORSDOF 5
ENDMDL
MODEL 5
REMARK VINA RESULT:      -8.2      4.488      6.588
REMARK  5 active torsions:
REMARK  status: ('A' for Active; 'I' for Inactive)
REMARK    1  A    between atoms: O1_1  and  C1_2 
REMARK    2  A    between atoms: C3_5  and  N1_6 
REMARK    3  A    between atoms: N2_9  and  C6_10 
REMARK    4  A    between atoms: C6_10  and  C7_11 
REMARK    5  A    between atoms: C12_16  and  C13_17 
ROOT
HETATM    1  C6  UNL     1      23.333  -0.065  53.843  1.00  0.00     0.149 C 
ENDROOT
BRANCH   1   2
HETATM    2  N2  UNL     1      22.560  -1.170  53.299  1.00  0.00    -0.228 NA
HETATM    3  C5  UNL     1      21.583  -1.655  54.259  1.00  0.00     0.131 C 
HETATM    4  C4  UNL     1      20.546  -0.573  54.196  1.00  0.00     0.162 C 
HETATM    5  N1  UNL     1      20.680  -0.118  52.803  1.00  0.00    -0.275 N 
HETATM    6  N3  UNL     1      21.787  -0.713  52.246  1.00  0.00    -0.164 NA
HETATM    7  H17 UNL     1      22.289  -0.191  51.523  1.00  0.00     0.167 HD
BRANCH   5   8
HETATM    8  C3  UNL     1      19.723   0.797  52.278  1.00  0.00     0.186 A 
HETATM    9  S1  UNL     1      18.256   0.092  51.393  1.00  0.00    -0.058 SA
HETATM   10  C2  UNL     1      17.578   1.833  51.063  1.00  0.00     0.111 A 
HETATM   11  C1  UNL     1      18.563   2.614  51.670  1.00  0.00     0.171 A 
HETATM   12  N4  UNL     1      19.561   1.966  52.227  1.00  0.00    -0.199 NA
BRANCH  11  13
HETATM   13  O1  UNL     1      18.648   4.021  51.776  1.00  0.00    -0.344 OA
HETATM   14  H1  UNL     1      19.076   4.453  52.584  1.00  0.00     0.219 HD
ENDBRANCH  11  13
ENDBRANCH   5   8
ENDBRANCH   1   2
BRANCH   1  15
HETATM   15  C7  UNL     1      24.666   0.040  53.253  1.00  0.00    -0.033 A 
HETATM   16  C8  UNL     1      25.639  -0.907  53.492  1.00  0.00     0.009 A 
HETATM   17  C9  UNL     1      26.906  -0.885  52.945  1.00  0.00     0.001 A 
HETATM   18  C10 UNL     1      27.193   0.185  52.092  1.00  0.00     0.001 A 
HETATM   19  C11 UNL     1      26.234   1.132  51.846  1.00  0.00     0.013 A 
HETATM   20  C12 UNL     1      24.957   1.087  52.414  1.00  0.00    -0.018 A 
BRANCH  20  21
HETATM   21  C13 UNL     1      24.109   2.209  52.054  1.00  0.00    -0.025 A 
HETATM   22  C14 UNL     1      24.205   3.320  52.900  1.00  0.00     0.014 A 
HETATM   23  C15 UNL     1      23.426   4.460  52.684  1.00  0.00     0.024 A 
HETATM   24  C16 UNL     1      22.548   4.499  51.622  1.00  0.00     0.034 A 
HETATM   25 CL1  UNL     1      21.515   5.887  51.257  1.00  0.00    -0.084 Cl
HETATM   26  C17 UNL     1      22.432   3.431  50.779  1.00  0.00     0.024 A 
HETATM   27  C18 UNL     1      23.213   2.335  51.029  1.00  0.00     0.014 A 
ENDBRANCH  20  21
ENDBRANCH   1  15
TORSDOF 5
ENDMDL
MODEL 6
REMARK VINA RESULT:      -8.1      4.173      7.925
REMARK  5 active torsions:
REMARK  status: ('A' for Active; 'I' for Inactive)
REMARK    1  A    between atoms: O1_1  and  C1_2 
REMARK    2  A    between atoms: C3_5  and  N1_6 
REMARK    3  A    between atoms: N2_9  and  C6_10 
REMARK    4  A    between atoms: C6_10  and  C7_11 
REMARK    5  A    between atoms: C12_16  and  C13_17 
ROOT
HETATM    1  C6  UNL     1      25.299   3.136  50.001  1.00  0.00     0.149 C 
ENDROOT
BRANCH   1   2
HETATM    2  N2  UNL     1      24.979   3.354  51.404  1.00  0.00    -0.228 NA
HETATM    3  C5  UNL     1      23.864   2.525  51.826  1.00  0.00     0.131 C 
HETATM    4  C4  UNL     1      24.518   1.179  51.928  1.00  0.00     0.162 C 
HETATM    5  N1  UNL     1      25.895   1.548  52.292  1.00  0.00    -0.275 N 
HETATM    6  N3  UNL     1      26.032   2.912  52.186  1.00  0.00    -0.164 NA
HETATM    7  H17 UNL     1      26.954   3.275  51.932  1.00  0.00     0.167 HD
BRANCH   5   8
HETATM    8  C3  UNL     1      26.810   0.525  52.670  1.00  0.00     0.186 A 
HETATM    9  S1  UNL     1      28.390   1.043  53.485  1.00  0.00    -0.058 SA
HETATM   10  C2  UNL     1      28.947  -0.765  53.630  1.00  0.00     0.111 A 
HETATM   11  C1  UNL     1      27.859  -1.418  53.048  1.00  0.00     0.171 A 
HETATM   12  N4  UNL     1      26.880  -0.654  52.620  1.00  0.00    -0.199 NA
BRANCH  11  13
HETATM   13  O1  UNL     1      27.651  -2.802  52.848  1.00  0.00    -0.344 OA
HETATM   14  H1  UNL     1      27.773  -3.216  51.934  1.00  0.00     0.219 HD
ENDBRANCH  11  13
ENDBRANCH   5   8
ENDBRANCH   1   2
BRANCH   1  15
HETATM   15  C7  UNL     1      25.983   4.275  49.392  1.00  0.00    -0.033 A 
HETATM   16  C8  UNL     1      27.337   4.249  49.129  1.00  0.00     0.009 A 
HETATM   17  C9  UNL     1      28.039   5.275  48.530  1.00  0.00     0.001 A 
HETATM   18  C10 UNL     1      27.299   6.407  48.175  1.00  0.00     0.001 A 
HETATM   19  C11 UNL     1      25.953   6.444  48.430  1.00  0.00     0.013 A 
HETATM   20  C12 UNL     1      25.265   5.391  49.040  1.00  0.00    -0.018 A 
BRANCH  20  21
HETATM   21  C13 UNL     1      23.853   5.651  49.255  1.00  0.00    -0.025 A 
HETATM   22  C14 UNL     1      23.016   5.291  48.192  1.00  0.00     0.014 A 
HETATM   23  C15 UNL     1      21.637   5.510  48.256  1.00  0.00     0.024 A 
HETATM   24  C16 UNL     1      21.084   6.087  49.380  1.00  0.00     0.034 A 
HETATM   25 CL1  UNL     1      19.357   6.410  49.565  1.00  0.00    -0.084 Cl
HETATM   26  C17 UNL     1      21.876   6.449  50.432  1.00  0.00     0.024 A 
HETATM   27  C18 UNL     1      23.222   6.218  50.327  1.00  0.00     0.014 A 
ENDBRANCH  20  21
ENDBRANCH   1  15
TORSDOF 5
ENDMDL
MODEL 7
REMARK VINA RESULT:      -8.1      3.219      5.014
REMARK  5 active torsions:
REMARK  status: ('A' for Active; 'I' for Inactive)
REMARK    1  A    between atoms: O1_1  and  C1_2 
REMARK    2  A    between atoms: C3_5  and  N1_6 
REMARK    3  A    between atoms: N2_9  and  C6_10 
REMARK    4  A    between atoms: C6_10  and  C7_11 
REMARK    5  A    between atoms: C12_16  and  C13_17 
ROOT
HETATM    1  C6  UNL     1      24.671   3.570  51.114  1.00  0.00     0.149 C 
ENDROOT
BRANCH   1   2
HETATM    2  N2  UNL     1      24.716   3.604  49.660  1.00  0.00    -0.228 NA
HETATM    3  C5  UNL     1      23.554   4.281  49.111  1.00  0.00     0.131 C 
HETATM    4  C4  UNL     1      23.885   5.715  49.402  1.00  0.00     0.162 C 
HETATM    5  N1  UNL     1      25.355   5.696  49.342  1.00  0.00    -0.275 N 
HETATM    6  N3  UNL     1      25.779   4.392  49.254  1.00  0.00    -0.164 NA
HETATM    7  H17 UNL     1      26.685   4.161  49.669  1.00  0.00     0.167 HD
BRANCH   5   8
HETATM    8  C3  UNL     1      26.066   6.929  49.383  1.00  0.00     0.186 A 
HETATM    9  S1  UNL     1      26.837   7.529  47.809  1.00  0.00    -0.058 SA
HETATM   10  C2  UNL     1      27.507   9.072  48.686  1.00  0.00     0.111 A 
HETATM   11  C1  UNL     1      27.035   8.858  49.983  1.00  0.00     0.171 A 
HETATM   12  N4  UNL     1      26.341   7.760  50.177  1.00  0.00    -0.199 NA
BRANCH  11  13
HETATM   13  O1  UNL     1      27.195   9.661  51.135  1.00  0.00    -0.344 OA
HETATM   14  H1  UNL     1      26.390  10.026  51.626  1.00  0.00     0.219 HD
ENDBRANCH  11  13
ENDBRANCH   5   8
ENDBRANCH   1   2
BRANCH   1  15
HETATM   15  C7  UNL     1      25.300   2.376  51.674  1.00  0.00    -0.033 A 
HETATM   16  C8  UNL     1      26.662   2.304  51.879  1.00  0.00     0.009 A 
HETATM   17  C9  UNL     1      27.315   1.220  52.430  1.00  0.00     0.001 A 
HETATM   18  C10 UNL     1      26.514   0.134  52.796  1.00  0.00     0.001 A 
HETATM   19  C11 UNL     1      25.160   0.194  52.597  1.00  0.00     0.013 A 
HETATM   20  C12 UNL     1      24.521   1.304  52.036  1.00  0.00    -0.018 A 
BRANCH  20  21
HETATM   21  C13 UNL     1      23.087   1.145  51.876  1.00  0.00    -0.025 A 
HETATM   22  C14 UNL     1      22.369   1.015  53.070  1.00  0.00     0.014 A 
HETATM   23  C15 UNL     1      20.984   0.830  53.061  1.00  0.00     0.024 A 
HETATM   24  C16 UNL     1      20.306   0.775  51.861  1.00  0.00     0.034 A 
HETATM   25 CL1  UNL     1      18.559   0.544  51.734  1.00  0.00    -0.084 Cl
HETATM   26  C17 UNL     1      20.980   0.899  50.680  1.00  0.00     0.024 A 
HETATM   27  C18 UNL     1      22.337   1.078  50.735  1.00  0.00     0.014 A 
ENDBRANCH  20  21
ENDBRANCH   1  15
TORSDOF 5
ENDMDL
MODEL 8
REMARK VINA RESULT:      -7.9      4.508      7.117
REMARK  5 active torsions:
REMARK  status: ('A' for Active; 'I' for Inactive)
REMARK    1  A    between atoms: O1_1  and  C1_2 
REMARK    2  A    between atoms: C3_5  and  N1_6 
REMARK    3  A    between atoms: N2_9  and  C6_10 
REMARK    4  A    between atoms: C6_10  and  C7_11 
REMARK    5  A    between atoms: C12_16  and  C13_17 
ROOT
HETATM    1  C6  UNL     1      24.021   6.573  48.738  1.00  0.00     0.149 C 
ENDROOT
BRANCH   1   2
HETATM    2  N2  UNL     1      23.730   7.276  49.978  1.00  0.00    -0.228 NA
HETATM    3  C5  UNL     1      22.645   8.226  49.805  1.00  0.00     0.131 C 
HETATM    4  C4  UNL     1      21.457   7.311  49.756  1.00  0.00     0.162 C 
HETATM    5  N1  UNL     1      21.905   6.201  50.612  1.00  0.00    -0.275 N 
HETATM    6  N3  UNL     1      23.236   6.377  50.907  1.00  0.00    -0.164 NA
HETATM    7  H17 UNL     1      23.802   5.538  51.055  1.00  0.00     0.167 HD
BRANCH   5   8
HETATM    8  C3  UNL     1      20.973   5.189  50.978  1.00  0.00     0.186 A 
HETATM    9  S1  UNL     1      19.416   5.055  49.985  1.00  0.00    -0.058 SA
HETATM   10  C2  UNL     1      18.821   3.602  51.050  1.00  0.00     0.111 A 
HETATM   11  C1  UNL     1      19.887   3.484  51.945  1.00  0.00     0.171 A 
HETATM   12  N4  UNL     1      20.877   4.334  51.789  1.00  0.00    -0.199 NA
BRANCH  11  13
HETATM   13  O1  UNL     1      20.062   2.571  53.009  1.00  0.00    -0.344 OA
HETATM   14  H1  UNL     1      19.912   2.860  53.967  1.00  0.00     0.219 HD
ENDBRANCH  11  13
ENDBRANCH   5   8
ENDBRANCH   1   2
BRANCH   1  15
HETATM   15  C7  UNL     1      25.362   5.994  48.714  1.00  0.00    -0.033 A 
HETATM   16  C8  UNL     1      26.468   6.745  48.373  1.00  0.00     0.009 A 
HETATM   17  C9  UNL     1      27.764   6.270  48.359  1.00  0.00     0.001 A 
HETATM   18  C10 UNL     1      27.936   4.930  48.721  1.00  0.00     0.001 A 
HETATM   19  C11 UNL     1      26.846   4.175  49.063  1.00  0.00     0.013 A 
HETATM   20  C12 UNL     1      25.542   4.680  49.068  1.00  0.00    -0.018 A 
BRANCH  20  21
HETATM   21  C13 UNL     1      24.529   3.702  49.422  1.00  0.00    -0.025 A 
HETATM   22  C14 UNL     1      24.711   3.083  50.664  1.00  0.00     0.014 A 
HETATM   23  C15 UNL     1      23.824   2.104  51.118  1.00  0.00     0.024 A 
HETATM   24  C16 UNL     1      22.749   1.736  50.336  1.00  0.00     0.034 A 
HETATM   25 CL1  UNL     1      21.568   0.509  50.811  1.00  0.00    -0.084 Cl
HETATM   26  C17 UNL     1      22.545   2.321  49.120  1.00  0.00     0.024 A 
HETATM   27  C18 UNL     1      23.440   3.276  48.714  1.00  0.00     0.014 A 
ENDBRANCH  20  21
ENDBRANCH   1  15
TORSDOF 5
ENDMDL
MODEL 9
REMARK VINA RESULT:      -7.9      3.932      5.822
REMARK  5 active torsions:
REMARK  status: ('A' for Active; 'I' for Inactive)
REMARK    1  A    between atoms: O1_1  and  C1_2 
REMARK    2  A    between atoms: C3_5  and  N1_6 
REMARK    3  A    between atoms: N2_9  and  C6_10 
REMARK    4  A    between atoms: C6_10  and  C7_11 
REMARK    5  A    between atoms: C12_16  and  C13_17 
ROOT
HETATM    1  C6  UNL     1      24.345   2.217  51.166  1.00  0.00     0.149 C 
ENDROOT
BRANCH   1   2
HETATM    2  N2  UNL     1      24.136   3.484  51.848  1.00  0.00    -0.228 NA
HETATM    3  C5  UNL     1      24.249   4.604  50.929  1.00  0.00     0.131 C 
HETATM    4  C4  UNL     1      22.949   4.507  50.186  1.00  0.00     0.162 C 
HETATM    5  N1  UNL     1      22.066   3.929  51.212  1.00  0.00    -0.275 N 
HETATM    6  N3  UNL     1      22.828   3.554  52.293  1.00  0.00    -0.164 NA
HETATM    7  H17 UNL     1      22.504   2.754  52.843  1.00  0.00     0.167 HD
BRANCH   5   8
HETATM    8  C3  UNL     1      20.668   3.848  50.956  1.00  0.00     0.186 A 
HETATM    9  S1  UNL     1      20.130   3.567  49.206  1.00  0.00    -0.058 SA
HETATM   10  C2  UNL     1      18.306   3.590  49.728  1.00  0.00     0.111 A 
HETATM   11  C1  UNL     1      18.433   3.801  51.102  1.00  0.00     0.171 A 
HETATM   12  N4  UNL     1      19.658   3.909  51.565  1.00  0.00    -0.199 NA
BRANCH  11  13
HETATM   13  O1  UNL     1      17.423   3.916  52.085  1.00  0.00    -0.344 OA
HETATM   14  H1  UNL     1      16.455   4.035  51.819  1.00  0.00     0.219 HD
ENDBRANCH  11  13
ENDBRANCH   5   8
ENDBRANCH   1   2
BRANCH   1  15
HETATM   15  C7  UNL     1      25.103   1.258  51.967  1.00  0.00    -0.033 A 
HETATM   16  C8  UNL     1      26.481   1.281  52.009  1.00  0.00     0.009 A 
HETATM   17  C9  UNL     1      27.256   0.426  52.766  1.00  0.00     0.001 A 
HETATM   18  C10 UNL     1      26.568  -0.518  53.534  1.00  0.00     0.001 A 
HETATM   19  C11 UNL     1      25.199  -0.550  53.501  1.00  0.00     0.013 A 
HETATM   20  C12 UNL     1      24.435   0.327  52.725  1.00  0.00    -0.018 A 
BRANCH  20  21
HETATM   21  C13 UNL     1      23.005   0.097  52.804  1.00  0.00    -0.025 A 
HETATM   22  C14 UNL     1      22.556  -0.433  54.019  1.00  0.00     0.014 A 
HETATM   23  C15 UNL     1      21.205  -0.727  54.222  1.00  0.00     0.024 A 
HETATM   24  C16 UNL     1      20.293  -0.493  53.215  1.00  0.00     0.034 A 
HETATM   25 CL1  UNL     1      18.564  -0.829  53.363  1.00  0.00    -0.084 Cl
HETATM   26  C17 UNL     1      20.700   0.023  52.018  1.00  0.00     0.024 A 
HETATM   27  C18 UNL     1      22.034   0.295  51.862  1.00  0.00     0.014 A 
ENDBRANCH  20  21
ENDBRANCH   1  15
TORSDOF 5
ENDMDL
