MODEL 1
REMARK VINA RESULT:      -8.5      0.000      0.000
REMARK  7 active torsions:
REMARK  status: ('A' for Active; 'I' for Inactive)
REMARK    1  A    between atoms: C2_2  and  C3_3 
REMARK       I    between atoms: C3_3  and  N1_5 
REMARK    2  A    between atoms: C5_7  and  C6_8 
REMARK    3  A    between atoms: C6_8  and  O2_9 
REMARK    4  A    between atoms: O2_9  and  C7_10 
REMARK    5  A    between atoms: C8_12  and  N3_13 
REMARK    6  A    between atoms: N3_13  and  C9_14 
REMARK    7  A    between atoms: C16_26  and  C17_27 
ROOT
HETATM    1  C7  UNL     1      26.576   3.927  49.853  1.00  0.00     0.174 A 
HETATM    2  N2  UNL     1      27.521   4.427  49.174  1.00  0.00    -0.041 NA
HETATM    3  C8  UNL     1      27.479   5.712  48.565  1.00  0.00     0.730 A 
HETATM    4  N6  UNL     1      26.521   6.561  48.591  1.00  0.00    -0.053 NA
HETATM    5  P1  UNL     1      25.017   6.180  49.471  1.00  0.00     0.147 P 
HETATM    6  N7  UNL     1      23.800   5.632  48.254  1.00  0.00    -0.356 N 
HETATM    7  C13 UNL     1      23.437   4.303  48.619  1.00  0.00     0.086 C 
HETATM    8  C14 UNL     1      24.139   3.742  49.555  1.00  0.00     0.011 C 
HETATM    9  C15 UNL     1      25.257   4.477  50.192  1.00  0.00     0.159 A 
HETATM   10  H15 UNL     1      23.446   6.178  47.457  1.00  0.00     0.165 HD
ENDROOT
BRANCH   1  11
HETATM   11  O2  UNL     1      26.798   2.665  50.368  1.00  0.00    -0.336 OA
BRANCH  11  12
HETATM   12  C6  UNL     1      26.760   2.370  51.751  1.00  0.00     0.184 C 
BRANCH  12  13
HETATM   13  C5  UNL     1      26.132   0.996  51.861  1.00  0.00     0.042 C 
HETATM   14  C4  UNL     1      24.625   1.040  51.958  1.00  0.00     0.133 C 
HETATM   15  N1  UNL     1      24.316   0.295  53.159  1.00  0.00    -0.348 N 
HETATM   16  C3  UNL     1      23.062  -0.288  53.479  1.00  0.00     0.242 C 
HETATM   17  C18 UNL     1      25.482   0.232  53.994  1.00  0.00     0.140 C 
HETATM   18  O1  UNL     1      22.032  -0.244  52.764  1.00  0.00    -0.268 OA
HETATM   19  C16 UNL     1      26.651   0.284  53.066  1.00  0.00     0.119 C 
BRANCH  16  20
HETATM   20  C2  UNL     1      22.838  -1.023  54.716  1.00  0.00     0.064 C 
HETATM   21  C1  UNL     1      21.639  -1.571  54.594  1.00  0.00     0.017 C 
ENDBRANCH  16  20
BRANCH  19  22
HETATM   22  C17 UNL     1      27.163  -1.100  52.728  1.00  0.00     0.393 C 
HETATM   23  F1  UNL     1      28.528  -1.164  52.877  1.00  0.00    -0.171 F 
HETATM   24  F2  UNL     1      26.480  -2.029  53.486  1.00  0.00    -0.171 F 
HETATM   25  F3  UNL     1      26.872  -1.346  51.393  1.00  0.00    -0.171 F 
ENDBRANCH  19  22
ENDBRANCH  12  13
ENDBRANCH  11  12
ENDBRANCH   1  11
BRANCH   3  26
HETATM   26  N3  UNL     1      28.646   6.133  47.821  1.00  0.00    -0.185 N 
HETATM   27  H9  UNL     1      28.843   5.717  46.872  1.00  0.00     0.184 HD
BRANCH  26  28
HETATM   28  C9  UNL     1      29.549   7.097  48.331  1.00  0.00     0.085 A 
HETATM   29  C10 UNL     1      30.812   6.896  48.841  1.00  0.00     0.170 A 
HETATM   30  N4  UNL     1      31.314   8.085  49.211  1.00  0.00    -0.183 NA
HETATM   31  N5  UNL     1      30.437   9.042  48.965  1.00  0.00    -0.283 N 
HETATM   32  C11 UNL     1      30.722  10.435  49.271  1.00  0.00     0.179 C 
HETATM   33  C12 UNL     1      29.360   8.441  48.429  1.00  0.00     0.143 A 
ENDBRANCH  26  28
ENDBRANCH   3  26
TORSDOF 7
ENDMDL
MODEL 2
REMARK VINA RESULT:      -8.4      4.012      7.421
REMARK  7 active torsions:
REMARK  status: ('A' for Active; 'I' for Inactive)
REMARK    1  A    between atoms: C2_2  and  C3_3 
REMARK       I    between atoms: C3_3  and  N1_5 
REMARK    2  A    between atoms: C5_7  and  C6_8 
REMARK    3  A    between atoms: C6_8  and  O2_9 
REMARK    4  A    between atoms: O2_9  and  C7_10 
REMARK    5  A    between atoms: C8_12  and  N3_13 
REMARK    6  A    between atoms: N3_13  and  C9_14 
REMARK    7  A    between atoms: C16_26  and  C17_27 
ROOT
HETATM    1  C7  UNL     1      23.417   3.537  50.484  1.00  0.00     0.174 A 
HETATM    2  N2  UNL     1      22.516   3.124  51.272  1.00  0.00    -0.041 NA
HETATM    3  C8  UNL     1      21.384   3.890  51.670  1.00  0.00     0.730 A 
HETATM    4  N6  UNL     1      21.083   5.084  51.319  1.00  0.00    -0.053 NA
HETATM    5  P1  UNL     1      22.146   5.979  50.201  1.00  0.00     0.147 P 
HETATM    6  N7  UNL     1      23.168   7.088  51.194  1.00  0.00    -0.356 N 
HETATM    7  C13 UNL     1      24.521   6.713  50.952  1.00  0.00     0.086 C 
HETATM    8  C14 UNL     1      24.712   5.621  50.277  1.00  0.00     0.011 C 
HETATM    9  C15 UNL     1      23.557   4.828  49.797  1.00  0.00     0.159 A 
HETATM   10  H15 UNL     1      22.831   7.839  51.811  1.00  0.00     0.165 HD
ENDROOT
BRANCH   1  11
HETATM   11  O2  UNL     1      24.441   2.652  50.214  1.00  0.00    -0.336 OA
BRANCH  11  12
HETATM   12  C6  UNL     1      25.781   2.863  50.618  1.00  0.00     0.184 C 
BRANCH  12  13
HETATM   13  C5  UNL     1      25.881   2.298  52.019  1.00  0.00     0.042 C 
HETATM   14  C4  UNL     1      27.250   2.477  52.634  1.00  0.00     0.133 C 
HETATM   15  N1  UNL     1      27.647   1.144  53.031  1.00  0.00    -0.348 N 
HETATM   16  C3  UNL     1      28.644   0.821  53.988  1.00  0.00     0.242 C 
HETATM   17  C18 UNL     1      26.874   0.180  52.301  1.00  0.00     0.140 C 
HETATM   18  O1  UNL     1      29.330   1.649  54.636  1.00  0.00    -0.268 OA
HETATM   19  C16 UNL     1      25.566   0.839  52.013  1.00  0.00     0.119 C 
BRANCH  16  20
HETATM   20  C2  UNL     1      28.982  -0.553  54.327  1.00  0.00     0.064 C 
HETATM   21  C1  UNL     1      30.081  -0.831  53.642  1.00  0.00     0.017 C 
ENDBRANCH  16  20
BRANCH  19  22
HETATM   22  C17 UNL     1      24.517   0.483  53.045  1.00  0.00     0.393 C 
HETATM   23  F1  UNL     1      25.017  -0.413  53.960  1.00  0.00    -0.171 F 
HETATM   24  F2  UNL     1      24.035   1.643  53.615  1.00  0.00    -0.171 F 
HETATM   25  F3  UNL     1      23.462  -0.133  52.384  1.00  0.00    -0.171 F 
ENDBRANCH  19  22
ENDBRANCH  12  13
ENDBRANCH  11  12
ENDBRANCH   1  11
BRANCH   3  26
HETATM   26  N3  UNL     1      20.447   3.267  52.579  1.00  0.00    -0.185 N 
HETATM   27  H9  UNL     1      19.848   3.866  53.209  1.00  0.00     0.184 HD
BRANCH  26  28
HETATM   28  C9  UNL     1      20.303   1.862  52.657  1.00  0.00     0.085 A 
HETATM   29  C10 UNL     1      19.695   1.015  51.757  1.00  0.00     0.170 A 
HETATM   30  N4  UNL     1      19.787  -0.240  52.226  1.00  0.00    -0.183 NA
HETATM   31  N5  UNL     1      20.422  -0.244  53.383  1.00  0.00    -0.283 N 
HETATM   32  C11 UNL     1      20.663  -1.476  54.118  1.00  0.00     0.179 C 
HETATM   33  C12 UNL     1      20.738   1.037  53.647  1.00  0.00     0.143 A 
ENDBRANCH  26  28
ENDBRANCH   3  26
TORSDOF 7
ENDMDL
MODEL 3
REMARK VINA RESULT:      -8.3      2.751      4.070
REMARK  7 active torsions:
REMARK  status: ('A' for Active; 'I' for Inactive)
REMARK    1  A    between atoms: C2_2  and  C3_3 
REMARK       I    between atoms: C3_3  and  N1_5 
REMARK    2  A    between atoms: C5_7  and  C6_8 
REMARK    3  A    between atoms: C6_8  and  O2_9 
REMARK    4  A    between atoms: O2_9  and  C7_10 
REMARK    5  A    between atoms: C8_12  and  N3_13 
REMARK    6  A    between atoms: N3_13  and  C9_14 
REMARK    7  A    between atoms: C16_26  and  C17_27 
ROOT
HETATM    1  C7  UNL     1      23.243   5.266  51.718  1.00  0.00     0.174 A 
HETATM    2  N2  UNL     1      24.109   6.182  51.595  1.00  0.00    -0.041 NA
HETATM    3  C8  UNL     1      23.876   7.425  50.944  1.00  0.00     0.730 A 
HETATM    4  N6  UNL     1      22.796   7.828  50.387  1.00  0.00    -0.053 NA
HETATM    5  P1  UNL     1      21.355   6.777  50.374  1.00  0.00     0.147 P 
HETATM    6  N7  UNL     1      21.276   5.984  48.753  1.00  0.00    -0.356 N 
HETATM    7  C13 UNL     1      21.345   4.581  48.989  1.00  0.00     0.086 C 
HETATM    8  C14 UNL     1      21.621   4.205  50.200  1.00  0.00     0.011 C 
HETATM    9  C15 UNL     1      21.848   5.213  51.261  1.00  0.00     0.159 A 
HETATM   10  H15 UNL     1      21.199   6.460  47.845  1.00  0.00     0.165 HD
ENDROOT
BRANCH   1  11
HETATM   11  O2  UNL     1      23.652   4.126  52.381  1.00  0.00    -0.336 OA
BRANCH  11  12
HETATM   12  C6  UNL     1      24.472   3.134  51.793  1.00  0.00     0.184 C 
BRANCH  12  13
HETATM   13  C5  UNL     1      24.846   2.191  52.917  1.00  0.00     0.042 C 
HETATM   14  C4  UNL     1      26.271   2.368  53.389  1.00  0.00     0.133 C 
HETATM   15  N1  UNL     1      26.855   1.049  53.287  1.00  0.00    -0.348 N 
HETATM   16  C3  UNL     1      28.017   0.597  53.965  1.00  0.00     0.242 C 
HETATM   17  C18 UNL     1      26.075   0.251  52.385  1.00  0.00     0.140 C 
HETATM   18  O1  UNL     1      28.712   1.278  54.758  1.00  0.00    -0.268 OA
HETATM   19  C16 UNL     1      24.679   0.773  52.481  1.00  0.00     0.119 C 
BRANCH  16  20
HETATM   20  C2  UNL     1      28.538  -0.753  53.803  1.00  0.00     0.064 C 
HETATM   21  C1  UNL     1      29.839  -0.613  53.605  1.00  0.00     0.017 C 
ENDBRANCH  16  20
BRANCH  19  22
HETATM   22  C17 UNL     1      23.846  -0.025  53.461  1.00  0.00     0.393 C 
HETATM   23  F1  UNL     1      24.607  -0.429  54.532  1.00  0.00    -0.171 F 
HETATM   24  F2  UNL     1      22.740   0.718  53.819  1.00  0.00    -0.171 F 
HETATM   25  F3  UNL     1      23.398  -1.165  52.808  1.00  0.00    -0.171 F 
ENDBRANCH  19  22
ENDBRANCH  12  13
ENDBRANCH  11  12
ENDBRANCH   1  11
BRANCH   3  26
HETATM   26  N3  UNL     1      24.976   8.364  50.892  1.00  0.00    -0.185 N 
HETATM   27  H9  UNL     1      24.940   9.248  51.466  1.00  0.00     0.184 HD
BRANCH  26  28
HETATM   28  C9  UNL     1      26.114   8.137  50.082  1.00  0.00     0.085 A 
HETATM   29  C10 UNL     1      26.336   7.110  49.191  1.00  0.00     0.170 A 
HETATM   30  N4  UNL     1      27.547   7.282  48.639  1.00  0.00    -0.183 NA
HETATM   31  N5  UNL     1      28.118   8.367  49.130  1.00  0.00    -0.283 N 
HETATM   32  C11 UNL     1      29.442   8.793  48.704  1.00  0.00     0.179 C 
HETATM   33  C12 UNL     1      27.245   8.889  50.010  1.00  0.00     0.143 A 
ENDBRANCH  26  28
ENDBRANCH   3  26
TORSDOF 7
ENDMDL
MODEL 4
REMARK VINA RESULT:      -8.3      3.311      5.307
REMARK  7 active torsions:
REMARK  status: ('A' for Active; 'I' for Inactive)
REMARK    1  A    between atoms: C2_2  and  C3_3 
REMARK       I    between atoms: C3_3  and  N1_5 
REMARK    2  A    between atoms: C5_7  and  C6_8 
REMARK    3  A    between atoms: C6_8  and  O2_9 
REMARK    4  A    between atoms: O2_9  and  C7_10 
REMARK    5  A    between atoms: C8_12  and  N3_13 
REMARK    6  A    between atoms: N3_13  and  C9_14 
REMARK    7  A    between atoms: C16_26  and  C17_27 
ROOT
HETATM    1  C7  UNL     1      20.708   3.395  51.440  1.00  0.00     0.174 A 
HETATM    2  N2  UNL     1      21.682   4.150  51.733  1.00  0.00    -0.041 NA
HETATM    3  C8  UNL     1      21.869   5.460  51.209  1.00  0.00     0.730 A 
HETATM    4  N6  UNL     1      21.119   6.087  50.382  1.00  0.00    -0.053 NA
HETATM    5  P1  UNL     1      19.641   5.312  49.754  1.00  0.00     0.147 P 
HETATM    6  N7  UNL     1      20.023   4.667  48.111  1.00  0.00    -0.356 N 
HETATM    7  C13 UNL     1      19.807   3.260  48.171  1.00  0.00     0.086 C 
HETATM    8  C14 UNL     1      19.586   2.753  49.345  1.00  0.00     0.011 C 
HETATM    9  C15 UNL     1      19.568   3.624  50.543  1.00  0.00     0.159 A 
HETATM   10  H15 UNL     1      20.335   5.215  47.298  1.00  0.00     0.165 HD
ENDROOT
BRANCH   1  11
HETATM   11  O2  UNL     1      20.695   2.155  52.048  1.00  0.00    -0.336 OA
BRANCH  11  12
HETATM   12  C6  UNL     1      21.666   1.156  51.799  1.00  0.00     0.184 C 
BRANCH  12  13
HETATM   13  C5  UNL     1      22.398   0.960  53.109  1.00  0.00     0.042 C 
HETATM   14  C4  UNL     1      23.722   1.687  53.162  1.00  0.00     0.133 C 
HETATM   15  N1  UNL     1      24.686   0.663  53.499  1.00  0.00    -0.348 N 
HETATM   16  C3  UNL     1      25.977   0.881  54.050  1.00  0.00     0.242 C 
HETATM   17  C18 UNL     1      24.140  -0.627  53.190  1.00  0.00     0.140 C 
HETATM   18  O1  UNL     1      26.473   2.001  54.328  1.00  0.00    -0.268 OA
HETATM   19  C16 UNL     1      22.661  -0.491  53.345  1.00  0.00     0.119 C 
BRANCH  16  20
HETATM   20  C2  UNL     1      26.887  -0.212  54.358  1.00  0.00     0.064 C 
HETATM   21  C1  UNL     1      28.020   0.361  54.735  1.00  0.00     0.017 C 
ENDBRANCH  16  20
BRANCH  19  22
HETATM   22  C17 UNL     1      22.195  -0.934  54.715  1.00  0.00     0.393 C 
HETATM   23  F1  UNL     1      21.378  -2.035  54.620  1.00  0.00    -0.171 F 
HETATM   24  F2  UNL     1      23.297  -1.133  55.521  1.00  0.00    -0.171 F 
HETATM   25  F3  UNL     1      21.449   0.100  55.266  1.00  0.00    -0.171 F 
ENDBRANCH  19  22
ENDBRANCH  12  13
ENDBRANCH  11  12
ENDBRANCH   1  11
BRANCH   3  26
HETATM   26  N3  UNL     1      23.038   6.190  51.648  1.00  0.00    -0.185 N 
HETATM   27  H9  UNL     1      23.021   6.706  52.568  1.00  0.00     0.184 HD
BRANCH  26  28
HETATM   28  C9  UNL     1      24.221   6.241  50.873  1.00  0.00     0.085 A 
HETATM   29  C10 UNL     1      24.964   7.347  50.521  1.00  0.00     0.170 A 
HETATM   30  N4  UNL     1      26.007   6.939  49.781  1.00  0.00    -0.183 NA
HETATM   31  N5  UNL     1      25.973   5.627  49.637  1.00  0.00    -0.283 N 
HETATM   32  C11 UNL     1      26.988   4.916  48.875  1.00  0.00     0.179 C 
HETATM   33  C12 UNL     1      24.884   5.200  50.302  1.00  0.00     0.143 A 
ENDBRANCH  26  28
ENDBRANCH   3  26
TORSDOF 7
ENDMDL
MODEL 5
REMARK VINA RESULT:      -8.3      3.009      4.902
REMARK  7 active torsions:
REMARK  status: ('A' for Active; 'I' for Inactive)
REMARK    1  A    between atoms: C2_2  and  C3_3 
REMARK       I    between atoms: C3_3  and  N1_5 
REMARK    2  A    between atoms: C5_7  and  C6_8 
REMARK    3  A    between atoms: C6_8  and  O2_9 
REMARK    4  A    between atoms: O2_9  and  C7_10 
REMARK    5  A    between atoms: C8_12  and  N3_13 
REMARK    6  A    between atoms: N3_13  and  C9_14 
REMARK    7  A    between atoms: C16_26  and  C17_27 
ROOT
HETATM    1  C7  UNL     1      22.122   3.403  51.295  1.00  0.00     0.174 A 
HETATM    2  N2  UNL     1      22.517   4.490  50.777  1.00  0.00    -0.041 NA
HETATM    3  C8  UNL     1      21.923   5.097  49.635  1.00  0.00     0.730 A 
HETATM    4  N6  UNL     1      20.925   4.676  48.953  1.00  0.00    -0.053 NA
HETATM    5  P1  UNL     1      20.113   3.155  49.408  1.00  0.00     0.147 P 
HETATM    6  N7  UNL     1      20.737   1.858  48.317  1.00  0.00    -0.356 N 
HETATM    7  C13 UNL     1      21.345   0.883  49.158  1.00  0.00     0.086 C 
HETATM    8  C14 UNL     1      21.483   1.196  50.410  1.00  0.00     0.011 C 
HETATM    9  C15 UNL     1      21.020   2.514  50.906  1.00  0.00     0.159 A 
HETATM   10  H15 UNL     1      20.664   1.838  47.291  1.00  0.00     0.165 HD
ENDROOT
BRANCH   1  11
HETATM   11  O2  UNL     1      22.822   2.967  52.401  1.00  0.00    -0.336 OA
BRANCH  11  12
HETATM   12  C6  UNL     1      24.218   3.142  52.558  1.00  0.00     0.184 C 
BRANCH  12  13
HETATM   13  C5  UNL     1      24.680   1.992  53.428  1.00  0.00     0.042 C 
HETATM   14  C4  UNL     1      26.122   2.120  53.862  1.00  0.00     0.133 C 
HETATM   15  N1  UNL     1      26.739   0.880  53.446  1.00  0.00    -0.348 N 
HETATM   16  C3  UNL     1      27.949   0.339  53.954  1.00  0.00     0.242 C 
HETATM   17  C18 UNL     1      25.936   0.267  52.427  1.00  0.00     0.140 C 
HETATM   18  O1  UNL     1      28.665   0.859  54.845  1.00  0.00    -0.268 OA
HETATM   19  C16 UNL     1      24.532   0.698  52.699  1.00  0.00     0.119 C 
BRANCH  16  20
HETATM   20  C2  UNL     1      28.501  -0.920  53.476  1.00  0.00     0.064 C 
HETATM   21  C1  UNL     1      29.794  -0.873  53.754  1.00  0.00     0.017 C 
ENDBRANCH  16  20
BRANCH  19  22
HETATM   22  C17 UNL     1      23.777  -0.329  53.516  1.00  0.00     0.393 C 
HETATM   23  F1  UNL     1      24.617  -0.957  54.405  1.00  0.00    -0.171 F 
HETATM   24  F2  UNL     1      22.696   0.282  54.116  1.00  0.00    -0.171 F 
HETATM   25  F3  UNL     1      23.290  -1.292  52.643  1.00  0.00    -0.171 F 
ENDBRANCH  19  22
ENDBRANCH  12  13
ENDBRANCH  11  12
ENDBRANCH   1  11
BRANCH   3  26
HETATM   26  N3  UNL     1      22.498   6.341  49.170  1.00  0.00    -0.185 N 
HETATM   27  H9  UNL     1      21.886   7.059  48.698  1.00  0.00     0.184 HD
BRANCH  26  28
HETATM   28  C9  UNL     1      23.874   6.631  49.326  1.00  0.00     0.085 A 
HETATM   29  C10 UNL     1      24.473   7.456  50.253  1.00  0.00     0.170 A 
HETATM   30  N4  UNL     1      25.798   7.442  50.040  1.00  0.00    -0.183 NA
HETATM   31  N5  UNL     1      26.084   6.651  49.021  1.00  0.00    -0.283 N 
HETATM   32  C11 UNL     1      27.453   6.451  48.571  1.00  0.00     0.179 C 
HETATM   33  C12 UNL     1      24.912   6.156  48.585  1.00  0.00     0.143 A 
ENDBRANCH  26  28
ENDBRANCH   3  26
TORSDOF 7
ENDMDL
MODEL 6
REMARK VINA RESULT:      -8.2      3.631      8.452
REMARK  7 active torsions:
REMARK  status: ('A' for Active; 'I' for Inactive)
REMARK    1  A    between atoms: C2_2  and  C3_3 
REMARK       I    between atoms: C3_3  and  N1_5 
REMARK    2  A    between atoms: C5_7  and  C6_8 
REMARK    3  A    between atoms: C6_8  and  O2_9 
REMARK    4  A    between atoms: O2_9  and  C7_10 
REMARK    5  A    between atoms: C8_12  and  N3_13 
REMARK    6  A    between atoms: N3_13  and  C9_14 
REMARK    7  A    between atoms: C16_26  and  C17_27 
ROOT
HETATM    1  C7  UNL     1      23.952   2.337  51.701  1.00  0.00     0.174 A 
HETATM    2  N2  UNL     1      24.431   1.453  52.471  1.00  0.00    -0.041 NA
HETATM    3  C8  UNL     1      23.725   0.292  52.897  1.00  0.00     0.730 A 
HETATM    4  N6  UNL     1      22.531  -0.054  52.594  1.00  0.00    -0.053 NA
HETATM    5  P1  UNL     1      21.552   0.974  51.515  1.00  0.00     0.147 P 
HETATM    6  N7  UNL     1      20.445   1.953  52.553  1.00  0.00    -0.356 N 
HETATM    7  C13 UNL     1      20.759   3.319  52.298  1.00  0.00     0.086 C 
HETATM    8  C14 UNL     1      21.814   3.552  51.580  1.00  0.00     0.011 C 
HETATM    9  C15 UNL     1      22.631   2.427  51.067  1.00  0.00     0.159 A 
HETATM   10  H15 UNL     1      19.733   1.587  53.199  1.00  0.00     0.165 HD
ENDROOT
BRANCH   1  11
HETATM   11  O2  UNL     1      24.786   3.395  51.397  1.00  0.00    -0.336 OA
BRANCH  11  12
HETATM   12  C6  UNL     1      25.999   3.249  50.682  1.00  0.00     0.184 C 
BRANCH  12  13
HETATM   13  C5  UNL     1      25.848   4.103  49.441  1.00  0.00     0.042 C 
HETATM   14  C4  UNL     1      27.165   4.641  48.929  1.00  0.00     0.133 C 
HETATM   15  N1  UNL     1      26.967   6.072  48.851  1.00  0.00    -0.348 N 
HETATM   16  C3  UNL     1      27.735   6.978  48.073  1.00  0.00     0.242 C 
HETATM   17  C18 UNL     1      25.865   6.447  49.689  1.00  0.00     0.140 C 
HETATM   18  O1  UNL     1      28.702   6.670  47.335  1.00  0.00    -0.268 OA
HETATM   19  C16 UNL     1      24.953   5.265  49.717  1.00  0.00     0.119 C 
BRANCH  16  20
HETATM   20  C2  UNL     1      27.467   8.409  48.055  1.00  0.00     0.064 C 
HETATM   21  C1  UNL     1      26.766   8.628  46.953  1.00  0.00     0.017 C 
ENDBRANCH  16  20
BRANCH  19  22
HETATM   22  C17 UNL     1      23.847   5.383  48.690  1.00  0.00     0.393 C 
HETATM   23  F1  UNL     1      24.208   6.246  47.682  1.00  0.00    -0.171 F 
HETATM   24  F2  UNL     1      23.512   4.122  48.243  1.00  0.00    -0.171 F 
HETATM   25  F3  UNL     1      22.733   5.918  49.324  1.00  0.00    -0.171 F 
ENDBRANCH  19  22
ENDBRANCH  12  13
ENDBRANCH  11  12
ENDBRANCH   1  11
BRANCH   3  26
HETATM   26  N3  UNL     1      24.419  -0.620  53.779  1.00  0.00    -0.185 N 
HETATM   27  H9  UNL     1      23.885  -1.387  54.269  1.00  0.00     0.184 HD
BRANCH  26  28
HETATM   28  C9  UNL     1      25.811  -0.519  54.014  1.00  0.00     0.085 A 
HETATM   29  C10 UNL     1      26.457   0.076  55.075  1.00  0.00     0.170 A 
HETATM   30  N4  UNL     1      27.780  -0.058  54.896  1.00  0.00    -0.183 NA
HETATM   31  N5  UNL     1      28.021  -0.709  53.772  1.00  0.00    -0.283 N 
HETATM   32  C11 UNL     1      29.377  -0.994  53.330  1.00  0.00     0.179 C 
HETATM   33  C12 UNL     1      26.821  -0.990  53.233  1.00  0.00     0.143 A 
ENDBRANCH  26  28
ENDBRANCH   3  26
TORSDOF 7
ENDMDL
MODEL 7
REMARK VINA RESULT:      -8.2      2.751      3.197
REMARK  7 active torsions:
REMARK  status: ('A' for Active; 'I' for Inactive)
REMARK    1  A    between atoms: C2_2  and  C3_3 
REMARK       I    between atoms: C3_3  and  N1_5 
REMARK    2  A    between atoms: C5_7  and  C6_8 
REMARK    3  A    between atoms: C6_8  and  O2_9 
REMARK    4  A    between atoms: O2_9  and  C7_10 
REMARK    5  A    between atoms: C8_12  and  N3_13 
REMARK    6  A    between atoms: N3_13  and  C9_14 
REMARK    7  A    between atoms: C16_26  and  C17_27 
ROOT
HETATM    1  C7  UNL     1      26.502   4.617  49.405  1.00  0.00     0.174 A 
HETATM    2  N2  UNL     1      27.645   4.454  48.884  1.00  0.00    -0.041 NA
HETATM    3  C8  UNL     1      28.448   5.507  48.365  1.00  0.00     0.730 A 
HETATM    4  N6  UNL     1      28.175   6.757  48.330  1.00  0.00    -0.053 NA
HETATM    5  P1  UNL     1      26.627   7.349  48.987  1.00  0.00     0.147 P 
HETATM    6  N7  UNL     1      25.506   7.600  47.594  1.00  0.00    -0.356 N 
HETATM    7  C13 UNL     1      24.388   6.746  47.819  1.00  0.00     0.086 C 
HETATM    8  C14 UNL     1      24.489   5.896  48.794  1.00  0.00     0.011 C 
HETATM    9  C15 UNL     1      25.722   5.844  49.614  1.00  0.00     0.159 A 
HETATM   10  H15 UNL     1      25.654   8.236  46.799  1.00  0.00     0.165 HD
ENDROOT
BRANCH   1  11
HETATM   11  O2  UNL     1      25.870   3.475  49.854  1.00  0.00    -0.336 OA
BRANCH  11  12
HETATM   12  C6  UNL     1      26.457   2.568  50.768  1.00  0.00     0.184 C 
BRANCH  12  13
HETATM   13  C5  UNL     1      25.490   2.471  51.929  1.00  0.00     0.042 C 
HETATM   14  C4  UNL     1      25.582   1.156  52.669  1.00  0.00     0.133 C 
HETATM   15  N1  UNL     1      24.232   0.639  52.662  1.00  0.00    -0.348 N 
HETATM   16  C3  UNL     1      23.711  -0.344  53.544  1.00  0.00     0.242 C 
HETATM   17  C18 UNL     1      23.484   1.273  51.614  1.00  0.00     0.140 C 
HETATM   18  O1  UNL     1      24.348  -0.910  54.466  1.00  0.00    -0.268 OA
HETATM   19  C16 UNL     1      24.085   2.630  51.448  1.00  0.00     0.119 C 
BRANCH  16  20
HETATM   20  C2  UNL     1      22.335  -0.810  53.465  1.00  0.00     0.064 C 
HETATM   21  C1  UNL     1      21.756  -0.410  54.587  1.00  0.00     0.017 C 
ENDBRANCH  16  20
BRANCH  19  22
HETATM   22  C17 UNL     1      23.333   3.679  52.237  1.00  0.00     0.393 C 
HETATM   23  F1  UNL     1      24.029   4.030  53.370  1.00  0.00    -0.171 F 
HETATM   24  F2  UNL     1      23.051   4.747  51.411  1.00  0.00    -0.171 F 
HETATM   25  F3  UNL     1      22.125   3.124  52.639  1.00  0.00    -0.171 F 
ENDBRANCH  19  22
ENDBRANCH  12  13
ENDBRANCH  11  12
ENDBRANCH   1  11
BRANCH   3  26
HETATM   26  N3  UNL     1      29.732   5.148  47.802  1.00  0.00    -0.185 N 
HETATM   27  H9  UNL     1      29.809   4.317  47.156  1.00  0.00     0.184 HD
BRANCH  26  28
HETATM   28  C9  UNL     1      30.907   5.881  48.095  1.00  0.00     0.085 A 
HETATM   29  C10 UNL     1      31.541   6.027  49.308  1.00  0.00     0.170 A 
HETATM   30  N4  UNL     1      32.620   6.806  49.132  1.00  0.00    -0.183 NA
HETATM   31  N5  UNL     1      32.712   7.170  47.866  1.00  0.00    -0.283 N 
HETATM   32  C11 UNL     1      33.793   8.022  47.393  1.00  0.00     0.179 C 
HETATM   33  C12 UNL     1      31.668   6.607  47.232  1.00  0.00     0.143 A 
ENDBRANCH  26  28
ENDBRANCH   3  26
TORSDOF 7
ENDMDL
MODEL 8
REMARK VINA RESULT:      -8.2      2.573      4.116
REMARK  7 active torsions:
REMARK  status: ('A' for Active; 'I' for Inactive)
REMARK    1  A    between atoms: C2_2  and  C3_3 
REMARK       I    between atoms: C3_3  and  N1_5 
REMARK    2  A    between atoms: C5_7  and  C6_8 
REMARK    3  A    between atoms: C6_8  and  O2_9 
REMARK    4  A    between atoms: O2_9  and  C7_10 
REMARK    5  A    between atoms: C8_12  and  N3_13 
REMARK    6  A    between atoms: N3_13  and  C9_14 
REMARK    7  A    between atoms: C16_26  and  C17_27 
ROOT
HETATM    1  C7  UNL     1      22.936   2.934  50.246  1.00  0.00     0.174 A 
HETATM    2  N2  UNL     1      23.915   3.712  50.450  1.00  0.00    -0.041 NA
HETATM    3  C8  UNL     1      24.063   4.991  49.844  1.00  0.00     0.730 A 
HETATM    4  N6  UNL     1      23.269   5.565  49.020  1.00  0.00    -0.053 NA
HETATM    5  P1  UNL     1      21.772   4.743  48.506  1.00  0.00     0.147 P 
HETATM    6  N7  UNL     1      22.083   4.009  46.886  1.00  0.00    -0.356 N 
HETATM    7  C13 UNL     1      21.885   2.606  47.036  1.00  0.00     0.086 C 
HETATM    8  C14 UNL     1      21.725   2.165  48.246  1.00  0.00     0.011 C 
HETATM    9  C15 UNL     1      21.753   3.102  49.393  1.00  0.00     0.159 A 
HETATM   10  H15 UNL     1      22.351   4.512  46.030  1.00  0.00     0.165 HD
ENDROOT
BRANCH   1  11
HETATM   11  O2  UNL     1      22.965   1.731  50.923  1.00  0.00    -0.336 OA
BRANCH  11  12
HETATM   12  C6  UNL     1      21.961   1.326  51.834  1.00  0.00     0.184 C 
BRANCH  12  13
HETATM   13  C5  UNL     1      22.678   1.044  53.137  1.00  0.00     0.042 C 
HETATM   14  C4  UNL     1      24.013   1.746  53.242  1.00  0.00     0.133 C 
HETATM   15  N1  UNL     1      24.957   0.689  53.528  1.00  0.00    -0.348 N 
HETATM   16  C3  UNL     1      26.246   0.855  54.100  1.00  0.00     0.242 C 
HETATM   17  C18 UNL     1      24.393  -0.572  53.141  1.00  0.00     0.140 C 
HETATM   18  O1  UNL     1      26.757   1.949  54.445  1.00  0.00    -0.268 OA
HETATM   19  C16 UNL     1      22.915  -0.421  53.292  1.00  0.00     0.119 C 
BRANCH  16  20
HETATM   20  C2  UNL     1      27.136  -0.268  54.354  1.00  0.00     0.064 C 
HETATM   21  C1  UNL     1      28.235   0.256  54.874  1.00  0.00     0.017 C 
ENDBRANCH  16  20
BRANCH  19  22
HETATM   22  C17 UNL     1      22.431  -0.934  54.631  1.00  0.00     0.393 C 
HETATM   23  F1  UNL     1      23.492  -1.204  55.463  1.00  0.00    -0.171 F 
HETATM   24  F2  UNL     1      21.531  -0.032  55.159  1.00  0.00    -0.171 F 
HETATM   25  F3  UNL     1      21.755  -2.127  54.410  1.00  0.00    -0.171 F 
ENDBRANCH  19  22
ENDBRANCH  12  13
ENDBRANCH  11  12
ENDBRANCH   1  11
BRANCH   3  26
HETATM   26  N3  UNL     1      25.243   5.755  50.185  1.00  0.00    -0.185 N 
HETATM   27  H9  UNL     1      25.232   6.392  51.026  1.00  0.00     0.184 HD
BRANCH  26  28
HETATM   28  C9  UNL     1      26.429   5.679  49.417  1.00  0.00     0.085 A 
HETATM   29  C10 UNL     1      27.214   4.576  49.167  1.00  0.00     0.170 A 
HETATM   30  N4  UNL     1      28.244   4.954  48.392  1.00  0.00    -0.183 NA
HETATM   31  N5  UNL     1      28.162   6.247  48.133  1.00  0.00    -0.283 N 
HETATM   32  C11 UNL     1      29.154   6.925  47.312  1.00  0.00     0.179 C 
HETATM   33  C12 UNL     1      27.057   6.690  48.757  1.00  0.00     0.143 A 
ENDBRANCH  26  28
ENDBRANCH   3  26
TORSDOF 7
ENDMDL
MODEL 9
REMARK VINA RESULT:      -8.1      4.894      6.404
REMARK  7 active torsions:
REMARK  status: ('A' for Active; 'I' for Inactive)
REMARK    1  A    between atoms: C2_2  and  C3_3 
REMARK       I    between atoms: C3_3  and  N1_5 
REMARK    2  A    between atoms: C5_7  and  C6_8 
REMARK    3  A    between atoms: C6_8  and  O2_9 
REMARK    4  A    between atoms: O2_9  and  C7_10 
REMARK    5  A    between atoms: C8_12  and  N3_13 
REMARK    6  A    between atoms: N3_13  and  C9_14 
REMARK    7  A    between atoms: C16_26  and  C17_27 
ROOT
HETATM    1  C7  UNL     1      21.874   2.688  51.522  1.00  0.00     0.174 A 
HETATM    2  N2  UNL     1      22.251   2.640  50.314  1.00  0.00    -0.041 NA
HETATM    3  C8  UNL     1      21.403   2.309  49.220  1.00  0.00     0.730 A 
HETATM    4  N6  UNL     1      20.158   2.013  49.256  1.00  0.00    -0.053 NA
HETATM    5  P1  UNL     1      19.293   1.983  50.815  1.00  0.00     0.147 P 
HETATM    6  N7  UNL     1      19.183   0.260  51.343  1.00  0.00    -0.356 N 
HETATM    7  C13 UNL     1      19.857   0.178  52.595  1.00  0.00     0.086 C 
HETATM    8  C14 UNL     1      20.520   1.229  52.971  1.00  0.00     0.011 C 
HETATM    9  C15 UNL     1      20.553   2.437  52.113  1.00  0.00     0.159 A 
HETATM   10  H15 UNL     1      18.722  -0.506  50.832  1.00  0.00     0.165 HD
ENDROOT
BRANCH   1  11
HETATM   11  O2  UNL     1      22.840   3.027  52.448  1.00  0.00    -0.336 OA
BRANCH  11  12
HETATM   12  C6  UNL     1      24.229   2.888  52.212  1.00  0.00     0.184 C 
BRANCH  12  13
HETATM   13  C5  UNL     1      24.717   1.872  53.223  1.00  0.00     0.042 C 
HETATM   14  C4  UNL     1      26.132   2.131  53.686  1.00  0.00     0.133 C 
HETATM   15  N1  UNL     1      26.829   0.889  53.435  1.00  0.00    -0.348 N 
HETATM   16  C3  UNL     1      28.045   0.478  54.041  1.00  0.00     0.242 C 
HETATM   17  C18 UNL     1      26.100   0.120  52.468  1.00  0.00     0.140 C 
HETATM   18  O1  UNL     1      28.698   1.135  54.889  1.00  0.00    -0.268 OA
HETATM   19  C16 UNL     1      24.666   0.498  52.643  1.00  0.00     0.119 C 
BRANCH  16  20
HETATM   20  C2  UNL     1      28.681  -0.793  53.729  1.00  0.00     0.064 C 
HETATM   21  C1  UNL     1      29.964  -0.518  53.553  1.00  0.00     0.017 C 
ENDBRANCH  16  20
BRANCH  19  22
HETATM   22  C17 UNL     1      23.935  -0.471  53.548  1.00  0.00     0.393 C 
HETATM   23  F1  UNL     1      23.114  -1.296  52.817  1.00  0.00    -0.171 F 
HETATM   24  F2  UNL     1      24.858  -1.151  54.317  1.00  0.00    -0.171 F 
HETATM   25  F3  UNL     1      23.134   0.271  54.405  1.00  0.00    -0.171 F 
ENDBRANCH  19  22
ENDBRANCH  12  13
ENDBRANCH  11  12
ENDBRANCH   1  11
BRANCH   3  26
HETATM   26  N3  UNL     1      21.994   2.300  47.900  1.00  0.00    -0.185 N 
HETATM   27  H9  UNL     1      22.398   1.407  47.511  1.00  0.00     0.184 HD
BRANCH  26  28
HETATM   28  C9  UNL     1      22.053   3.466  47.100  1.00  0.00     0.085 A 
HETATM   29  C10 UNL     1      21.844   3.582  45.743  1.00  0.00     0.170 A 
HETATM   30  N4  UNL     1      22.001   4.870  45.398  1.00  0.00    -0.183 NA
HETATM   31  N5  UNL     1      22.302   5.590  46.464  1.00  0.00    -0.283 N 
HETATM   32  C11 UNL     1      22.527   7.024  46.378  1.00  0.00     0.179 C 
HETATM   33  C12 UNL     1      22.334   4.735  47.502  1.00  0.00     0.143 A 
ENDBRANCH  26  28
ENDBRANCH   3  26
TORSDOF 7
ENDMDL
