MODEL 1
REMARK VINA RESULT:      -8.4      0.000      0.000
REMARK  6 active torsions:
REMARK  status: ('A' for Active; 'I' for Inactive)
REMARK    1  A    between atoms: C1_2  and  C2_3 
REMARK       I    between atoms: C1_2  and  N2_10 
REMARK    2  A    between atoms: C2_3  and  N1_4 
REMARK    3  A    between atoms: N2_10  and  C6_11 
REMARK    4  A    between atoms: C10_17  and  N5_18 
REMARK    5  A    between atoms: N5_18  and  C11_19 
REMARK    6  A    between atoms: C11_19  and  C12_20 
ROOT
HETATM    1  C6  UNL     1      21.404   1.010  52.864  1.00  0.00     0.032 C 
HETATM    2  C7  UNL     1      20.529   0.351  53.581  1.00  0.00     0.024 C 
HETATM    3  C8  UNL     1      21.130  -0.951  53.698  1.00  0.00     0.179 C 
HETATM    4  N3  UNL     1      21.494  -1.506  54.941  1.00  0.00    -0.279 NA
HETATM    5  C9  UNL     1      22.720  -1.392  55.387  1.00  0.00     0.229 C 
HETATM    6  N4  UNL     1      23.121  -0.662  54.254  1.00  0.00    -0.225 NA
HETATM    7  C10 UNL     1      24.234  -0.599  53.678  1.00  0.00     0.125 C 
HETATM    8  C18 UNL     1      23.889   0.492  52.736  1.00  0.00     0.052 C 
HETATM    9  C19 UNL     1      22.765   1.146  52.418  1.00  0.00     0.033 C 
ENDROOT
BRANCH   1  10
HETATM   10  N2  UNL     1      20.718   2.287  52.755  1.00  0.00    -0.326 N 
HETATM   11  C1  UNL     1      20.159   2.684  51.496  1.00  0.00     0.241 C 
HETATM   12  O1  UNL     1      20.268   1.923  50.502  1.00  0.00    -0.271 OA
HETATM   13  H5  UNL     1      20.547   3.029  53.494  1.00  0.00     0.169 HD
BRANCH  11  14
HETATM   14  C2  UNL     1      19.441   3.964  51.278  1.00  0.00     0.243 C 
BRANCH  14  15
HETATM   15  N1  UNL     1      20.276   4.971  50.626  1.00  0.00    -0.276 N 
HETATM   16  S1  UNL     1      19.970   5.754  49.043  1.00  0.00    -0.021 SA
HETATM   17  C3  UNL     1      21.493   6.800  49.106  1.00  0.00     0.074 A 
HETATM   18  C4  UNL     1      22.049   6.447  50.294  1.00  0.00     0.083 A 
HETATM   19  C5  UNL     1      21.450   5.510  51.099  1.00  0.00     0.254 A 
HETATM   20  O2  UNL     1      21.893   5.125  52.210  1.00  0.00    -0.268 OA
ENDBRANCH  14  15
ENDBRANCH  11  14
ENDBRANCH   1  10
BRANCH   7  21
HETATM   21  N5  UNL     1      25.536  -1.132  53.779  1.00  0.00    -0.371 N 
HETATM   22  H10 UNL     1      25.764  -1.801  54.546  1.00  0.00     0.161 HD
BRANCH  21  23
HETATM   23  C11 UNL     1      26.313  -0.551  52.669  1.00  0.00     0.157 C 
BRANCH  23  24
HETATM   24  C12 UNL     1      27.748  -0.680  53.042  1.00  0.00    -0.045 A 
HETATM   25  C13 UNL     1      28.373   0.424  53.369  1.00  0.00     0.014 A 
HETATM   26 BR1  UNL     1      27.565   2.146  53.390  1.00  0.00    -0.051 Br
HETATM   27  C14 UNL     1      29.770   0.233  53.724  1.00  0.00     0.015 A 
HETATM   28  C15 UNL     1      30.147  -1.012  53.653  1.00  0.00    -0.025 A 
HETATM   29  C16 UNL     1      29.544  -2.309  53.307  1.00  0.00     0.031 A 
HETATM   30  C17 UNL     1      28.098  -2.108  52.941  1.00  0.00     0.041 A 
ENDBRANCH  23  24
ENDBRANCH  21  23
ENDBRANCH   7  21
TORSDOF 6
ENDMDL
MODEL 2
REMARK VINA RESULT:      -8.2      1.742      2.397
REMARK  6 active torsions:
REMARK  status: ('A' for Active; 'I' for Inactive)
REMARK    1  A    between atoms: C1_2  and  C2_3 
REMARK       I    between atoms: C1_2  and  N2_10 
REMARK    2  A    between atoms: C2_3  and  N1_4 
REMARK    3  A    between atoms: N2_10  and  C6_11 
REMARK    4  A    between atoms: C10_17  and  N5_18 
REMARK    5  A    between atoms: N5_18  and  C11_19 
REMARK    6  A    between atoms: C11_19  and  C12_20 
ROOT
HETATM    1  C6  UNL     1      21.155   1.542  52.413  1.00  0.00     0.032 C 
HETATM    2  C7  UNL     1      20.200   0.848  52.977  1.00  0.00     0.024 C 
HETATM    3  C8  UNL     1      20.782  -0.464  53.084  1.00  0.00     0.179 C 
HETATM    4  N3  UNL     1      20.993  -1.097  54.326  1.00  0.00    -0.279 NA
HETATM    5  C9  UNL     1      22.156  -1.019  54.923  1.00  0.00     0.229 C 
HETATM    6  N4  UNL     1      22.691  -0.225  53.894  1.00  0.00    -0.225 NA
HETATM    7  C10 UNL     1      23.865  -0.135  53.461  1.00  0.00     0.125 C 
HETATM    8  C18 UNL     1      23.637   1.014  52.554  1.00  0.00     0.052 C 
HETATM    9  C19 UNL     1      22.560   1.695  52.143  1.00  0.00     0.033 C 
ENDROOT
BRANCH   1  10
HETATM   10  N2  UNL     1      20.488   2.829  52.301  1.00  0.00    -0.326 N 
HETATM   11  C1  UNL     1      20.036   3.282  51.019  1.00  0.00     0.241 C 
HETATM   12  O1  UNL     1      20.220   2.561  50.006  1.00  0.00    -0.271 OA
HETATM   13  H5  UNL     1      20.261   3.542  53.054  1.00  0.00     0.169 HD
BRANCH  11  14
HETATM   14  C2  UNL     1      19.345   4.577  50.795  1.00  0.00     0.243 C 
BRANCH  14  15
HETATM   15  N1  UNL     1      17.974   4.406  50.323  1.00  0.00    -0.276 N 
HETATM   16  S1  UNL     1      17.413   4.458  48.621  1.00  0.00    -0.021 SA
HETATM   17  C3  UNL     1      15.640   4.153  49.047  1.00  0.00     0.074 A 
HETATM   18  C4  UNL     1      15.672   4.048  50.401  1.00  0.00     0.083 A 
HETATM   19  C5  UNL     1      16.854   4.173  51.088  1.00  0.00     0.254 A 
HETATM   20  O2  UNL     1      16.976   4.090  52.335  1.00  0.00    -0.268 OA
ENDBRANCH  14  15
ENDBRANCH  11  14
ENDBRANCH   1  10
BRANCH   7  21
HETATM   21  N5  UNL     1      25.146  -0.683  53.685  1.00  0.00    -0.371 N 
HETATM   22  H10 UNL     1      25.286  -1.373  54.453  1.00  0.00     0.161 HD
BRANCH  21  23
HETATM   23  C11 UNL     1      26.040  -0.082  52.679  1.00  0.00     0.157 C 
BRANCH  23  24
HETATM   24  C12 UNL     1      27.408  -0.594  52.967  1.00  0.00    -0.045 A 
HETATM   25  C13 UNL     1      28.306   0.291  53.322  1.00  0.00     0.014 A 
HETATM   26 BR1  UNL     1      27.965   2.155  53.485  1.00  0.00    -0.051 Br
HETATM   27  C14 UNL     1      29.620  -0.270  53.590  1.00  0.00     0.015 A 
HETATM   28  C15 UNL     1      29.664  -1.562  53.429  1.00  0.00    -0.025 A 
HETATM   29  C16 UNL     1      28.737  -2.638  53.042  1.00  0.00     0.031 A 
HETATM   30  C17 UNL     1      27.377  -2.054  52.766  1.00  0.00     0.041 A 
ENDBRANCH  23  24
ENDBRANCH  21  23
ENDBRANCH   7  21
TORSDOF 6
ENDMDL
MODEL 3
REMARK VINA RESULT:      -8.0      3.789      8.055
REMARK  6 active torsions:
REMARK  status: ('A' for Active; 'I' for Inactive)
REMARK    1  A    between atoms: C1_2  and  C2_3 
REMARK       I    between atoms: C1_2  and  N2_10 
REMARK    2  A    between atoms: C2_3  and  N1_4 
REMARK    3  A    between atoms: N2_10  and  C6_11 
REMARK    4  A    between atoms: C10_17  and  N5_18 
REMARK    5  A    between atoms: N5_18  and  C11_19 
REMARK    6  A    between atoms: C11_19  and  C12_20 
ROOT
HETATM    1  C6  UNL     1      23.673   1.540  52.509  1.00  0.00     0.032 C 
HETATM    2  C7  UNL     1      22.600   0.808  52.348  1.00  0.00     0.024 C 
HETATM    3  C8  UNL     1      21.544   1.701  52.746  1.00  0.00     0.179 C 
HETATM    4  N3  UNL     1      20.525   2.107  51.861  1.00  0.00    -0.279 NA
HETATM    5  C9  UNL     1      20.625   3.235  51.204  1.00  0.00     0.229 C 
HETATM    6  N4  UNL     1      21.878   3.519  51.776  1.00  0.00    -0.225 NA
HETATM    7  C10 UNL     1      22.418   4.618  52.049  1.00  0.00     0.125 C 
HETATM    8  C18 UNL     1      23.748   4.079  52.420  1.00  0.00     0.052 C 
HETATM    9  C19 UNL     1      24.257   2.852  52.591  1.00  0.00     0.033 C 
ENDROOT
BRANCH   1  10
HETATM   10  N2  UNL     1      24.688   0.570  52.131  1.00  0.00    -0.326 N 
HETATM   11  C1  UNL     1      25.272  -0.270  53.134  1.00  0.00     0.241 C 
HETATM   12  O1  UNL     1      24.897  -0.160  54.329  1.00  0.00    -0.271 OA
HETATM   13  H5  UNL     1      25.103   0.361  51.176  1.00  0.00     0.169 HD
BRANCH  11  14
HETATM   14  C2  UNL     1      26.313  -1.290  52.855  1.00  0.00     0.243 C 
BRANCH  14  15
HETATM   15  N1  UNL     1      27.660  -0.814  53.161  1.00  0.00    -0.276 N 
HETATM   16  S1  UNL     1      28.167   0.890  53.395  1.00  0.00    -0.021 SA
HETATM   17  C3  UNL     1      29.938   0.468  53.716  1.00  0.00     0.074 A 
HETATM   18  C4  UNL     1      29.945  -0.886  53.612  1.00  0.00     0.083 A 
HETATM   19  C5  UNL     1      28.793  -1.576  53.328  1.00  0.00     0.254 A 
HETATM   20  O2  UNL     1      28.709  -2.825  53.215  1.00  0.00    -0.268 OA
ENDBRANCH  14  15
ENDBRANCH  11  14
ENDBRANCH   1  10
BRANCH   7  21
HETATM   21  N5  UNL     1      22.153   6.001  51.978  1.00  0.00    -0.371 N 
HETATM   22  H10 UNL     1      22.117   6.567  52.853  1.00  0.00     0.161 HD
BRANCH  21  23
HETATM   23  C11 UNL     1      21.980   6.322  50.550  1.00  0.00     0.157 C 
BRANCH  23  24
HETATM   24  C12 UNL     1      23.333   6.651  50.022  1.00  0.00    -0.045 A 
HETATM   25  C13 UNL     1      23.779   5.908  49.040  1.00  0.00     0.014 A 
HETATM   26 BR1  UNL     1      22.814   4.461  48.269  1.00  0.00    -0.051 Br
HETATM   27  C14 UNL     1      25.103   6.280  48.568  1.00  0.00     0.015 A 
HETATM   28  C15 UNL     1      25.607   7.293  49.213  1.00  0.00    -0.025 A 
HETATM   29  C16 UNL     1      25.205   8.188  50.310  1.00  0.00     0.031 A 
HETATM   30  C17 UNL     1      23.833   7.802  50.795  1.00  0.00     0.041 A 
ENDBRANCH  23  24
ENDBRANCH  21  23
ENDBRANCH   7  21
TORSDOF 6
ENDMDL
MODEL 4
REMARK VINA RESULT:      -7.9      5.467      7.888
REMARK  6 active torsions:
REMARK  status: ('A' for Active; 'I' for Inactive)
REMARK    1  A    between atoms: C1_2  and  C2_3 
REMARK       I    between atoms: C1_2  and  N2_10 
REMARK    2  A    between atoms: C2_3  and  N1_4 
REMARK    3  A    between atoms: N2_10  and  C6_11 
REMARK    4  A    between atoms: C10_17  and  N5_18 
REMARK    5  A    between atoms: N5_18  and  C11_19 
REMARK    6  A    between atoms: C11_19  and  C12_20 
ROOT
HETATM    1  C6  UNL     1      25.662   6.245  49.684  1.00  0.00     0.032 C 
HETATM    2  C7  UNL     1      24.815   7.143  50.120  1.00  0.00     0.024 C 
HETATM    3  C8  UNL     1      23.559   6.443  50.077  1.00  0.00     0.179 C 
HETATM    4  N3  UNL     1      22.789   6.201  51.233  1.00  0.00    -0.279 NA
HETATM    5  C9  UNL     1      22.892   5.065  51.875  1.00  0.00     0.229 C 
HETATM    6  N4  UNL     1      23.861   4.583  50.977  1.00  0.00    -0.225 NA
HETATM    7  C10 UNL     1      24.113   3.413  50.601  1.00  0.00     0.125 C 
HETATM    8  C18 UNL     1      25.347   3.728  49.842  1.00  0.00     0.052 C 
HETATM    9  C19 UNL     1      25.976   4.855  49.485  1.00  0.00     0.033 C 
ENDROOT
BRANCH   1  10
HETATM   10  N2  UNL     1      26.886   7.028  49.716  1.00  0.00    -0.326 N 
HETATM   11  C1  UNL     1      27.386   7.610  48.505  1.00  0.00     0.241 C 
HETATM   12  O1  UNL     1      26.758   7.437  47.430  1.00  0.00    -0.271 OA
HETATM   13  H5  UNL     1      27.520   7.261  50.535  1.00  0.00     0.169 HD
BRANCH  11  14
HETATM   14  C2  UNL     1      28.624   8.424  48.428  1.00  0.00     0.243 C 
BRANCH  14  15
HETATM   15  N1  UNL     1      29.832   7.630  48.641  1.00  0.00    -0.276 N 
HETATM   16  S1  UNL     1      30.074   5.910  48.200  1.00  0.00    -0.021 SA
HETATM   17  C3  UNL     1      31.808   5.843  48.836  1.00  0.00     0.074 A 
HETATM   18  C4  UNL     1      32.004   7.105  49.301  1.00  0.00     0.083 A 
HETATM   19  C5  UNL     1      31.010   8.047  49.216  1.00  0.00     0.254 A 
HETATM   20  O2  UNL     1      31.104   9.234  49.619  1.00  0.00    -0.268 OA
ENDBRANCH  14  15
ENDBRANCH  11  14
ENDBRANCH   1  10
BRANCH   7  21
HETATM   21  N5  UNL     1      23.659   2.092  50.797  1.00  0.00    -0.371 N 
HETATM   22  H10 UNL     1      22.870   1.725  50.223  1.00  0.00     0.161 HD
BRANCH  21  23
HETATM   23  C11 UNL     1      24.498   1.515  51.862  1.00  0.00     0.157 C 
BRANCH  23  24
HETATM   24  C12 UNL     1      23.583   0.765  52.765  1.00  0.00    -0.045 A 
HETATM   25  C13 UNL     1      24.107  -0.222  53.449  1.00  0.00     0.014 A 
HETATM   26 BR1  UNL     1      25.934  -0.741  53.350  1.00  0.00    -0.051 Br
HETATM   27  C14 UNL     1      23.163  -0.913  54.312  1.00  0.00     0.015 A 
HETATM   28  C15 UNL     1      21.960  -0.420  54.249  1.00  0.00    -0.025 A 
HETATM   29  C16 UNL     1      21.270   0.666  53.534  1.00  0.00     0.031 A 
HETATM   30  C17 UNL     1      22.249   1.381  52.642  1.00  0.00     0.041 A 
ENDBRANCH  23  24
ENDBRANCH  21  23
ENDBRANCH   7  21
TORSDOF 6
ENDMDL
MODEL 5
REMARK VINA RESULT:      -7.8      2.981      4.970
REMARK  6 active torsions:
REMARK  status: ('A' for Active; 'I' for Inactive)
REMARK    1  A    between atoms: C1_2  and  C2_3 
REMARK       I    between atoms: C1_2  and  N2_10 
REMARK    2  A    between atoms: C2_3  and  N1_4 
REMARK    3  A    between atoms: N2_10  and  C6_11 
REMARK    4  A    between atoms: C10_17  and  N5_18 
REMARK    5  A    between atoms: N5_18  and  C11_19 
REMARK    6  A    between atoms: C11_19  and  C12_20 
ROOT
HETATM    1  C6  UNL     1      22.098   2.534  51.186  1.00  0.00     0.032 C 
HETATM    2  C7  UNL     1      22.083   3.581  50.400  1.00  0.00     0.024 C 
HETATM    3  C8  UNL     1      23.334   4.225  50.705  1.00  0.00     0.179 C 
HETATM    4  N3  UNL     1      24.344   4.409  49.738  1.00  0.00    -0.279 NA
HETATM    5  C9  UNL     1      25.325   3.549  49.629  1.00  0.00     0.229 C 
HETATM    6  N4  UNL     1      24.811   2.750  50.665  1.00  0.00    -0.225 NA
HETATM    7  C10 UNL     1      25.399   2.019  51.498  1.00  0.00     0.125 C 
HETATM    8  C18 UNL     1      24.187   1.397  52.082  1.00  0.00     0.052 C 
HETATM    9  C19 UNL     1      22.868   1.590  51.950  1.00  0.00     0.033 C 
ENDROOT
BRANCH   1  10
HETATM   10  N2  UNL     1      20.803   1.963  50.856  1.00  0.00    -0.326 N 
HETATM   11  C1  UNL     1      19.666   2.270  51.672  1.00  0.00     0.241 C 
HETATM   12  O1  UNL     1      19.802   3.032  52.663  1.00  0.00    -0.271 OA
HETATM   13  H5  UNL     1      20.532   1.313  50.062  1.00  0.00     0.169 HD
BRANCH  11  14
HETATM   14  C2  UNL     1      18.302   1.741  51.423  1.00  0.00     0.243 C 
BRANCH  14  15
HETATM   15  N1  UNL     1      18.070   0.458  52.082  1.00  0.00    -0.276 N 
HETATM   16  S1  UNL     1      19.244  -0.465  53.073  1.00  0.00    -0.021 SA
HETATM   17  C3  UNL     1      18.071  -1.849  53.430  1.00  0.00     0.074 A 
HETATM   18  C4  UNL     1      16.946  -1.464  52.773  1.00  0.00     0.083 A 
HETATM   19  C5  UNL     1      16.911  -0.285  52.071  1.00  0.00     0.254 A 
HETATM   20  O2  UNL     1      15.917   0.148  51.436  1.00  0.00    -0.268 OA
ENDBRANCH  14  15
ENDBRANCH  11  14
ENDBRANCH   1  10
BRANCH   7  21
HETATM   21  N5  UNL     1      26.704   1.624  51.860  1.00  0.00    -0.371 N 
HETATM   22  H10 UNL     1      27.497   1.798  51.206  1.00  0.00     0.161 HD
BRANCH  21  23
HETATM   23  C11 UNL     1      26.601   1.012  53.197  1.00  0.00     0.157 C 
BRANCH  23  24
HETATM   24  C12 UNL     1      27.561  -0.126  53.218  1.00  0.00    -0.045 A 
HETATM   25  C13 UNL     1      28.757   0.121  53.692  1.00  0.00     0.014 A 
HETATM   26 BR1  UNL     1      29.323   1.819  54.338  1.00  0.00    -0.051 Br
HETATM   27  C14 UNL     1      29.647  -1.028  53.687  1.00  0.00     0.015 A 
HETATM   28  C15 UNL     1      29.087  -2.103  53.211  1.00  0.00    -0.025 A 
HETATM   29  C16 UNL     1      27.777  -2.491  52.663  1.00  0.00     0.031 A 
HETATM   30  C17 UNL     1      26.857  -1.299  52.670  1.00  0.00     0.041 A 
ENDBRANCH  23  24
ENDBRANCH  21  23
ENDBRANCH   7  21
TORSDOF 6
ENDMDL
MODEL 6
REMARK VINA RESULT:      -7.7      6.297      9.104
REMARK  6 active torsions:
REMARK  status: ('A' for Active; 'I' for Inactive)
REMARK    1  A    between atoms: C1_2  and  C2_3 
REMARK       I    between atoms: C1_2  and  N2_10 
REMARK    2  A    between atoms: C2_3  and  N1_4 
REMARK    3  A    between atoms: N2_10  and  C6_11 
REMARK    4  A    between atoms: C10_17  and  N5_18 
REMARK    5  A    between atoms: N5_18  and  C11_19 
REMARK    6  A    between atoms: C11_19  and  C12_20 
ROOT
HETATM    1  C6  UNL     1      27.222   6.825  48.901  1.00  0.00     0.032 C 
HETATM    2  C7  UNL     1      26.827   8.044  49.170  1.00  0.00     0.024 C 
HETATM    3  C8  UNL     1      25.393   7.933  49.110  1.00  0.00     0.179 C 
HETATM    4  N3  UNL     1      24.569   8.190  50.224  1.00  0.00    -0.279 NA
HETATM    5  C9  UNL     1      24.166   7.210  50.994  1.00  0.00     0.229 C 
HETATM    6  N4  UNL     1      24.859   6.254  50.230  1.00  0.00    -0.225 NA
HETATM    7  C10 UNL     1      24.599   5.047  50.005  1.00  0.00     0.125 C 
HETATM    8  C18 UNL     1      25.867   4.715  49.312  1.00  0.00     0.052 C 
HETATM    9  C19 UNL     1      26.922   5.419  48.881  1.00  0.00     0.033 C 
ENDROOT
BRANCH   1  10
HETATM   10  N2  UNL     1      28.662   7.023  48.939  1.00  0.00    -0.326 N 
HETATM   11  C1  UNL     1      29.365   7.335  47.730  1.00  0.00     0.241 C 
HETATM   12  O1  UNL     1      28.728   7.436  46.651  1.00  0.00    -0.271 OA
HETATM   13  H5  UNL     1      29.331   6.972  49.762  1.00  0.00     0.169 HD
BRANCH  11  14
HETATM   14  C2  UNL     1      30.831   7.554  47.659  1.00  0.00     0.243 C 
BRANCH  14  15
HETATM   15  N1  UNL     1      31.573   6.316  47.433  1.00  0.00    -0.276 N 
HETATM   16  S1  UNL     1      32.432   5.840  45.933  1.00  0.00    -0.021 SA
HETATM   17  C3  UNL     1      33.010   4.220  46.609  1.00  0.00     0.074 A 
HETATM   18  C4  UNL     1      32.499   4.222  47.867  1.00  0.00     0.083 A 
HETATM   19  C5  UNL     1      31.756   5.283  48.323  1.00  0.00     0.254 A 
HETATM   20  O2  UNL     1      31.247   5.368  49.468  1.00  0.00    -0.268 OA
ENDBRANCH  14  15
ENDBRANCH  11  14
ENDBRANCH   1  10
BRANCH   7  21
HETATM   21  N5  UNL     1      23.624   4.075  50.311  1.00  0.00    -0.371 N 
HETATM   22  H10 UNL     1      22.698   4.371  50.686  1.00  0.00     0.161 HD
BRANCH  21  23
HETATM   23  C11 UNL     1      24.222   2.767  49.988  1.00  0.00     0.157 C 
BRANCH  23  24
HETATM   24  C12 UNL     1      23.823   1.837  51.080  1.00  0.00    -0.045 A 
HETATM   25  C13 UNL     1      24.774   1.435  51.888  1.00  0.00     0.014 A 
HETATM   26 BR1  UNL     1      26.596   1.962  51.742  1.00  0.00    -0.051 Br
HETATM   27  C14 UNL     1      24.322   0.531  52.932  1.00  0.00     0.015 A 
HETATM   28  C15 UNL     1      23.045   0.285  52.875  1.00  0.00    -0.025 A 
HETATM   29  C16 UNL     1      21.903   0.673  52.032  1.00  0.00     0.031 A 
HETATM   30  C17 UNL     1      22.373   1.611  50.952  1.00  0.00     0.041 A 
ENDBRANCH  23  24
ENDBRANCH  21  23
ENDBRANCH   7  21
TORSDOF 6
ENDMDL
MODEL 7
REMARK VINA RESULT:      -7.6      4.140      9.208
REMARK  6 active torsions:
REMARK  status: ('A' for Active; 'I' for Inactive)
REMARK    1  A    between atoms: C1_2  and  C2_3 
REMARK       I    between atoms: C1_2  and  N2_10 
REMARK    2  A    between atoms: C2_3  and  N1_4 
REMARK    3  A    between atoms: N2_10  and  C6_11 
REMARK    4  A    between atoms: C10_17  and  N5_18 
REMARK    5  A    between atoms: N5_18  and  C11_19 
REMARK    6  A    between atoms: C11_19  and  C12_20 
ROOT
HETATM    1  C6  UNL     1      25.086   2.806  52.051  1.00  0.00     0.032 C 
HETATM    2  C7  UNL     1      25.937   2.733  51.059  1.00  0.00     0.024 C 
HETATM    3  C8  UNL     1      25.279   3.481  50.021  1.00  0.00     0.179 C 
HETATM    4  N3  UNL     1      25.834   4.652  49.466  1.00  0.00    -0.279 NA
HETATM    5  C9  UNL     1      25.489   5.831  49.918  1.00  0.00     0.229 C 
HETATM    6  N4  UNL     1      24.623   5.270  50.873  1.00  0.00    -0.225 NA
HETATM    7  C10 UNL     1      23.558   5.714  51.367  1.00  0.00     0.125 C 
HETATM    8  C18 UNL     1      23.382   4.659  52.394  1.00  0.00     0.052 C 
HETATM    9  C19 UNL     1      23.997   3.504  52.679  1.00  0.00     0.033 C 
ENDROOT
BRANCH   1  10
HETATM   10  N2  UNL     1      25.792   2.004  53.037  1.00  0.00    -0.326 N 
HETATM   11  C1  UNL     1      25.339   0.675  53.323  1.00  0.00     0.241 C 
HETATM   12  O1  UNL     1      24.337   0.218  52.717  1.00  0.00    -0.271 OA
HETATM   13  H5  UNL     1      26.643   2.246  53.623  1.00  0.00     0.169 HD
BRANCH  11  14
HETATM   14  C2  UNL     1      25.986  -0.225  54.310  1.00  0.00     0.243 C 
BRANCH  14  15
HETATM   15  N1  UNL     1      27.400  -0.450  54.020  1.00  0.00    -0.276 N 
HETATM   16  S1  UNL     1      28.777   0.570  54.544  1.00  0.00    -0.021 SA
HETATM   17  C3  UNL     1      30.056  -0.486  53.728  1.00  0.00     0.074 A 
HETATM   18  C4  UNL     1      29.311  -1.472  53.163  1.00  0.00     0.083 A 
HETATM   19  C5  UNL     1      27.945  -1.484  53.293  1.00  0.00     0.254 A 
HETATM   20  O2  UNL     1      27.181  -2.354  52.805  1.00  0.00    -0.268 OA
ENDBRANCH  14  15
ENDBRANCH  11  14
ENDBRANCH   1  10
BRANCH   7  21
HETATM   21  N5  UNL     1      22.712   6.839  51.282  1.00  0.00    -0.371 N 
HETATM   22  H10 UNL     1      22.853   7.643  51.931  1.00  0.00     0.161 HD
BRANCH  21  23
HETATM   23  C11 UNL     1      21.758   6.564  50.192  1.00  0.00     0.157 C 
BRANCH  23  24
HETATM   24  C12 UNL     1      22.259   7.293  48.995  1.00  0.00    -0.045 A 
HETATM   25  C13 UNL     1      22.534   6.570  47.937  1.00  0.00     0.014 A 
HETATM   26 BR1  UNL     1      22.332   4.681  47.850  1.00  0.00    -0.051 Br
HETATM   27  C14 UNL     1      23.017   7.339  46.802  1.00  0.00     0.015 A 
HETATM   28  C15 UNL     1      23.088   8.616  47.046  1.00  0.00    -0.025 A 
HETATM   29  C16 UNL     1      22.811   9.522  48.172  1.00  0.00     0.031 A 
HETATM   30  C17 UNL     1      22.309   8.724  49.346  1.00  0.00     0.041 A 
ENDBRANCH  23  24
ENDBRANCH  21  23
ENDBRANCH   7  21
TORSDOF 6
ENDMDL
MODEL 8
REMARK VINA RESULT:      -7.6      6.662      8.714
REMARK  6 active torsions:
REMARK  status: ('A' for Active; 'I' for Inactive)
REMARK    1  A    between atoms: C1_2  and  C2_3 
REMARK       I    between atoms: C1_2  and  N2_10 
REMARK    2  A    between atoms: C2_3  and  N1_4 
REMARK    3  A    between atoms: N2_10  and  C6_11 
REMARK    4  A    between atoms: C10_17  and  N5_18 
REMARK    5  A    between atoms: N5_18  and  C11_19 
REMARK    6  A    between atoms: C11_19  and  C12_20 
ROOT
HETATM    1  C6  UNL     1      27.405   6.333  48.714  1.00  0.00     0.032 C 
HETATM    2  C7  UNL     1      26.700   7.422  48.888  1.00  0.00     0.024 C 
HETATM    3  C8  UNL     1      25.347   6.933  48.852  1.00  0.00     0.179 C 
HETATM    4  N3  UNL     1      24.471   7.053  49.951  1.00  0.00    -0.279 NA
HETATM    5  C9  UNL     1      24.333   6.067  50.802  1.00  0.00     0.229 C 
HETATM    6  N4  UNL     1      25.262   5.269  50.110  1.00  0.00    -0.225 NA
HETATM    7  C10 UNL     1      25.331   4.022  49.987  1.00  0.00     0.125 C 
HETATM    8  C18 UNL     1      26.649   3.981  49.309  1.00  0.00     0.052 C 
HETATM    9  C19 UNL     1      27.486   4.900  48.812  1.00  0.00     0.033 C 
ENDROOT
BRANCH   1  10
HETATM   10  N2  UNL     1      28.741   6.905  48.721  1.00  0.00    -0.326 N 
HETATM   11  C1  UNL     1      29.276   7.467  47.516  1.00  0.00     0.241 C 
HETATM   12  O1  UNL     1      28.582   7.460  46.468  1.00  0.00    -0.271 OA
HETATM   13  H5  UNL     1      29.440   6.985  49.516  1.00  0.00     0.169 HD
BRANCH  11  14
HETATM   14  C2  UNL     1      30.626   8.074  47.415  1.00  0.00     0.243 C 
BRANCH  14  15
HETATM   15  N1  UNL     1      30.603   9.525  47.586  1.00  0.00    -0.276 N 
HETATM   16  S1  UNL     1      30.424  10.753  46.293  1.00  0.00    -0.021 SA
HETATM   17  C3  UNL     1      30.509  12.192  47.452  1.00  0.00     0.074 A 
HETATM   18  C4  UNL     1      30.660  11.591  48.661  1.00  0.00     0.083 A 
HETATM   19  C5  UNL     1      30.713  10.224  48.766  1.00  0.00     0.254 A 
HETATM   20  O2  UNL     1      30.850   9.587  49.840  1.00  0.00    -0.268 OA
ENDBRANCH  14  15
ENDBRANCH  11  14
ENDBRANCH   1  10
BRANCH   7  21
HETATM   21  N5  UNL     1      24.644   2.855  50.381  1.00  0.00    -0.371 N 
HETATM   22  H10 UNL     1      23.718   2.632  49.957  1.00  0.00     0.161 HD
BRANCH  21  23
HETATM   23  C11 UNL     1      25.492   2.188  51.385  1.00  0.00     0.157 C 
BRANCH  23  24
HETATM   24  C12 UNL     1      24.588   1.338  52.207  1.00  0.00    -0.045 A 
HETATM   25  C13 UNL     1      25.120   0.277  52.761  1.00  0.00     0.014 A 
HETATM   26 BR1  UNL     1      26.944  -0.228  52.574  1.00  0.00    -0.051 Br
HETATM   27  C14 UNL     1      24.188  -0.510  53.552  1.00  0.00     0.015 A 
HETATM   28  C15 UNL     1      22.985  -0.012  53.566  1.00  0.00    -0.025 A 
HETATM   29  C16 UNL     1      22.287   1.152  52.995  1.00  0.00     0.031 A 
HETATM   30  C17 UNL     1      23.255   1.966  52.178  1.00  0.00     0.041 A 
ENDBRANCH  23  24
ENDBRANCH  21  23
ENDBRANCH   7  21
TORSDOF 6
ENDMDL
MODEL 9
REMARK VINA RESULT:      -7.2      6.064      9.034
REMARK  6 active torsions:
REMARK  status: ('A' for Active; 'I' for Inactive)
REMARK    1  A    between atoms: C1_2  and  C2_3 
REMARK       I    between atoms: C1_2  and  N2_10 
REMARK    2  A    between atoms: C2_3  and  N1_4 
REMARK    3  A    between atoms: N2_10  and  C6_11 
REMARK    4  A    between atoms: C10_17  and  N5_18 
REMARK    5  A    between atoms: N5_18  and  C11_19 
REMARK    6  A    between atoms: C11_19  and  C12_20 
ROOT
HETATM    1  C6  UNL     1      26.012   4.166  50.102  1.00  0.00     0.032 C 
HETATM    2  C7  UNL     1      24.847   4.565  50.545  1.00  0.00     0.024 C 
HETATM    3  C8  UNL     1      24.947   5.998  50.454  1.00  0.00     0.179 C 
HETATM    4  N3  UNL     1      24.092   6.764  49.635  1.00  0.00    -0.279 NA
HETATM    5  C9  UNL     1      24.461   7.108  48.427  1.00  0.00     0.229 C 
HETATM    6  N4  UNL     1      25.694   6.443  48.556  1.00  0.00    -0.225 NA
HETATM    7  C10 UNL     1      26.812   6.695  48.047  1.00  0.00     0.125 C 
HETATM    8  C18 UNL     1      27.500   5.462  48.501  1.00  0.00     0.052 C 
HETATM    9  C19 UNL     1      27.179   4.444  49.309  1.00  0.00     0.033 C 
ENDROOT
BRANCH   1  10
HETATM   10  N2  UNL     1      25.853   2.729  50.260  1.00  0.00    -0.326 N 
HETATM   11  C1  UNL     1      26.588   2.045  51.282  1.00  0.00     0.241 C 
HETATM   12  O1  UNL     1      27.360   2.695  52.031  1.00  0.00    -0.271 OA
HETATM   13  H5  UNL     1      25.247   2.051  49.713  1.00  0.00     0.169 HD
BRANCH  11  14
HETATM   14  C2  UNL     1      26.499   0.584  51.527  1.00  0.00     0.243 C 
BRANCH  14  15
HETATM   15  N1  UNL     1      25.419   0.235  52.447  1.00  0.00    -0.276 N 
HETATM   16  S1  UNL     1      23.730   0.830  52.391  1.00  0.00    -0.021 SA
HETATM   17  C3  UNL     1      23.191  -0.130  53.876  1.00  0.00     0.074 A 
HETATM   18  C4  UNL     1      24.328  -0.780  54.239  1.00  0.00     0.083 A 
HETATM   19  C5  UNL     1      25.490  -0.615  53.527  1.00  0.00     0.254 A 
HETATM   20  O2  UNL     1      26.583  -1.175  53.791  1.00  0.00    -0.268 OA
ENDBRANCH  14  15
ENDBRANCH  11  14
ENDBRANCH   1  10
BRANCH   7  21
HETATM   21  N5  UNL     1      27.426   7.636  47.194  1.00  0.00    -0.371 N 
HETATM   22  H10 UNL     1      26.850   8.379  46.744  1.00  0.00     0.161 HD
BRANCH  21  23
HETATM   23  C11 UNL     1      28.859   7.295  47.157  1.00  0.00     0.157 C 
BRANCH  23  24
HETATM   24  C12 UNL     1      29.561   8.323  47.974  1.00  0.00    -0.045 A 
HETATM   25  C13 UNL     1      30.567   7.910  48.704  1.00  0.00     0.014 A 
HETATM   26 BR1  UNL     1      31.165   6.106  48.778  1.00  0.00    -0.051 Br
HETATM   27  C14 UNL     1      31.211   8.959  49.477  1.00  0.00     0.015 A 
HETATM   28  C15 UNL     1      30.667  10.129  49.299  1.00  0.00    -0.025 A 
HETATM   29  C16 UNL     1      29.558  10.701  48.518  1.00  0.00     0.031 A 
HETATM   30  C17 UNL     1      28.894   9.612  47.718  1.00  0.00     0.041 A 
ENDBRANCH  23  24
ENDBRANCH  21  23
ENDBRANCH   7  21
TORSDOF 6
ENDMDL
