MODEL 1
REMARK VINA RESULT:      -7.5      0.000      0.000
REMARK  9 active torsions:
REMARK  status: ('A' for Active; 'I' for Inactive)
REMARK    1  A    between atoms: C2_2  and  C3_3 
REMARK    2  A    between atoms: C4_5  and  C5_6 
REMARK    3  A    between atoms: C6_7  and  C7_8 
REMARK    4  A    between atoms: C10_12  and  O1_13 
REMARK    5  A    between atoms: O1_13  and  C11_14 
REMARK    6  A    between atoms: C11_14  and  C12_15 
REMARK    7  A    between atoms: C12_15  and  N3_16 
REMARK    8  A    between atoms: C12_15  and  C13_17 
REMARK    9  A    between atoms: C13_17  and  C14_18 
ROOT
HETATM    1  C7  UNL     1      26.036   0.311  53.676  1.00  0.00    -0.016 A 
HETATM    2  C8  UNL     1      27.001   0.358  54.651  1.00  0.00     0.127 A 
HETATM    3  N2  UNL     1      28.001   1.244  54.482  1.00  0.00    -0.269 NA
HETATM    4  C9  UNL     1      28.009   2.028  53.384  1.00  0.00     0.152 A 
HETATM    5  C10 UNL     1      27.046   1.999  52.384  1.00  0.00     0.087 A 
HETATM    6  C20 UNL     1      26.023   1.102  52.546  1.00  0.00     0.051 A 
ENDROOT
BRANCH   5   7
HETATM    7  O1  UNL     1      27.164   2.857  51.301  1.00  0.00    -0.348 OA
BRANCH   7   8
HETATM    8  C11 UNL     1      26.403   2.559  50.144  1.00  0.00     0.211 C 
BRANCH   8   9
HETATM    9  C12 UNL     1      25.548   3.774  49.845  1.00  0.00     0.246 C 
BRANCH   9  10
HETATM   10  N3  UNL     1      26.398   4.930  50.071  1.00  0.00     0.085 N 
HETATM   11  H14 UNL     1      25.943   5.643  50.686  1.00  0.00     0.313 HD
HETATM   12  H15 UNL     1      27.346   4.657  50.372  1.00  0.00     0.313 HD
ENDBRANCH   9  10
BRANCH   9  13
HETATM   13  C13 UNL     1      24.323   3.800  50.727  1.00  0.00     0.076 C 
BRANCH  13  14
HETATM   14  C14 UNL     1      23.349   2.830  50.110  1.00  0.00    -0.056 A 
HETATM   15  C15 UNL     1      22.717   1.889  50.903  1.00  0.00     0.007 A 
HETATM   16  C16 UNL     1      21.819   0.983  50.369  1.00  0.00     0.001 A 
HETATM   17  C17 UNL     1      21.528   0.999  49.008  1.00  0.00     0.000 A 
HETATM   18  C18 UNL     1      22.161   1.940  48.216  1.00  0.00     0.001 A 
HETATM   19  C19 UNL     1      23.068   2.855  48.752  1.00  0.00     0.007 A 
ENDBRANCH  13  14
ENDBRANCH   9  13
ENDBRANCH   8   9
ENDBRANCH   7   8
ENDBRANCH   5   7
BRANCH   1  20
HETATM   20  C6  UNL     1      24.933  -0.632  53.814  1.00  0.00     0.011 C 
HETATM   21  C5  UNL     1      23.661  -0.373  53.562  1.00  0.00     0.007 C 
BRANCH  21  22
HETATM   22  C4  UNL     1      22.471  -1.278  53.677  1.00  0.00     0.178 A 
HETATM   23  C3  UNL     1      21.221  -0.612  54.045  1.00  0.00     0.036 A 
HETATM   24  N1  UNL     1      21.924  -1.360  54.942  1.00  0.00    -0.281 NA
BRANCH  23  25
HETATM   25  C2  UNL     1      20.039   0.238  53.742  1.00  0.00     0.052 C 
HETATM   26  C1  UNL     1      19.083  -0.514  52.824  1.00  0.00     0.011 C 
ENDBRANCH  23  25
ENDBRANCH  21  22
ENDBRANCH   1  20
TORSDOF 9
ENDMDL
MODEL 2
REMARK VINA RESULT:      -7.2      2.717      5.544
REMARK  9 active torsions:
REMARK  status: ('A' for Active; 'I' for Inactive)
REMARK    1  A    between atoms: C2_2  and  C3_3 
REMARK    2  A    between atoms: C4_5  and  C5_6 
REMARK    3  A    between atoms: C6_7  and  C7_8 
REMARK    4  A    between atoms: C10_12  and  O1_13 
REMARK    5  A    between atoms: O1_13  and  C11_14 
REMARK    6  A    between atoms: C11_14  and  C12_15 
REMARK    7  A    between atoms: C12_15  and  N3_16 
REMARK    8  A    between atoms: C12_15  and  C13_17 
REMARK    9  A    between atoms: C13_17  and  C14_18 
ROOT
HETATM    1  C7  UNL     1      24.837   2.227  53.009  1.00  0.00    -0.016 A 
HETATM    2  C8  UNL     1      24.462   0.975  52.592  1.00  0.00     0.127 A 
HETATM    3  N2  UNL     1      23.213   0.838  52.107  1.00  0.00    -0.269 NA
HETATM    4  C9  UNL     1      22.404   1.917  52.056  1.00  0.00     0.152 A 
HETATM    5  C10 UNL     1      22.759   3.193  52.472  1.00  0.00     0.087 A 
HETATM    6  C20 UNL     1      24.029   3.343  52.968  1.00  0.00     0.051 A 
ENDROOT
BRANCH   5   7
HETATM    7  O1  UNL     1      21.837   4.224  52.371  1.00  0.00    -0.348 OA
BRANCH   7   8
HETATM    8  C11 UNL     1      21.263   4.465  51.098  1.00  0.00     0.211 C 
BRANCH   8   9
HETATM    9  C12 UNL     1      22.245   5.313  50.317  1.00  0.00     0.246 C 
BRANCH   9  10
HETATM   10  N3  UNL     1      21.558   6.558  50.021  1.00  0.00     0.085 N 
HETATM   11  H14 UNL     1      21.783   7.309  50.712  1.00  0.00     0.313 HD
HETATM   12  H15 UNL     1      21.680   6.840  49.036  1.00  0.00     0.313 HD
ENDBRANCH   9  10
BRANCH   9  13
HETATM   13  C13 UNL     1      22.684   4.605  49.057  1.00  0.00     0.076 C 
BRANCH  13  14
HETATM   14  C14 UNL     1      24.187   4.526  49.131  1.00  0.00    -0.056 A 
HETATM   15  C15 UNL     1      24.798   3.338  49.492  1.00  0.00     0.007 A 
HETATM   16  C16 UNL     1      26.174   3.231  49.570  1.00  0.00     0.001 A 
HETATM   17  C17 UNL     1      26.983   4.326  49.284  1.00  0.00     0.000 A 
HETATM   18  C18 UNL     1      26.371   5.514  48.923  1.00  0.00     0.001 A 
HETATM   19  C19 UNL     1      24.982   5.624  48.844  1.00  0.00     0.007 A 
ENDBRANCH  13  14
ENDBRANCH   9  13
ENDBRANCH   8   9
ENDBRANCH   7   8
ENDBRANCH   5   7
BRANCH   1  20
HETATM   20  C6  UNL     1      26.180   2.424  53.542  1.00  0.00     0.011 C 
HETATM   21  C5  UNL     1      27.260   1.752  53.180  1.00  0.00     0.007 C 
BRANCH  21  22
HETATM   22  C4  UNL     1      28.669   1.890  53.673  1.00  0.00     0.178 A 
HETATM   23  C3  UNL     1      29.343   0.629  53.980  1.00  0.00     0.036 A 
HETATM   24  N1  UNL     1      28.879   1.449  54.964  1.00  0.00    -0.281 NA
BRANCH  23  25
HETATM   25  C2  UNL     1      30.031  -0.631  53.588  1.00  0.00     0.052 C 
HETATM   26  C1  UNL     1      29.002  -1.669  53.157  1.00  0.00     0.011 C 
ENDBRANCH  23  25
ENDBRANCH  21  22
ENDBRANCH   1  20
TORSDOF 9
ENDMDL
MODEL 3
REMARK VINA RESULT:      -7.1      2.318      5.643
REMARK  9 active torsions:
REMARK  status: ('A' for Active; 'I' for Inactive)
REMARK    1  A    between atoms: C2_2  and  C3_3 
REMARK    2  A    between atoms: C4_5  and  C5_6 
REMARK    3  A    between atoms: C6_7  and  C7_8 
REMARK    4  A    between atoms: C10_12  and  O1_13 
REMARK    5  A    between atoms: O1_13  and  C11_14 
REMARK    6  A    between atoms: C11_14  and  C12_15 
REMARK    7  A    between atoms: C12_15  and  N3_16 
REMARK    8  A    between atoms: C12_15  and  C13_17 
REMARK    9  A    between atoms: C13_17  and  C14_18 
ROOT
HETATM    1  C7  UNL     1      24.562  -0.516  54.100  1.00  0.00    -0.016 A 
HETATM    2  C8  UNL     1      24.525  -1.128  55.328  1.00  0.00     0.127 A 
HETATM    3  N2  UNL     1      23.326  -1.568  55.758  1.00  0.00    -0.269 NA
HETATM    4  C9  UNL     1      22.240  -1.391  54.978  1.00  0.00     0.152 A 
HETATM    5  C10 UNL     1      22.252  -0.776  53.733  1.00  0.00     0.087 A 
HETATM    6  C20 UNL     1      23.466  -0.324  53.286  1.00  0.00     0.051 A 
ENDROOT
BRANCH   5   7
HETATM    7  O1  UNL     1      21.066  -0.652  53.024  1.00  0.00    -0.348 OA
BRANCH   7   8
HETATM    8  C11 UNL     1      20.277   0.500  53.264  1.00  0.00     0.211 C 
BRANCH   8   9
HETATM    9  C12 UNL     1      20.308   1.336  52.001  1.00  0.00     0.246 C 
BRANCH   9  10
HETATM   10  N3  UNL     1      18.988   1.929  51.878  1.00  0.00     0.085 N 
HETATM   11  H14 UNL     1      18.379   1.717  52.700  1.00  0.00     0.313 HD
HETATM   12  H15 UNL     1      19.038   2.931  51.637  1.00  0.00     0.313 HD
ENDBRANCH   9  10
BRANCH   9  13
HETATM   13  C13 UNL     1      20.652   0.487  50.801  1.00  0.00     0.076 C 
BRANCH  13  14
HETATM   14  C14 UNL     1      21.583   1.321  49.959  1.00  0.00    -0.056 A 
HETATM   15  C15 UNL     1      22.547   2.105  50.566  1.00  0.00     0.007 A 
HETATM   16  C16 UNL     1      23.416   2.882  49.823  1.00  0.00     0.001 A 
HETATM   17  C17 UNL     1      23.339   2.893  48.434  1.00  0.00     0.000 A 
HETATM   18  C18 UNL     1      22.374   2.108  47.827  1.00  0.00     0.001 A 
HETATM   19  C19 UNL     1      21.495   1.323  48.575  1.00  0.00     0.007 A 
ENDBRANCH  13  14
ENDBRANCH   9  13
ENDBRANCH   8   9
ENDBRANCH   7   8
ENDBRANCH   5   7
BRANCH   1  20
HETATM   20  C6  UNL     1      25.836  -0.023  53.592  1.00  0.00     0.011 C 
HETATM   21  C5  UNL     1      26.725   0.672  54.282  1.00  0.00     0.007 C 
BRANCH  21  22
HETATM   22  C4  UNL     1      28.051   1.215  53.840  1.00  0.00     0.178 A 
HETATM   23  C3  UNL     1      29.183   0.307  54.025  1.00  0.00     0.036 A 
HETATM   24  N1  UNL     1      28.979   1.372  54.850  1.00  0.00    -0.281 NA
BRANCH  23  25
HETATM   25  C2  UNL     1      29.998  -0.880  53.651  1.00  0.00     0.052 C 
HETATM   26  C1  UNL     1      29.083  -2.032  53.255  1.00  0.00     0.011 C 
ENDBRANCH  23  25
ENDBRANCH  21  22
ENDBRANCH   1  20
TORSDOF 9
ENDMDL
MODEL 4
REMARK VINA RESULT:      -7.0      2.576      5.828
REMARK  9 active torsions:
REMARK  status: ('A' for Active; 'I' for Inactive)
REMARK    1  A    between atoms: C2_2  and  C3_3 
REMARK    2  A    between atoms: C4_5  and  C5_6 
REMARK    3  A    between atoms: C6_7  and  C7_8 
REMARK    4  A    between atoms: C10_12  and  O1_13 
REMARK    5  A    between atoms: O1_13  and  C11_14 
REMARK    6  A    between atoms: C11_14  and  C12_15 
REMARK    7  A    between atoms: C12_15  and  N3_16 
REMARK    8  A    between atoms: C12_15  and  C13_17 
REMARK    9  A    between atoms: C13_17  and  C14_18 
ROOT
HETATM    1  C7  UNL     1      24.411   2.869  52.199  1.00  0.00    -0.016 A 
HETATM    2  C8  UNL     1      25.087   2.842  51.005  1.00  0.00     0.127 A 
HETATM    3  N2  UNL     1      24.437   3.307  49.921  1.00  0.00    -0.269 NA
HETATM    4  C9  UNL     1      23.176   3.768  50.057  1.00  0.00     0.152 A 
HETATM    5  C10 UNL     1      22.471   3.805  51.252  1.00  0.00     0.087 A 
HETATM    6  C20 UNL     1      23.123   3.335  52.361  1.00  0.00     0.051 A 
ENDROOT
BRANCH   5   7
HETATM    7  O1  UNL     1      21.176   4.303  51.263  1.00  0.00    -0.348 OA
BRANCH   7   8
HETATM    8  C11 UNL     1      20.185   3.536  51.925  1.00  0.00     0.211 C 
BRANCH   8   9
HETATM    9  C12 UNL     1      20.037   2.239  51.157  1.00  0.00     0.246 C 
BRANCH   9  10
HETATM   10  N3  UNL     1      19.208   2.545  50.004  1.00  0.00     0.085 N 
HETATM   11  H14 UNL     1      19.663   3.229  49.358  1.00  0.00     0.313 HD
HETATM   12  H15 UNL     1      18.865   1.690  49.540  1.00  0.00     0.313 HD
ENDBRANCH   9  10
BRANCH   9  13
HETATM   13  C13 UNL     1      19.416   1.169  52.022  1.00  0.00     0.076 C 
BRANCH  13  14
HETATM   14  C14 UNL     1      20.558   0.519  52.760  1.00  0.00    -0.056 A 
HETATM   15  C15 UNL     1      21.653   0.047  52.058  1.00  0.00     0.007 A 
HETATM   16  C16 UNL     1      22.718  -0.554  52.702  1.00  0.00     0.001 A 
HETATM   17  C17 UNL     1      22.712  -0.699  54.087  1.00  0.00     0.000 A 
HETATM   18  C18 UNL     1      21.617  -0.227  54.788  1.00  0.00     0.001 A 
HETATM   19  C19 UNL     1      20.540   0.381  54.139  1.00  0.00     0.007 A 
ENDBRANCH  13  14
ENDBRANCH   9  13
ENDBRANCH   8   9
ENDBRANCH   7   8
ENDBRANCH   5   7
BRANCH   1  20
HETATM   20  C6  UNL     1      25.073   2.376  53.400  1.00  0.00     0.011 C 
HETATM   21  C5  UNL     1      25.830   1.294  53.475  1.00  0.00     0.007 C 
BRANCH  21  22
HETATM   22  C4  UNL     1      26.545   0.720  54.662  1.00  0.00     0.178 A 
HETATM   23  C3  UNL     1      27.838   0.104  54.367  1.00  0.00     0.036 A 
HETATM   24  N1  UNL     1      26.730  -0.648  54.622  1.00  0.00    -0.281 NA
BRANCH  23  25
HETATM   25  C2  UNL     1      29.287   0.169  54.034  1.00  0.00     0.052 C 
HETATM   26  C1  UNL     1      29.758  -1.182  53.511  1.00  0.00     0.011 C 
ENDBRANCH  23  25
ENDBRANCH  21  22
ENDBRANCH   1  20
TORSDOF 9
ENDMDL
MODEL 5
REMARK VINA RESULT:      -7.0      2.004      5.158
REMARK  9 active torsions:
REMARK  status: ('A' for Active; 'I' for Inactive)
REMARK    1  A    between atoms: C2_2  and  C3_3 
REMARK    2  A    between atoms: C4_5  and  C5_6 
REMARK    3  A    between atoms: C6_7  and  C7_8 
REMARK    4  A    between atoms: C10_12  and  O1_13 
REMARK    5  A    between atoms: O1_13  and  C11_14 
REMARK    6  A    between atoms: C11_14  and  C12_15 
REMARK    7  A    between atoms: C12_15  and  N3_16 
REMARK    8  A    between atoms: C12_15  and  C13_17 
REMARK    9  A    between atoms: C13_17  and  C14_18 
ROOT
HETATM    1  C7  UNL     1      21.991  -0.578  53.294  1.00  0.00    -0.016 A 
HETATM    2  C8  UNL     1      21.278  -1.203  54.286  1.00  0.00     0.127 A 
HETATM    3  N2  UNL     1      21.975  -1.682  55.334  1.00  0.00    -0.269 NA
HETATM    4  C9  UNL     1      23.316  -1.529  55.359  1.00  0.00     0.152 A 
HETATM    5  C10 UNL     1      24.060  -0.902  54.369  1.00  0.00     0.087 A 
HETATM    6  C20 UNL     1      23.360  -0.411  53.297  1.00  0.00     0.051 A 
ENDROOT
BRANCH   5   7
HETATM    7  O1  UNL     1      25.436  -0.808  54.508  1.00  0.00    -0.348 OA
BRANCH   7   8
HETATM    8  C11 UNL     1      26.219  -0.860  53.329  1.00  0.00     0.211 C 
BRANCH   8   9
HETATM    9  C12 UNL     1      27.312   0.180  53.470  1.00  0.00     0.246 C 
BRANCH   9  10
HETATM   10  N3  UNL     1      28.259  -0.358  54.430  1.00  0.00     0.085 N 
HETATM   11  H14 UNL     1      29.209   0.067  54.332  1.00  0.00     0.313 HD
HETATM   12  H15 UNL     1      27.885  -0.337  55.392  1.00  0.00     0.313 HD
ENDBRANCH   9  10
BRANCH   9  13
HETATM   13  C13 UNL     1      26.742   1.501  53.927  1.00  0.00     0.076 C 
BRANCH  13  14
HETATM   14  C14 UNL     1      26.120   2.128  52.706  1.00  0.00    -0.056 A 
HETATM   15  C15 UNL     1      26.839   2.200  51.526  1.00  0.00     0.007 A 
HETATM   16  C16 UNL     1      26.300   2.769  50.388  1.00  0.00     0.001 A 
HETATM   17  C17 UNL     1      25.008   3.287  50.404  1.00  0.00     0.000 A 
HETATM   18  C18 UNL     1      24.290   3.215  51.584  1.00  0.00     0.001 A 
HETATM   19  C19 UNL     1      24.833   2.641  52.735  1.00  0.00     0.007 A 
ENDBRANCH  13  14
ENDBRANCH   9  13
ENDBRANCH   8   9
ENDBRANCH   7   8
ENDBRANCH   5   7
BRANCH   1  20
HETATM   20  C6  UNL     1      21.281  -0.042  52.139  1.00  0.00     0.011 C 
HETATM   21  C5  UNL     1      21.184   1.237  51.818  1.00  0.00     0.007 C 
BRANCH  21  22
HETATM   22  C4  UNL     1      20.478   1.870  50.656  1.00  0.00     0.178 A 
HETATM   23  C3  UNL     1      21.308   2.090  49.473  1.00  0.00     0.036 A 
HETATM   24  N1  UNL     1      20.952   3.115  50.297  1.00  0.00    -0.281 NA
BRANCH  23  25
HETATM   25  C2  UNL     1      22.029   1.620  48.259  1.00  0.00     0.052 C 
HETATM   26  C1  UNL     1      22.322   2.801  47.342  1.00  0.00     0.011 C 
ENDBRANCH  23  25
ENDBRANCH  21  22
ENDBRANCH   1  20
TORSDOF 9
ENDMDL
MODEL 6
REMARK VINA RESULT:      -7.0      2.267      5.597
REMARK  9 active torsions:
REMARK  status: ('A' for Active; 'I' for Inactive)
REMARK    1  A    between atoms: C2_2  and  C3_3 
REMARK    2  A    between atoms: C4_5  and  C5_6 
REMARK    3  A    between atoms: C6_7  and  C7_8 
REMARK    4  A    between atoms: C10_12  and  O1_13 
REMARK    5  A    between atoms: O1_13  and  C11_14 
REMARK    6  A    between atoms: C11_14  and  C12_15 
REMARK    7  A    between atoms: C12_15  and  N3_16 
REMARK    8  A    between atoms: C12_15  and  C13_17 
REMARK    9  A    between atoms: C13_17  and  C14_18 
ROOT
HETATM    1  C7  UNL     1      23.372   0.468  52.878  1.00  0.00    -0.016 A 
HETATM    2  C8  UNL     1      22.231  -0.267  52.674  1.00  0.00     0.127 A 
HETATM    3  N2  UNL     1      21.277   0.284  51.900  1.00  0.00    -0.269 NA
HETATM    4  C9  UNL     1      21.482   1.509  51.372  1.00  0.00     0.152 A 
HETATM    5  C10 UNL     1      22.626   2.272  51.564  1.00  0.00     0.087 A 
HETATM    6  C20 UNL     1      23.604   1.721  52.350  1.00  0.00     0.051 A 
ENDROOT
BRANCH   5   7
HETATM    7  O1  UNL     1      22.720   3.521  50.968  1.00  0.00    -0.348 OA
BRANCH   7   8
HETATM    8  C11 UNL     1      22.932   4.637  51.814  1.00  0.00     0.211 C 
BRANCH   8   9
HETATM    9  C12 UNL     1      24.161   5.360  51.302  1.00  0.00     0.246 C 
BRANCH   9  10
HETATM   10  N3  UNL     1      24.242   6.599  52.055  1.00  0.00     0.085 N 
HETATM   11  H14 UNL     1      25.177   6.730  52.505  1.00  0.00     0.313 HD
HETATM   12  H15 UNL     1      23.925   7.408  51.500  1.00  0.00     0.313 HD
ENDBRANCH   9  10
BRANCH   9  13
HETATM   13  C13 UNL     1      24.057   5.615  49.818  1.00  0.00     0.076 C 
BRANCH  13  14
HETATM   14  C14 UNL     1      25.471   5.602  49.297  1.00  0.00    -0.056 A 
HETATM   15  C15 UNL     1      26.017   6.753  48.756  1.00  0.00     0.007 A 
HETATM   16  C16 UNL     1      27.311   6.777  48.269  1.00  0.00     0.001 A 
HETATM   17  C17 UNL     1      28.100   5.631  48.312  1.00  0.00     0.000 A 
HETATM   18  C18 UNL     1      27.554   4.481  48.853  1.00  0.00     0.001 A 
HETATM   19  C19 UNL     1      26.247   4.455  49.346  1.00  0.00     0.007 A 
ENDBRANCH  13  14
ENDBRANCH   9  13
ENDBRANCH   8   9
ENDBRANCH   7   8
ENDBRANCH   5   7
BRANCH   1  20
HETATM   20  C6  UNL     1      24.434  -0.087  53.709  1.00  0.00     0.011 C 
HETATM   21  C5  UNL     1      25.731   0.005  53.466  1.00  0.00     0.007 C 
BRANCH  21  22
HETATM   22  C4  UNL     1      26.882  -0.533  54.262  1.00  0.00     0.178 A 
HETATM   23  C3  UNL     1      28.151   0.168  54.065  1.00  0.00     0.036 A 
HETATM   24  N1  UNL     1      27.915  -1.055  53.510  1.00  0.00    -0.281 NA
BRANCH  23  25
HETATM   25  C2  UNL     1      29.069   1.320  54.271  1.00  0.00     0.052 C 
HETATM   26  C1  UNL     1      28.586   2.517  53.461  1.00  0.00     0.011 C 
ENDBRANCH  23  25
ENDBRANCH  21  22
ENDBRANCH   1  20
TORSDOF 9
ENDMDL
MODEL 7
REMARK VINA RESULT:      -6.8      3.902      8.859
REMARK  9 active torsions:
REMARK  status: ('A' for Active; 'I' for Inactive)
REMARK    1  A    between atoms: C2_2  and  C3_3 
REMARK    2  A    between atoms: C4_5  and  C5_6 
REMARK    3  A    between atoms: C6_7  and  C7_8 
REMARK    4  A    between atoms: C10_12  and  O1_13 
REMARK    5  A    between atoms: O1_13  and  C11_14 
REMARK    6  A    between atoms: C11_14  and  C12_15 
REMARK    7  A    between atoms: C12_15  and  N3_16 
REMARK    8  A    between atoms: C12_15  and  C13_17 
REMARK    9  A    between atoms: C13_17  and  C14_18 
ROOT
HETATM    1  C7  UNL     1      27.698   5.859  48.427  1.00  0.00    -0.016 A 
HETATM    2  C8  UNL     1      26.785   6.883  48.466  1.00  0.00     0.127 A 
HETATM    3  N2  UNL     1      25.605   6.631  49.066  1.00  0.00    -0.269 NA
HETATM    4  C9  UNL     1      25.381   5.408  49.590  1.00  0.00     0.152 A 
HETATM    5  C10 UNL     1      26.287   4.357  49.564  1.00  0.00     0.087 A 
HETATM    6  C20 UNL     1      27.490   4.602  48.956  1.00  0.00     0.051 A 
ENDROOT
BRANCH   5   7
HETATM    7  O1  UNL     1      25.938   3.143  50.138  1.00  0.00    -0.348 OA
BRANCH   7   8
HETATM    8  C11 UNL     1      26.817   2.600  51.107  1.00  0.00     0.211 C 
BRANCH   8   9
HETATM    9  C12 UNL     1      25.969   2.147  52.277  1.00  0.00     0.246 C 
BRANCH   9  10
HETATM   10  N3  UNL     1      24.885   3.107  52.385  1.00  0.00     0.085 N 
HETATM   11  H14 UNL     1      24.017   2.684  52.786  1.00  0.00     0.313 HD
HETATM   12  H15 UNL     1      25.186   3.975  52.854  1.00  0.00     0.313 HD
ENDBRANCH   9  10
BRANCH   9  13
HETATM   13  C13 UNL     1      26.788   2.085  53.544  1.00  0.00     0.076 C 
BRANCH  13  14
HETATM   14  C14 UNL     1      27.615   0.830  53.440  1.00  0.00    -0.056 A 
HETATM   15  C15 UNL     1      28.977   0.880  53.676  1.00  0.00     0.007 A 
HETATM   16  C16 UNL     1      29.766  -0.252  53.588  1.00  0.00     0.001 A 
HETATM   17  C17 UNL     1      29.201  -1.480  53.256  1.00  0.00     0.000 A 
HETATM   18  C18 UNL     1      27.838  -1.529  53.020  1.00  0.00     0.001 A 
HETATM   19  C19 UNL     1      27.040  -0.387  53.108  1.00  0.00     0.007 A 
ENDBRANCH  13  14
ENDBRANCH   9  13
ENDBRANCH   8   9
ENDBRANCH   7   8
ENDBRANCH   5   7
BRANCH   1  20
HETATM   20  C6  UNL     1      28.989   6.083  47.789  1.00  0.00     0.011 C 
HETATM   21  C5  UNL     1      30.158   5.664  48.243  1.00  0.00     0.007 C 
BRANCH  21  22
HETATM   22  C4  UNL     1      31.524   5.849  47.654  1.00  0.00     0.178 A 
HETATM   23  C3  UNL     1      32.184   4.617  47.224  1.00  0.00     0.036 A 
HETATM   24  N1  UNL     1      32.549   5.263  48.368  1.00  0.00    -0.281 NA
BRANCH  23  25
HETATM   25  C2  UNL     1      32.375   3.479  46.285  1.00  0.00     0.052 C 
HETATM   26  C1  UNL     1      32.654   2.203  47.070  1.00  0.00     0.011 C 
ENDBRANCH  23  25
ENDBRANCH  21  22
ENDBRANCH   1  20
TORSDOF 9
ENDMDL
MODEL 8
REMARK VINA RESULT:      -6.7      1.834      5.461
REMARK  9 active torsions:
REMARK  status: ('A' for Active; 'I' for Inactive)
REMARK    1  A    between atoms: C2_2  and  C3_3 
REMARK    2  A    between atoms: C4_5  and  C5_6 
REMARK    3  A    between atoms: C6_7  and  C7_8 
REMARK    4  A    between atoms: C10_12  and  O1_13 
REMARK    5  A    between atoms: O1_13  and  C11_14 
REMARK    6  A    between atoms: C11_14  and  C12_15 
REMARK    7  A    between atoms: C12_15  and  N3_16 
REMARK    8  A    between atoms: C12_15  and  C13_17 
REMARK    9  A    between atoms: C13_17  and  C14_18 
ROOT
HETATM    1  C7  UNL     1      26.364   1.319  52.537  1.00  0.00    -0.016 A 
HETATM    2  C8  UNL     1      27.188   1.137  53.620  1.00  0.00     0.127 A 
HETATM    3  N2  UNL     1      26.776   0.271  54.565  1.00  0.00    -0.269 NA
HETATM    4  C9  UNL     1      25.597  -0.366  54.407  1.00  0.00     0.152 A 
HETATM    5  C10 UNL     1      24.747  -0.200  53.322  1.00  0.00     0.087 A 
HETATM    6  C20 UNL     1      25.156   0.680  52.354  1.00  0.00     0.051 A 
ENDROOT
BRANCH   5   7
HETATM    7  O1  UNL     1      23.558  -0.912  53.274  1.00  0.00    -0.348 OA
BRANCH   7   8
HETATM    8  C11 UNL     1      22.664  -0.769  54.364  1.00  0.00     0.211 C 
BRANCH   8   9
HETATM    9  C12 UNL     1      21.601   0.226  53.945  1.00  0.00     0.246 C 
BRANCH   9  10
HETATM   10  N3  UNL     1      20.555   0.145  54.949  1.00  0.00     0.085 N 
HETATM   11  H14 UNL     1      20.930   0.222  55.921  1.00  0.00     0.313 HD
HETATM   12  H15 UNL     1      19.775   0.789  54.745  1.00  0.00     0.313 HD
ENDBRANCH   9  10
BRANCH   9  13
HETATM   13  C13 UNL     1      21.077  -0.094  52.566  1.00  0.00     0.076 C 
BRANCH  13  14
HETATM   14  C14 UNL     1      21.529   1.038  51.680  1.00  0.00    -0.056 A 
HETATM   15  C15 UNL     1      21.681   0.832  50.320  1.00  0.00     0.007 A 
HETATM   16  C16 UNL     1      22.094   1.848  49.479  1.00  0.00     0.001 A 
HETATM   17  C17 UNL     1      22.369   3.115  49.987  1.00  0.00     0.000 A 
HETATM   18  C18 UNL     1      22.218   3.320  51.347  1.00  0.00     0.001 A 
HETATM   19  C19 UNL     1      21.801   2.295  52.198  1.00  0.00     0.007 A 
ENDBRANCH  13  14
ENDBRANCH   9  13
ENDBRANCH   8   9
ENDBRANCH   7   8
ENDBRANCH   5   7
BRANCH   1  20
HETATM   20  C6  UNL     1      26.767   2.246  51.488  1.00  0.00     0.011 C 
HETATM   21  C5  UNL     1      25.975   3.110  50.875  1.00  0.00     0.007 C 
BRANCH  21  22
HETATM   22  C4  UNL     1      26.304   4.094  49.793  1.00  0.00     0.178 A 
HETATM   23  C3  UNL     1      25.561   5.352  49.854  1.00  0.00     0.036 A 
HETATM   24  N1  UNL     1      25.261   4.388  48.938  1.00  0.00    -0.281 NA
BRANCH  23  25
HETATM   25  C2  UNL     1      25.282   6.694  50.432  1.00  0.00     0.052 C 
HETATM   26  C1  UNL     1      23.935   6.679  51.145  1.00  0.00     0.011 C 
ENDBRANCH  23  25
ENDBRANCH  21  22
ENDBRANCH   1  20
TORSDOF 9
ENDMDL
MODEL 9
REMARK VINA RESULT:      -6.7      3.757      8.314
REMARK  9 active torsions:
REMARK  status: ('A' for Active; 'I' for Inactive)
REMARK    1  A    between atoms: C2_2  and  C3_3 
REMARK    2  A    between atoms: C4_5  and  C5_6 
REMARK    3  A    between atoms: C6_7  and  C7_8 
REMARK    4  A    between atoms: C10_12  and  O1_13 
REMARK    5  A    between atoms: O1_13  and  C11_14 
REMARK    6  A    between atoms: C11_14  and  C12_15 
REMARK    7  A    between atoms: C12_15  and  N3_16 
REMARK    8  A    between atoms: C12_15  and  C13_17 
REMARK    9  A    between atoms: C13_17  and  C14_18 
ROOT
HETATM    1  C7  UNL     1      27.403   5.880  48.525  1.00  0.00    -0.016 A 
HETATM    2  C8  UNL     1      26.500   6.908  48.639  1.00  0.00     0.127 A 
HETATM    3  N2  UNL     1      25.301   6.613  49.178  1.00  0.00    -0.269 NA
HETATM    4  C9  UNL     1      25.048   5.348  49.572  1.00  0.00     0.152 A 
HETATM    5  C10 UNL     1      25.943   4.292  49.467  1.00  0.00     0.087 A 
HETATM    6  C20 UNL     1      27.167   4.580  48.920  1.00  0.00     0.051 A 
ENDROOT
BRANCH   5   7
HETATM    7  O1  UNL     1      25.565   3.032  49.907  1.00  0.00    -0.348 OA
BRANCH   7   8
HETATM    8  C11 UNL     1      26.206   2.523  51.063  1.00  0.00     0.211 C 
BRANCH   8   9
HETATM    9  C12 UNL     1      25.118   2.126  52.040  1.00  0.00     0.246 C 
BRANCH   9  10
HETATM   10  N3  UNL     1      25.207   3.065  53.145  1.00  0.00     0.085 N 
HETATM   11  H14 UNL     1      24.722   3.968  52.940  1.00  0.00     0.313 HD
HETATM   12  H15 UNL     1      24.931   2.632  54.040  1.00  0.00     0.313 HD
ENDBRANCH   9  10
BRANCH   9  13
HETATM   13  C13 UNL     1      25.303   0.701  52.503  1.00  0.00     0.076 C 
BRANCH  13  14
HETATM   14  C14 UNL     1      23.957   0.256  53.015  1.00  0.00    -0.056 A 
HETATM   15  C15 UNL     1      23.880  -0.581  54.114  1.00  0.00     0.007 A 
HETATM   16  C16 UNL     1      22.663  -1.008  54.610  1.00  0.00     0.001 A 
HETATM   17  C17 UNL     1      21.475  -0.603  54.007  1.00  0.00     0.000 A 
HETATM   18  C18 UNL     1      21.554   0.234  52.908  1.00  0.00     0.001 A 
HETATM   19  C19 UNL     1      22.782   0.667  52.406  1.00  0.00     0.007 A 
ENDBRANCH  13  14
ENDBRANCH   9  13
ENDBRANCH   8   9
ENDBRANCH   7   8
ENDBRANCH   5   7
BRANCH   1  20
HETATM   20  C6  UNL     1      28.714   6.150  47.949  1.00  0.00     0.011 C 
HETATM   21  C5  UNL     1      29.803   5.424  48.137  1.00  0.00     0.007 C 
BRANCH  21  22
HETATM   22  C4  UNL     1      31.183   5.628  47.586  1.00  0.00     0.178 A 
HETATM   23  C3  UNL     1      31.984   4.411  47.458  1.00  0.00     0.036 A 
HETATM   24  N1  UNL     1      32.208   5.313  48.456  1.00  0.00    -0.281 NA
BRANCH  23  25
HETATM   25  C2  UNL     1      32.344   3.131  46.791  1.00  0.00     0.052 C 
HETATM   26  C1  UNL     1      33.837   3.109  46.488  1.00  0.00     0.011 C 
ENDBRANCH  23  25
ENDBRANCH  21  22
ENDBRANCH   1  20
TORSDOF 9
ENDMDL
