MODEL 1
REMARK VINA RESULT:      -7.7      0.000      0.000
REMARK  7 active torsions:
REMARK  status: ('A' for Active; 'I' for Inactive)
REMARK    1  A    between atoms: C5_6  and  C6_7 
REMARK    2  A    between atoms: C6_7  and  O2_8 
REMARK    3  A    between atoms: O2_8  and  C7_9 
REMARK    4  A    between atoms: C7_9  and  C8_10 
REMARK    5  A    between atoms: C8_10  and  C9_12 
REMARK    6  A    between atoms: C9_12  and  N1_13 
REMARK    7  A    between atoms: N1_13  and  C10_14 
ROOT
HETATM    1  C10 UNL     1      22.619   0.197  52.984  1.00  0.00     0.140 A 
HETATM    2  N2  UNL     1      23.214  -0.405  54.017  1.00  0.00    -0.224 NA
HETATM    3  C11 UNL     1      22.604  -1.203  54.899  1.00  0.00     0.236 A 
HETATM    4  N3  UNL     1      21.288  -1.435  54.759  1.00  0.00    -0.241 NA
HETATM    5  C12 UNL     1      20.578  -0.887  53.758  1.00  0.00     0.075 A 
HETATM    6  C13 UNL     1      19.226  -1.100  53.578  1.00  0.00     0.035 A 
HETATM    7  C14 UNL     1      18.508  -0.530  52.545  1.00  0.00     0.042 A 
HETATM    8  C15 UNL     1      19.234   0.281  51.684  1.00  0.00     0.103 A 
HETATM    9  C16 UNL     1      20.583   0.502  51.853  1.00  0.00     0.118 A 
HETATM   10  C17 UNL     1      21.276  -0.075  52.889  1.00  0.00     0.074 A 
HETATM   11  O3  UNL     1      21.142   1.335  50.904  1.00  0.00    -0.345 OA
HETATM   12  C18 UNL     1      20.300   2.304  50.307  1.00  0.00     0.202 C 
HETATM   13  C19 UNL     1      19.206   1.488  49.606  1.00  0.00     0.202 C 
HETATM   14  O4  UNL     1      18.459   0.839  50.648  1.00  0.00    -0.346 OA
ENDROOT
BRANCH   1  15
HETATM   15  N1  UNL     1      23.394   1.029  52.135  1.00  0.00    -0.373 N 
HETATM   16  H17 UNL     1      23.689   1.012  51.146  1.00  0.00     0.161 HD
BRANCH  15  17
HETATM   17  C9  UNL     1      23.974   2.238  52.681  1.00  0.00     0.139 C 
BRANCH  17  18
HETATM   18  C8  UNL     1      24.930   2.923  51.716  1.00  0.00     0.099 C 
HETATM   19 BR1  UNL     1      24.066   3.228  50.028  1.00  0.00    -0.087 Br
BRANCH  18  20
HETATM   20  C7  UNL     1      26.103   1.957  51.557  1.00  0.00     0.185 C 
BRANCH  20  21
HETATM   21  O2  UNL     1      26.199   1.308  52.810  1.00  0.00    -0.389 OA
BRANCH  21  22
HETATM   22  C6  UNL     1      27.546   1.001  52.988  1.00  0.00     0.174 C 
BRANCH  22  23
HETATM   23  C5  UNL     1      27.586  -0.375  53.616  1.00  0.00     0.040 C 
HETATM   24  C2  UNL     1      28.807  -1.081  53.087  1.00  0.00     0.123 C 
HETATM   25  C1  UNL     1      30.024  -0.795  53.940  1.00  0.00     0.040 C 
HETATM   26  O1  UNL     1      28.442  -2.420  53.134  1.00  0.00    -0.386 OA
HETATM   27  C3  UNL     1      27.181  -2.429  52.539  1.00  0.00     0.168 C 
HETATM   28  C4  UNL     1      26.456  -1.220  53.122  1.00  0.00     0.035 C 
ENDBRANCH  22  23
ENDBRANCH  21  22
ENDBRANCH  20  21
ENDBRANCH  18  20
ENDBRANCH  17  18
ENDBRANCH  15  17
ENDBRANCH   1  15
TORSDOF 7
ENDMDL
MODEL 2
REMARK VINA RESULT:      -7.6      1.999      3.542
REMARK  7 active torsions:
REMARK  status: ('A' for Active; 'I' for Inactive)
REMARK    1  A    between atoms: C5_6  and  C6_7 
REMARK    2  A    between atoms: C6_7  and  O2_8 
REMARK    3  A    between atoms: O2_8  and  C7_9 
REMARK    4  A    between atoms: C7_9  and  C8_10 
REMARK    5  A    between atoms: C8_10  and  C9_12 
REMARK    6  A    between atoms: C9_12  and  N1_13 
REMARK    7  A    between atoms: N1_13  and  C10_14 
ROOT
HETATM    1  C10 UNL     1      21.368   1.355  50.766  1.00  0.00     0.140 A 
HETATM    2  N2  UNL     1      20.681   1.863  49.739  1.00  0.00    -0.224 NA
HETATM    3  C11 UNL     1      19.379   1.669  49.512  1.00  0.00     0.236 A 
HETATM    4  N3  UNL     1      18.681   0.905  50.369  1.00  0.00    -0.241 NA
HETATM    5  C12 UNL     1      19.259   0.338  51.441  1.00  0.00     0.075 A 
HETATM    6  C13 UNL     1      18.578  -0.452  52.345  1.00  0.00     0.035 A 
HETATM    7  C14 UNL     1      19.186  -1.029  53.444  1.00  0.00     0.042 A 
HETATM    8  C15 UNL     1      20.540  -0.765  53.590  1.00  0.00     0.103 A 
HETATM    9  C16 UNL     1      21.232   0.022  52.694  1.00  0.00     0.118 A 
HETATM   10  C17 UNL     1      20.606   0.584  51.609  1.00  0.00     0.074 A 
HETATM   11  O3  UNL     1      22.570   0.177  52.995  1.00  0.00    -0.345 OA
HETATM   12  C18 UNL     1      23.205  -0.866  53.711  1.00  0.00     0.202 C 
HETATM   13  C19 UNL     1      22.447  -0.940  55.043  1.00  0.00     0.202 C 
HETATM   14  O4  UNL     1      21.114  -1.374  54.723  1.00  0.00    -0.346 OA
ENDROOT
BRANCH   1  15
HETATM   15  N1  UNL     1      22.756   1.638  50.871  1.00  0.00    -0.373 N 
HETATM   16  H17 UNL     1      23.534   1.321  51.470  1.00  0.00     0.161 HD
BRANCH  15  17
HETATM   17  C9  UNL     1      23.343   2.601  49.964  1.00  0.00     0.139 C 
BRANCH  17  18
HETATM   18  C8  UNL     1      24.267   3.586  50.665  1.00  0.00     0.099 C 
HETATM   19 BR1  UNL     1      25.950   3.688  49.743  1.00  0.00    -0.087 Br
BRANCH  18  20
HETATM   20  C7  UNL     1      24.455   3.029  52.075  1.00  0.00     0.185 C 
BRANCH  20  21
HETATM   21  O2  UNL     1      25.429   2.014  51.927  1.00  0.00    -0.389 OA
BRANCH  21  22
HETATM   22  C6  UNL     1      26.045   1.880  53.169  1.00  0.00     0.174 C 
BRANCH  22  23
HETATM   23  C5  UNL     1      27.445   1.378  52.894  1.00  0.00     0.040 C 
HETATM   24  C2  UNL     1      27.621   0.085  53.646  1.00  0.00     0.123 C 
HETATM   25  C1  UNL     1      27.170  -1.101  52.820  1.00  0.00     0.040 C 
HETATM   26  O1  UNL     1      28.985   0.051  53.902  1.00  0.00    -0.386 OA
HETATM   27  C3  UNL     1      29.247   1.324  54.409  1.00  0.00     0.168 C 
HETATM   28  C4  UNL     1      28.466   2.279  53.512  1.00  0.00     0.035 C 
ENDBRANCH  22  23
ENDBRANCH  21  22
ENDBRANCH  20  21
ENDBRANCH  18  20
ENDBRANCH  17  18
ENDBRANCH  15  17
ENDBRANCH   1  15
TORSDOF 7
ENDMDL
MODEL 3
REMARK VINA RESULT:      -7.4      2.611      4.364
REMARK  7 active torsions:
REMARK  status: ('A' for Active; 'I' for Inactive)
REMARK    1  A    between atoms: C5_6  and  C6_7 
REMARK    2  A    between atoms: C6_7  and  O2_8 
REMARK    3  A    between atoms: O2_8  and  C7_9 
REMARK    4  A    between atoms: C7_9  and  C8_10 
REMARK    5  A    between atoms: C8_10  and  C9_12 
REMARK    6  A    between atoms: C9_12  and  N1_13 
REMARK    7  A    between atoms: N1_13  and  C10_14 
ROOT
HETATM    1  C10 UNL     1      23.834  -0.308  53.531  1.00  0.00     0.140 A 
HETATM    2  N2  UNL     1      24.259  -0.896  54.653  1.00  0.00    -0.224 NA
HETATM    3  C11 UNL     1      23.471  -1.466  55.570  1.00  0.00     0.236 A 
HETATM    4  N3  UNL     1      22.142  -1.462  55.373  1.00  0.00    -0.241 NA
HETATM    5  C12 UNL     1      21.592  -0.902  54.283  1.00  0.00     0.075 A 
HETATM    6  C13 UNL     1      20.234  -0.877  54.042  1.00  0.00     0.035 A 
HETATM    7  C14 UNL     1      19.682  -0.297  52.915  1.00  0.00     0.042 A 
HETATM    8  C15 UNL     1      20.584   0.266  52.026  1.00  0.00     0.103 A 
HETATM    9  C16 UNL     1      21.943   0.248  52.254  1.00  0.00     0.118 A 
HETATM   10  C17 UNL     1      22.469  -0.333  53.382  1.00  0.00     0.074 A 
HETATM   11  O3  UNL     1      22.691   0.854  51.264  1.00  0.00    -0.345 OA
HETATM   12  C18 UNL     1      22.076   1.893  50.524  1.00  0.00     0.202 C 
HETATM   13  C19 UNL     1      20.875   1.225  49.841  1.00  0.00     0.202 C 
HETATM   14  O4  UNL     1      19.975   0.843  50.894  1.00  0.00    -0.346 OA
ENDROOT
BRANCH   1  15
HETATM   15  N1  UNL     1      24.789   0.268  52.653  1.00  0.00    -0.373 N 
HETATM   16  H17 UNL     1      24.789   0.618  51.682  1.00  0.00     0.161 HD
BRANCH  15  17
HETATM   17  C9  UNL     1      26.144   0.463  53.126  1.00  0.00     0.139 C 
BRANCH  17  18
HETATM   18  C8  UNL     1      26.849   1.620  52.434  1.00  0.00     0.099 C 
HETATM   19 BR1  UNL     1      28.327   2.229  53.501  1.00  0.00    -0.087 Br
BRANCH  18  20
HETATM   20  C7  UNL     1      25.793   2.714  52.298  1.00  0.00     0.185 C 
BRANCH  20  21
HETATM   21  O2  UNL     1      25.461   2.717  50.923  1.00  0.00    -0.389 OA
BRANCH  21  22
HETATM   22  C6  UNL     1      26.566   3.242  50.257  1.00  0.00     0.174 C 
BRANCH  22  23
HETATM   23  C5  UNL     1      26.016   4.070  49.115  1.00  0.00     0.040 C 
HETATM   24  C2  UNL     1      26.672   5.424  49.177  1.00  0.00     0.123 C 
HETATM   25  C1  UNL     1      27.970   5.446  48.401  1.00  0.00     0.040 C 
HETATM   26  O1  UNL     1      25.717   6.263  48.618  1.00  0.00    -0.386 OA
HETATM   27  C3  UNL     1      24.545   5.901  49.281  1.00  0.00     0.168 C 
HETATM   28  C4  UNL     1      24.568   4.376  49.327  1.00  0.00     0.035 C 
ENDBRANCH  22  23
ENDBRANCH  21  22
ENDBRANCH  20  21
ENDBRANCH  18  20
ENDBRANCH  17  18
ENDBRANCH  15  17
ENDBRANCH   1  15
TORSDOF 7
ENDMDL
MODEL 4
REMARK VINA RESULT:      -7.3      2.629      5.398
REMARK  7 active torsions:
REMARK  status: ('A' for Active; 'I' for Inactive)
REMARK    1  A    between atoms: C5_6  and  C6_7 
REMARK    2  A    between atoms: C6_7  and  O2_8 
REMARK    3  A    between atoms: O2_8  and  C7_9 
REMARK    4  A    between atoms: C7_9  and  C8_10 
REMARK    5  A    between atoms: C8_10  and  C9_12 
REMARK    6  A    between atoms: C9_12  and  N1_13 
REMARK    7  A    between atoms: N1_13  and  C10_14 
ROOT
HETATM    1  C10 UNL     1      24.624   1.011  52.856  1.00  0.00     0.140 A 
HETATM    2  N2  UNL     1      25.854   0.665  53.247  1.00  0.00    -0.224 NA
HETATM    3  C11 UNL     1      26.138  -0.284  54.144  1.00  0.00     0.236 A 
HETATM    4  N3  UNL     1      25.127  -0.960  54.713  1.00  0.00    -0.241 NA
HETATM    5  C12 UNL     1      23.845  -0.705  54.402  1.00  0.00     0.075 A 
HETATM    6  C13 UNL     1      22.777  -1.376  54.962  1.00  0.00     0.035 A 
HETATM    7  C14 UNL     1      21.463  -1.103  54.633  1.00  0.00     0.042 A 
HETATM    8  C15 UNL     1      21.275  -0.101  53.692  1.00  0.00     0.103 A 
HETATM    9  C16 UNL     1      22.332   0.577  53.125  1.00  0.00     0.118 A 
HETATM   10  C17 UNL     1      23.630   0.288  53.469  1.00  0.00     0.074 A 
HETATM   11  O3  UNL     1      21.960   1.540  52.208  1.00  0.00    -0.345 OA
HETATM   12  C18 UNL     1      20.693   2.148  52.378  1.00  0.00     0.202 C 
HETATM   13  C19 UNL     1      19.688   0.995  52.257  1.00  0.00     0.202 C 
HETATM   14  O4  UNL     1      19.920   0.140  53.388  1.00  0.00    -0.346 OA
ENDROOT
BRANCH   1  15
HETATM   15  N1  UNL     1      24.474   2.050  51.901  1.00  0.00    -0.373 N 
HETATM   16  H17 UNL     1      23.692   2.616  51.536  1.00  0.00     0.161 HD
BRANCH  15  17
HETATM   17  C9  UNL     1      25.644   2.519  51.189  1.00  0.00     0.139 C 
BRANCH  17  18
HETATM   18  C8  UNL     1      25.296   3.347  49.961  1.00  0.00     0.099 C 
HETATM   19 BR1  UNL     1      26.872   4.200  49.267  1.00  0.00    -0.087 Br
BRANCH  18  20
HETATM   20  C7  UNL     1      24.287   4.386  50.447  1.00  0.00     0.185 C 
BRANCH  20  21
HETATM   21  O2  UNL     1      23.041   3.922  49.965  1.00  0.00    -0.389 OA
BRANCH  21  22
HETATM   22  C6  UNL     1      22.994   4.261  48.615  1.00  0.00     0.174 C 
BRANCH  22  23
HETATM   23  C5  UNL     1      21.961   3.351  47.987  1.00  0.00     0.040 C 
HETATM   24  C2  UNL     1      20.805   3.244  48.946  1.00  0.00     0.123 C 
HETATM   25  C1  UNL     1      19.792   4.344  48.716  1.00  0.00     0.040 C 
HETATM   26  O1  UNL     1      20.281   1.988  48.671  1.00  0.00    -0.386 OA
HETATM   27  C3  UNL     1      21.408   1.166  48.666  1.00  0.00     0.168 C 
HETATM   28  C4  UNL     1      22.469   1.947  47.899  1.00  0.00     0.035 C 
ENDBRANCH  22  23
ENDBRANCH  21  22
ENDBRANCH  20  21
ENDBRANCH  18  20
ENDBRANCH  17  18
ENDBRANCH  15  17
ENDBRANCH   1  15
TORSDOF 7
ENDMDL
MODEL 5
REMARK VINA RESULT:      -7.2      2.843      5.953
REMARK  7 active torsions:
REMARK  status: ('A' for Active; 'I' for Inactive)
REMARK    1  A    between atoms: C5_6  and  C6_7 
REMARK    2  A    between atoms: C6_7  and  O2_8 
REMARK    3  A    between atoms: O2_8  and  C7_9 
REMARK    4  A    between atoms: C7_9  and  C8_10 
REMARK    5  A    between atoms: C8_10  and  C9_12 
REMARK    6  A    between atoms: C9_12  and  N1_13 
REMARK    7  A    between atoms: N1_13  and  C10_14 
ROOT
HETATM    1  C10 UNL     1      22.351   0.336  52.488  1.00  0.00     0.140 A 
HETATM    2  N2  UNL     1      21.032   0.173  52.622  1.00  0.00    -0.224 NA
HETATM    3  C11 UNL     1      20.434  -0.470  53.630  1.00  0.00     0.236 A 
HETATM    4  N3  UNL     1      21.196  -1.004  54.598  1.00  0.00    -0.241 NA
HETATM    5  C12 UNL     1      22.536  -0.907  54.576  1.00  0.00     0.075 A 
HETATM    6  C13 UNL     1      23.355  -1.441  55.550  1.00  0.00     0.035 A 
HETATM    7  C14 UNL     1      24.732  -1.334  55.514  1.00  0.00     0.042 A 
HETATM    8  C15 UNL     1      25.254  -0.647  54.428  1.00  0.00     0.103 A 
HETATM    9  C16 UNL     1      24.447  -0.110  53.448  1.00  0.00     0.118 A 
HETATM   10  C17 UNL     1      23.080  -0.230  53.505  1.00  0.00     0.074 A 
HETATM   11  O3  UNL     1      25.136   0.539  52.442  1.00  0.00    -0.345 OA
HETATM   12  C18 UNL     1      26.452   0.098  52.162  1.00  0.00     0.202 C 
HETATM   13  C19 UNL     1      27.227   0.332  53.466  1.00  0.00     0.202 C 
HETATM   14  O4  UNL     1      26.660  -0.564  54.436  1.00  0.00    -0.346 OA
ENDROOT
BRANCH   1  15
HETATM   15  N1  UNL     1      22.845   1.033  51.354  1.00  0.00    -0.373 N 
HETATM   16  H17 UNL     1      23.377   0.786  50.505  1.00  0.00     0.161 HD
BRANCH  15  17
HETATM   17  C9  UNL     1      22.607   2.457  51.251  1.00  0.00     0.139 C 
BRANCH  17  18
HETATM   18  C8  UNL     1      21.948   2.852  49.938  1.00  0.00     0.099 C 
HETATM   19 BR1  UNL     1      21.524   1.285  48.910  1.00  0.00    -0.087 Br
BRANCH  18  20
HETATM   20  C7  UNL     1      22.980   3.713  49.212  1.00  0.00     0.185 C 
BRANCH  20  21
HETATM   21  O2  UNL     1      22.808   5.006  49.757  1.00  0.00    -0.389 OA
BRANCH  21  22
HETATM   22  C6  UNL     1      24.072   5.432  50.159  1.00  0.00     0.174 C 
BRANCH  22  23
HETATM   23  C5  UNL     1      24.957   5.344  48.934  1.00  0.00     0.040 C 
HETATM   24  C2  UNL     1      26.362   5.079  49.406  1.00  0.00     0.123 C 
HETATM   25  C1  UNL     1      26.628   3.596  49.548  1.00  0.00     0.040 C 
HETATM   26  O1  UNL     1      27.142   5.654  48.411  1.00  0.00    -0.386 OA
HETATM   27  C3  UNL     1      26.569   6.914  48.243  1.00  0.00     0.168 C 
HETATM   28  C4  UNL     1      25.063   6.673  48.256  1.00  0.00     0.035 C 
ENDBRANCH  22  23
ENDBRANCH  21  22
ENDBRANCH  20  21
ENDBRANCH  18  20
ENDBRANCH  17  18
ENDBRANCH  15  17
ENDBRANCH   1  15
TORSDOF 7
ENDMDL
MODEL 6
REMARK VINA RESULT:      -7.1      4.003      6.547
REMARK  7 active torsions:
REMARK  status: ('A' for Active; 'I' for Inactive)
REMARK    1  A    between atoms: C5_6  and  C6_7 
REMARK    2  A    between atoms: C6_7  and  O2_8 
REMARK    3  A    between atoms: O2_8  and  C7_9 
REMARK    4  A    between atoms: C7_9  and  C8_10 
REMARK    5  A    between atoms: C8_10  and  C9_12 
REMARK    6  A    between atoms: C9_12  and  N1_13 
REMARK    7  A    between atoms: N1_13  and  C10_14 
ROOT
HETATM    1  C10 UNL     1      23.040   3.306  52.394  1.00  0.00     0.140 A 
HETATM    2  N2  UNL     1      21.865   3.913  52.207  1.00  0.00    -0.224 NA
HETATM    3  C11 UNL     1      20.670   3.322  52.302  1.00  0.00     0.236 A 
HETATM    4  N3  UNL     1      20.617   2.016  52.609  1.00  0.00    -0.241 NA
HETATM    5  C12 UNL     1      21.731   1.295  52.821  1.00  0.00     0.075 A 
HETATM    6  C13 UNL     1      21.721  -0.048  53.138  1.00  0.00     0.035 A 
HETATM    7  C14 UNL     1      22.875  -0.777  53.354  1.00  0.00     0.042 A 
HETATM    8  C15 UNL     1      24.063  -0.071  53.232  1.00  0.00     0.103 A 
HETATM    9  C16 UNL     1      24.087   1.270  52.915  1.00  0.00     0.118 A 
HETATM   10  C17 UNL     1      22.927   1.973  52.705  1.00  0.00     0.074 A 
HETATM   11  O3  UNL     1      25.356   1.809  52.836  1.00  0.00    -0.345 OA
HETATM   12  C18 UNL     1      26.414   0.940  52.472  1.00  0.00     0.202 C 
HETATM   13  C19 UNL     1      26.441  -0.123  53.578  1.00  0.00     0.202 C 
HETATM   14  O4  UNL     1      25.210  -0.856  53.461  1.00  0.00    -0.346 OA
ENDROOT
BRANCH   1  15
HETATM   15  N1  UNL     1      24.234   4.060  52.247  1.00  0.00    -0.373 N 
HETATM   16  H17 UNL     1      25.119   4.158  52.768  1.00  0.00     0.161 HD
BRANCH  15  17
HETATM   17  C9  UNL     1      24.358   4.959  51.118  1.00  0.00     0.139 C 
BRANCH  17  18
HETATM   18  C8  UNL     1      24.482   4.226  49.791  1.00  0.00     0.099 C 
HETATM   19 BR1  UNL     1      26.203   3.381  49.657  1.00  0.00    -0.087 Br
BRANCH  18  20
HETATM   20  C7  UNL     1      24.322   5.302  48.719  1.00  0.00     0.185 C 
BRANCH  20  21
HETATM   21  O2  UNL     1      24.818   6.480  49.324  1.00  0.00    -0.389 OA
BRANCH  21  22
HETATM   22  C6  UNL     1      25.655   7.078  48.385  1.00  0.00     0.174 C 
BRANCH  22  23
HETATM   23  C5  UNL     1      27.047   7.043  48.977  1.00  0.00     0.040 C 
HETATM   24  C2  UNL     1      27.579   8.452  48.974  1.00  0.00     0.123 C 
HETATM   25  C1  UNL     1      27.197   9.190  50.238  1.00  0.00     0.040 C 
HETATM   26  O1  UNL     1      28.952   8.271  48.872  1.00  0.00    -0.386 OA
HETATM   27  C3  UNL     1      29.077   7.357  47.827  1.00  0.00     0.168 C 
HETATM   28  C4  UNL     1      27.992   6.314  48.076  1.00  0.00     0.035 C 
ENDBRANCH  22  23
ENDBRANCH  21  22
ENDBRANCH  20  21
ENDBRANCH  18  20
ENDBRANCH  17  18
ENDBRANCH  15  17
ENDBRANCH   1  15
TORSDOF 7
ENDMDL
MODEL 7
REMARK VINA RESULT:      -7.1      3.181      6.116
REMARK  7 active torsions:
REMARK  status: ('A' for Active; 'I' for Inactive)
REMARK    1  A    between atoms: C5_6  and  C6_7 
REMARK    2  A    between atoms: C6_7  and  O2_8 
REMARK    3  A    between atoms: O2_8  and  C7_9 
REMARK    4  A    between atoms: C7_9  and  C8_10 
REMARK    5  A    between atoms: C8_10  and  C9_12 
REMARK    6  A    between atoms: C9_12  and  N1_13 
REMARK    7  A    between atoms: N1_13  and  C10_14 
ROOT
HETATM    1  C10 UNL     1      25.319   0.859  52.601  1.00  0.00     0.140 A 
HETATM    2  N2  UNL     1      26.623   0.726  52.858  1.00  0.00    -0.224 NA
HETATM    3  C11 UNL     1      27.142  -0.013  53.844  1.00  0.00     0.236 A 
HETATM    4  N3  UNL     1      26.308  -0.685  54.655  1.00  0.00    -0.241 NA
HETATM    5  C12 UNL     1      24.975  -0.632  54.498  1.00  0.00     0.075 A 
HETATM    6  C13 UNL     1      24.085  -1.307  55.307  1.00  0.00     0.035 A 
HETATM    7  C14 UNL     1      22.715  -1.243  55.134  1.00  0.00     0.042 A 
HETATM    8  C15 UNL     1      22.279  -0.451  54.083  1.00  0.00     0.103 A 
HETATM    9  C16 UNL     1      23.157   0.229  53.267  1.00  0.00     0.118 A 
HETATM   10  C17 UNL     1      24.515   0.151  53.460  1.00  0.00     0.074 A 
HETATM   11  O3  UNL     1      22.548   0.969  52.273  1.00  0.00    -0.345 OA
HETATM   12  C18 UNL     1      21.242   1.454  52.527  1.00  0.00     0.202 C 
HETATM   13  C19 UNL     1      20.393   0.194  52.739  1.00  0.00     0.202 C 
HETATM   14  O4  UNL     1      20.877  -0.417  53.946  1.00  0.00    -0.346 OA
ENDROOT
BRANCH   1  15
HETATM   15  N1  UNL     1      24.913   1.691  51.524  1.00  0.00    -0.373 N 
HETATM   16  H17 UNL     1      24.051   1.823  50.973  1.00  0.00     0.161 HD
BRANCH  15  17
HETATM   17  C9  UNL     1      25.863   2.633  50.972  1.00  0.00     0.139 C 
BRANCH  17  18
HETATM   18  C8  UNL     1      25.342   3.339  49.729  1.00  0.00     0.099 C 
HETATM   19 BR1  UNL     1      26.580   4.697  49.169  1.00  0.00    -0.087 Br
BRANCH  18  20
HETATM   20  C7  UNL     1      24.010   3.959  50.146  1.00  0.00     0.185 C 
BRANCH  20  21
HETATM   21  O2  UNL     1      24.284   4.588  51.382  1.00  0.00    -0.389 OA
BRANCH  21  22
HETATM   22  C6  UNL     1      23.179   5.387  51.666  1.00  0.00     0.174 C 
BRANCH  22  23
HETATM   23  C5  UNL     1      22.921   6.209  50.422  1.00  0.00     0.040 C 
HETATM   24  C2  UNL     1      23.350   7.623  50.713  1.00  0.00     0.123 C 
HETATM   25  C1  UNL     1      24.815   7.832  50.394  1.00  0.00     0.040 C 
HETATM   26  O1  UNL     1      22.526   8.379  49.891  1.00  0.00    -0.386 OA
HETATM   27  C3  UNL     1      21.258   7.852  50.137  1.00  0.00     0.168 C 
HETATM   28  C4  UNL     1      21.453   6.339  50.164  1.00  0.00     0.035 C 
ENDBRANCH  22  23
ENDBRANCH  21  22
ENDBRANCH  20  21
ENDBRANCH  18  20
ENDBRANCH  17  18
ENDBRANCH  15  17
ENDBRANCH   1  15
TORSDOF 7
ENDMDL
MODEL 8
REMARK VINA RESULT:      -7.0      3.325      5.942
REMARK  7 active torsions:
REMARK  status: ('A' for Active; 'I' for Inactive)
REMARK    1  A    between atoms: C5_6  and  C6_7 
REMARK    2  A    between atoms: C6_7  and  O2_8 
REMARK    3  A    between atoms: O2_8  and  C7_9 
REMARK    4  A    between atoms: C7_9  and  C8_10 
REMARK    5  A    between atoms: C8_10  and  C9_12 
REMARK    6  A    between atoms: C9_12  and  N1_13 
REMARK    7  A    between atoms: N1_13  and  C10_14 
ROOT
HETATM    1  C10 UNL     1      22.515   2.627  52.350  1.00  0.00     0.140 A 
HETATM    2  N2  UNL     1      21.185   2.654  52.236  1.00  0.00    -0.224 NA
HETATM    3  C11 UNL     1      20.355   1.695  52.658  1.00  0.00     0.236 A 
HETATM    4  N3  UNL     1      20.874   0.605  53.247  1.00  0.00    -0.241 NA
HETATM    5  C12 UNL     1      22.199   0.460  53.420  1.00  0.00     0.075 A 
HETATM    6  C13 UNL     1      22.772  -0.642  54.021  1.00  0.00     0.035 A 
HETATM    7  C14 UNL     1      24.137  -0.778  54.193  1.00  0.00     0.042 A 
HETATM    8  C15 UNL     1      24.909   0.272  53.721  1.00  0.00     0.103 A 
HETATM    9  C16 UNL     1      24.350   1.379  53.120  1.00  0.00     0.118 A 
HETATM   10  C17 UNL     1      22.990   1.491  52.959  1.00  0.00     0.074 A 
HETATM   11  O3  UNL     1      25.268   2.325  52.712  1.00  0.00    -0.345 OA
HETATM   12  C18 UNL     1      26.567   1.873  52.373  1.00  0.00     0.202 C 
HETATM   13  C19 UNL     1      27.107   1.244  53.664  1.00  0.00     0.202 C 
HETATM   14  O4  UNL     1      26.292   0.088  53.919  1.00  0.00    -0.346 OA
ENDROOT
BRANCH   1  15
HETATM   15  N1  UNL     1      23.271   3.716  51.842  1.00  0.00    -0.373 N 
HETATM   16  H17 UNL     1      24.074   3.829  51.203  1.00  0.00     0.161 HD
BRANCH  15  17
HETATM   17  C9  UNL     1      22.925   5.059  52.256  1.00  0.00     0.139 C 
BRANCH  17  18
HETATM   18  C8  UNL     1      22.769   6.017  51.084  1.00  0.00     0.099 C 
HETATM   19 BR1  UNL     1      22.404   5.038  49.471  1.00  0.00    -0.087 Br
BRANCH  18  20
HETATM   20  C7  UNL     1      24.105   6.750  50.981  1.00  0.00     0.185 C 
BRANCH  20  21
HETATM   21  O2  UNL     1      24.599   6.408  49.701  1.00  0.00    -0.389 OA
BRANCH  21  22
HETATM   22  C6  UNL     1      25.913   6.867  49.654  1.00  0.00     0.174 C 
BRANCH  22  23
HETATM   23  C5  UNL     1      26.606   6.054  48.581  1.00  0.00     0.040 C 
HETATM   24  C2  UNL     1      27.205   4.842  49.244  1.00  0.00     0.123 C 
HETATM   25  C1  UNL     1      26.218   3.696  49.297  1.00  0.00     0.040 C 
HETATM   26  O1  UNL     1      28.298   4.550  48.440  1.00  0.00    -0.386 OA
HETATM   27  C3  UNL     1      28.927   5.786  48.294  1.00  0.00     0.168 C 
HETATM   28  C4  UNL     1      27.798   6.782  48.047  1.00  0.00     0.035 C 
ENDBRANCH  22  23
ENDBRANCH  21  22
ENDBRANCH  20  21
ENDBRANCH  18  20
ENDBRANCH  17  18
ENDBRANCH  15  17
ENDBRANCH   1  15
TORSDOF 7
ENDMDL
MODEL 9
REMARK VINA RESULT:      -6.8      2.563      6.375
REMARK  7 active torsions:
REMARK  status: ('A' for Active; 'I' for Inactive)
REMARK    1  A    between atoms: C5_6  and  C6_7 
REMARK    2  A    between atoms: C6_7  and  O2_8 
REMARK    3  A    between atoms: O2_8  and  C7_9 
REMARK    4  A    between atoms: C7_9  and  C8_10 
REMARK    5  A    between atoms: C8_10  and  C9_12 
REMARK    6  A    between atoms: C9_12  and  N1_13 
REMARK    7  A    between atoms: N1_13  and  C10_14 
ROOT
HETATM    1  C10 UNL     1      22.812   2.879  52.016  1.00  0.00     0.140 A 
HETATM    2  N2  UNL     1      21.598   3.425  51.906  1.00  0.00    -0.224 NA
HETATM    3  C11 UNL     1      20.466   2.886  52.369  1.00  0.00     0.236 A 
HETATM    4  N3  UNL     1      20.525   1.702  52.999  1.00  0.00    -0.241 NA
HETATM    5  C12 UNL     1      21.688   1.052  53.174  1.00  0.00     0.075 A 
HETATM    6  C13 UNL     1      21.793  -0.165  53.816  1.00  0.00     0.035 A 
HETATM    7  C14 UNL     1      22.996  -0.821  53.988  1.00  0.00     0.042 A 
HETATM    8  C15 UNL     1      24.111  -0.178  53.473  1.00  0.00     0.103 A 
HETATM    9  C16 UNL     1      24.021   1.037  52.829  1.00  0.00     0.118 A 
HETATM   10  C17 UNL     1      22.813   1.671  52.669  1.00  0.00     0.074 A 
HETATM   11  O3  UNL     1      25.230   1.530  52.381  1.00  0.00    -0.345 OA
HETATM   12  C18 UNL     1      26.239   0.591  52.056  1.00  0.00     0.202 C 
HETATM   13  C19 UNL     1      26.513  -0.154  53.369  1.00  0.00     0.202 C 
HETATM   14  O4  UNL     1      25.313  -0.885  53.673  1.00  0.00    -0.346 OA
ENDROOT
BRANCH   1  15
HETATM   15  N1  UNL     1      23.926   3.564  51.463  1.00  0.00    -0.373 N 
HETATM   16  H17 UNL     1      24.854   3.298  51.097  1.00  0.00     0.161 HD
BRANCH  15  17
HETATM   17  C9  UNL     1      23.865   5.004  51.330  1.00  0.00     0.139 C 
BRANCH  17  18
HETATM   18  C8  UNL     1      24.510   5.506  50.047  1.00  0.00     0.099 C 
HETATM   19 BR1  UNL     1      25.347   7.209  50.346  1.00  0.00    -0.087 Br
BRANCH  18  20
HETATM   20  C7  UNL     1      23.365   5.634  49.043  1.00  0.00     0.185 C 
BRANCH  20  21
HETATM   21  O2  UNL     1      22.983   4.301  48.770  1.00  0.00    -0.389 OA
BRANCH  21  22
HETATM   22  C6  UNL     1      22.339   4.325  47.535  1.00  0.00     0.174 C 
BRANCH  22  23
HETATM   23  C5  UNL     1      21.544   3.040  47.448  1.00  0.00     0.040 C 
HETATM   24  C2  UNL     1      20.480   3.090  48.512  1.00  0.00     0.123 C 
HETATM   25  C1  UNL     1      19.219   3.755  48.003  1.00  0.00     0.040 C 
HETATM   26  O1  UNL     1      20.274   1.751  48.817  1.00  0.00    -0.386 OA
HETATM   27  C3  UNL     1      21.568   1.260  48.990  1.00  0.00     0.168 C 
HETATM   28  C4  UNL     1      22.381   1.867  47.851  1.00  0.00     0.035 C 
ENDBRANCH  22  23
ENDBRANCH  21  22
ENDBRANCH  20  21
ENDBRANCH  18  20
ENDBRANCH  17  18
ENDBRANCH  15  17
ENDBRANCH   1  15
TORSDOF 7
ENDMDL
