MODEL 1
REMARK VINA RESULT:      -8.6      0.000      0.000
REMARK  5 active torsions:
REMARK  status: ('A' for Active; 'I' for Inactive)
REMARK    1  A    between atoms: C2_2  and  C3_3 
REMARK    2  A    between atoms: C3_3  and  N1_4 
REMARK    3  A    between atoms: C6_7  and  C7_8 
REMARK       I    between atoms: C7_8  and  N2_9 
REMARK    4  A    between atoms: C12_17  and  N5_18 
REMARK    5  A    between atoms: N5_18  and  C13_19 
ROOT
HETATM    1  C1  UNL     1      22.353  -0.344  52.769  1.00  0.00     0.046 C 
HETATM    2  C2  UNL     1      23.384   0.719  52.640  1.00  0.00    -0.048 C 
HETATM    3  C9  UNL     1      23.083   1.851  51.957  1.00  0.00    -0.015 C 
HETATM    4  C10 UNL     1      21.785   2.156  51.299  1.00  0.00     0.159 C 
HETATM    5  N3  UNL     1      21.581   3.618  51.307  1.00  0.00    -0.381 N 
HETATM    6  C11 UNL     1      22.158   4.478  52.308  1.00  0.00     0.199 C 
HETATM    7  N4  UNL     1      23.411   4.138  52.487  1.00  0.00    -0.255 NA
HETATM    8  C12 UNL     1      23.938   3.026  51.685  1.00  0.00     0.239 C 
HETATM    9  H17 UNL     1      20.964   3.968  50.508  1.00  0.00     0.160 HD
ENDROOT
BRANCH   2  10
HETATM   10  C3  UNL     1      24.669   0.489  53.288  1.00  0.00     0.306 C 
BRANCH  10  11
HETATM   11  N1  UNL     1      25.750  -0.001  52.538  1.00  0.00     0.093 NA
HETATM   12  C4  UNL     1      26.448  -1.159  52.897  1.00  0.00     0.273 C 
HETATM   13  C5  UNL     1      27.690  -0.718  53.676  1.00  0.00     0.046 C 
HETATM   14  C6  UNL     1      28.026   0.560  52.950  1.00  0.00     0.107 C 
HETATM   15  C8  UNL     1      26.763   1.001  52.242  1.00  0.00     0.286 C 
BRANCH  14  16
HETATM   16  C7  UNL     1      28.449   1.642  53.881  1.00  0.00     0.221 C 
HETATM   17  N2  UNL     1      27.605   2.790  53.978  1.00  0.00    -0.370 N 
HETATM   18  H11 UNL     1      27.515   3.775  53.594  1.00  0.00     0.159 HD
HETATM   19  H12 UNL     1      26.731   2.934  54.555  1.00  0.00     0.159 HD
HETATM   20  O1  UNL     1      29.444   1.771  54.642  1.00  0.00    -0.273 OA
ENDBRANCH  14  16
ENDBRANCH  10  11
ENDBRANCH   2  10
BRANCH   8  21
HETATM   21  N5  UNL     1      23.919   3.413  50.261  1.00  0.00    -0.364 N 
HETATM   22  H20 UNL     1      23.129   3.168  49.625  1.00  0.00     0.162 HD
BRANCH  21  23
HETATM   23  C13 UNL     1      25.007   4.158  49.675  1.00  0.00     0.031 A 
HETATM   24  C14 UNL     1      26.283   3.599  49.572  1.00  0.00     0.032 A 
HETATM   25  C15 UNL     1      27.280   4.346  49.011  1.00  0.00     0.046 A 
HETATM   26  C16 UNL     1      27.107   5.623  48.539  1.00  0.00     0.138 A 
HETATM   27  F1  UNL     1      28.194   6.235  48.011  1.00  0.00    -0.204 F 
HETATM   28  C17 UNL     1      25.857   6.175  48.640  1.00  0.00     0.074 A 
HETATM   29 CL1  UNL     1      25.636   7.797  48.041  1.00  0.00    -0.081 Cl
HETATM   30  C18 UNL     1      24.810   5.449  49.204  1.00  0.00     0.056 A 
ENDBRANCH  21  23
ENDBRANCH   8  21
TORSDOF 5
ENDMDL
MODEL 2
REMARK VINA RESULT:      -8.4      4.117      7.214
REMARK  5 active torsions:
REMARK  status: ('A' for Active; 'I' for Inactive)
REMARK    1  A    between atoms: C2_2  and  C3_3 
REMARK    2  A    between atoms: C3_3  and  N1_4 
REMARK    3  A    between atoms: C6_7  and  C7_8 
REMARK       I    between atoms: C7_8  and  N2_9 
REMARK    4  A    between atoms: C12_17  and  N5_18 
REMARK    5  A    between atoms: N5_18  and  C13_19 
ROOT
HETATM    1  C1  UNL     1      26.496   2.125  50.453  1.00  0.00     0.046 C 
HETATM    2  C2  UNL     1      25.886   2.128  51.809  1.00  0.00    -0.048 C 
HETATM    3  C9  UNL     1      26.053   1.047  52.610  1.00  0.00    -0.015 C 
HETATM    4  C10 UNL     1      26.810  -0.186  52.269  1.00  0.00     0.159 C 
HETATM    5  N3  UNL     1      27.364  -0.762  53.511  1.00  0.00    -0.381 N 
HETATM    6  C11 UNL     1      27.675   0.037  54.667  1.00  0.00     0.199 C 
HETATM    7  N4  UNL     1      26.684   0.866  54.888  1.00  0.00    -0.255 NA
HETATM    8  C12 UNL     1      25.534   0.814  53.976  1.00  0.00     0.239 C 
HETATM    9  H17 UNL     1      27.514  -1.819  53.461  1.00  0.00     0.160 HD
ENDROOT
BRANCH   2  10
HETATM   10  C3  UNL     1      25.153   3.321  52.212  1.00  0.00     0.306 C 
BRANCH  10  11
HETATM   11  N1  UNL     1      23.758   3.367  52.059  1.00  0.00     0.093 NA
HETATM   12  C4  UNL     1      23.126   3.058  50.849  1.00  0.00     0.273 C 
HETATM   13  C5  UNL     1      22.861   4.380  50.123  1.00  0.00     0.046 C 
HETATM   14  C6  UNL     1      22.559   5.277  51.297  1.00  0.00     0.107 C 
HETATM   15  C8  UNL     1      23.156   4.610  52.518  1.00  0.00     0.286 C 
BRANCH  14  16
HETATM   16  C7  UNL     1      23.173   6.625  51.147  1.00  0.00     0.221 C 
HETATM   17  N2  UNL     1      24.388   6.874  51.855  1.00  0.00    -0.370 N 
HETATM   18  H11 UNL     1      24.735   7.314  52.757  1.00  0.00     0.159 HD
HETATM   19  H12 UNL     1      25.382   6.632  51.590  1.00  0.00     0.159 HD
HETATM   20  O1  UNL     1      22.835   7.648  50.495  1.00  0.00    -0.273 OA
ENDBRANCH  14  16
ENDBRANCH  10  11
ENDBRANCH   2  10
BRANCH   8  21
HETATM   21  N5  UNL     1      24.878  -0.500  54.107  1.00  0.00    -0.364 N 
HETATM   22  H20 UNL     1      25.411  -1.374  54.312  1.00  0.00     0.162 HD
BRANCH  21  23
HETATM   23  C13 UNL     1      23.450  -0.640  53.957  1.00  0.00     0.031 A 
HETATM   24  C14 UNL     1      22.687  -1.275  54.940  1.00  0.00     0.032 A 
HETATM   25  C15 UNL     1      21.338  -1.383  54.750  1.00  0.00     0.046 A 
HETATM   26  C16 UNL     1      20.679  -0.906  53.645  1.00  0.00     0.138 A 
HETATM   27  F1  UNL     1      19.338  -1.092  53.602  1.00  0.00    -0.204 F 
HETATM   28  C17 UNL     1      21.425  -0.284  52.679  1.00  0.00     0.074 A 
HETATM   29 CL1  UNL     1      20.589   0.323  51.274  1.00  0.00    -0.081 Cl
HETATM   30  C18 UNL     1      22.803  -0.150  52.831  1.00  0.00     0.056 A 
ENDBRANCH  21  23
ENDBRANCH   8  21
TORSDOF 5
ENDMDL
MODEL 3
REMARK VINA RESULT:      -8.4      4.182      6.250
REMARK  5 active torsions:
REMARK  status: ('A' for Active; 'I' for Inactive)
REMARK    1  A    between atoms: C2_2  and  C3_3 
REMARK    2  A    between atoms: C3_3  and  N1_4 
REMARK    3  A    between atoms: C6_7  and  C7_8 
REMARK       I    between atoms: C7_8  and  N2_9 
REMARK    4  A    between atoms: C12_17  and  N5_18 
REMARK    5  A    between atoms: N5_18  and  C13_19 
ROOT
HETATM    1  C1  UNL     1      22.201   1.868  49.186  1.00  0.00     0.046 C 
HETATM    2  C2  UNL     1      22.760   1.727  50.557  1.00  0.00    -0.048 C 
HETATM    3  C9  UNL     1      23.664   2.637  50.998  1.00  0.00    -0.015 C 
HETATM    4  C10 UNL     1      24.176   3.803  50.232  1.00  0.00     0.159 C 
HETATM    5  N3  UNL     1      24.523   4.879  51.181  1.00  0.00    -0.381 N 
HETATM    6  C11 UNL     1      23.884   5.021  52.464  1.00  0.00     0.199 C 
HETATM    7  N4  UNL     1      23.812   3.842  53.033  1.00  0.00    -0.255 NA
HETATM    8  C12 UNL     1      24.362   2.695  52.300  1.00  0.00     0.239 C 
HETATM    9  H17 UNL     1      25.284   5.538  50.821  1.00  0.00     0.160 HD
ENDROOT
BRANCH   2  10
HETATM   10  C3  UNL     1      22.275   0.617  51.368  1.00  0.00     0.306 C 
BRANCH  10  11
HETATM   11  N1  UNL     1      22.001   0.817  52.731  1.00  0.00     0.093 NA
HETATM   12  C4  UNL     1      22.436  -0.070  53.721  1.00  0.00     0.273 C 
HETATM   13  C5  UNL     1      21.273  -1.019  54.024  1.00  0.00     0.046 C 
HETATM   14  C6  UNL     1      20.106  -0.079  53.857  1.00  0.00     0.107 C 
HETATM   15  C8  UNL     1      20.598   1.079  53.016  1.00  0.00     0.286 C 
BRANCH  14  16
HETATM   16  C7  UNL     1      18.961  -0.722  53.155  1.00  0.00     0.221 C 
HETATM   17  N2  UNL     1      18.194  -1.677  53.888  1.00  0.00    -0.370 N 
HETATM   18  H11 UNL     1      18.111  -2.726  54.029  1.00  0.00     0.159 HD
HETATM   19  H12 UNL     1      17.404  -1.521  54.573  1.00  0.00     0.159 HD
HETATM   20  O1  UNL     1      18.499  -0.597  51.990  1.00  0.00    -0.273 OA
ENDBRANCH  14  16
ENDBRANCH  10  11
ENDBRANCH   2  10
BRANCH   8  21
HETATM   21  N5  UNL     1      25.818   2.879  52.146  1.00  0.00    -0.364 N 
HETATM   22  H20 UNL     1      26.231   3.745  51.735  1.00  0.00     0.162 HD
BRANCH  21  23
HETATM   23  C13 UNL     1      26.748   1.859  52.563  1.00  0.00     0.031 A 
HETATM   24  C14 UNL     1      27.956   2.200  53.176  1.00  0.00     0.032 A 
HETATM   25  C15 UNL     1      28.804   1.197  53.552  1.00  0.00     0.046 A 
HETATM   26  C16 UNL     1      28.544  -0.137  53.362  1.00  0.00     0.138 A 
HETATM   27  F1  UNL     1      29.486  -1.013  53.788  1.00  0.00    -0.204 F 
HETATM   28  C17 UNL     1      27.361  -0.475  52.760  1.00  0.00     0.074 A 
HETATM   29 CL1  UNL     1      27.029  -2.169  52.519  1.00  0.00    -0.081 Cl
HETATM   30  C18 UNL     1      26.465   0.515  52.362  1.00  0.00     0.056 A 
ENDBRANCH  21  23
ENDBRANCH   8  21
TORSDOF 5
ENDMDL
MODEL 4
REMARK VINA RESULT:      -8.1      1.417      1.732
REMARK  5 active torsions:
REMARK  status: ('A' for Active; 'I' for Inactive)
REMARK    1  A    between atoms: C2_2  and  C3_3 
REMARK    2  A    between atoms: C3_3  and  N1_4 
REMARK    3  A    between atoms: C6_7  and  C7_8 
REMARK       I    between atoms: C7_8  and  N2_9 
REMARK    4  A    between atoms: C12_17  and  N5_18 
REMARK    5  A    between atoms: N5_18  and  C13_19 
ROOT
HETATM    1  C1  UNL     1      22.590   0.313  52.285  1.00  0.00     0.046 C 
HETATM    2  C2  UNL     1      23.504   1.483  52.203  1.00  0.00    -0.048 C 
HETATM    3  C9  UNL     1      23.210   2.490  51.344  1.00  0.00    -0.015 C 
HETATM    4  C10 UNL     1      22.030   2.555  50.442  1.00  0.00     0.159 C 
HETATM    5  N3  UNL     1      21.667   3.971  50.235  1.00  0.00    -0.381 N 
HETATM    6  C11 UNL     1      21.952   4.996  51.205  1.00  0.00     0.199 C 
HETATM    7  N4  UNL     1      23.181   4.842  51.635  1.00  0.00    -0.255 NA
HETATM    8  C12 UNL     1      23.966   3.733  51.078  1.00  0.00     0.239 C 
HETATM    9  H17 UNL     1      21.173   4.154  49.306  1.00  0.00     0.160 HD
ENDROOT
BRANCH   2  10
HETATM   10  C3  UNL     1      24.665   1.490  53.084  1.00  0.00     0.306 C 
BRANCH  10  11
HETATM   11  N1  UNL     1      25.506   0.367  53.137  1.00  0.00     0.093 NA
HETATM   12  C4  UNL     1      25.797  -0.296  54.334  1.00  0.00     0.273 C 
HETATM   13  C5  UNL     1      27.136   0.248  54.841  1.00  0.00     0.046 C 
HETATM   14  C6  UNL     1      27.850   0.470  53.531  1.00  0.00     0.107 C 
HETATM   15  C8  UNL     1      26.781   0.554  52.463  1.00  0.00     0.286 C 
BRANCH  14  16
HETATM   16  C7  UNL     1      28.629   1.739  53.523  1.00  0.00     0.221 C 
HETATM   17  N2  UNL     1      29.503   1.980  54.626  1.00  0.00    -0.370 N 
HETATM   18  H11 UNL     1      29.529   2.498  55.551  1.00  0.00     0.159 HD
HETATM   19  H12 UNL     1      30.487   1.632  54.791  1.00  0.00     0.159 HD
HETATM   20  O1  UNL     1      28.686   2.698  52.708  1.00  0.00    -0.273 OA
ENDBRANCH  14  16
ENDBRANCH  10  11
ENDBRANCH   2  10
BRANCH   8  21
HETATM   21  N5  UNL     1      24.166   3.967  49.636  1.00  0.00    -0.364 N 
HETATM   22  H20 UNL     1      23.656   3.424  48.905  1.00  0.00     0.162 HD
BRANCH  21  23
HETATM   23  C13 UNL     1      25.089   4.971  49.163  1.00  0.00     0.031 A 
HETATM   24  C14 UNL     1      24.652   6.267  48.881  1.00  0.00     0.032 A 
HETATM   25  C15 UNL     1      25.564   7.181  48.434  1.00  0.00     0.046 A 
HETATM   26  C16 UNL     1      26.894   6.904  48.242  1.00  0.00     0.138 A 
HETATM   27  F1  UNL     1      27.674   7.916  47.792  1.00  0.00    -0.204 F 
HETATM   28  C17 UNL     1      27.326   5.633  48.517  1.00  0.00     0.074 A 
HETATM   29 CL1  UNL     1      29.016   5.280  48.273  1.00  0.00    -0.081 Cl
HETATM   30  C18 UNL     1      26.431   4.669  48.975  1.00  0.00     0.056 A 
ENDBRANCH  21  23
ENDBRANCH   8  21
TORSDOF 5
ENDMDL
MODEL 5
REMARK VINA RESULT:      -7.9      4.048      7.420
REMARK  5 active torsions:
REMARK  status: ('A' for Active; 'I' for Inactive)
REMARK    1  A    between atoms: C2_2  and  C3_3 
REMARK    2  A    between atoms: C3_3  and  N1_4 
REMARK    3  A    between atoms: C6_7  and  C7_8 
REMARK       I    between atoms: C7_8  and  N2_9 
REMARK    4  A    between atoms: C12_17  and  N5_18 
REMARK    5  A    between atoms: N5_18  and  C13_19 
ROOT
HETATM    1  C1  UNL     1      26.036   2.877  49.870  1.00  0.00     0.046 C 
HETATM    2  C2  UNL     1      25.378   2.811  51.202  1.00  0.00    -0.048 C 
HETATM    3  C9  UNL     1      25.686   1.792  52.041  1.00  0.00    -0.015 C 
HETATM    4  C10 UNL     1      26.647   0.692  51.765  1.00  0.00     0.159 C 
HETATM    5  N3  UNL     1      27.236   0.244  53.043  1.00  0.00    -0.381 N 
HETATM    6  C11 UNL     1      27.365   1.111  54.186  1.00  0.00     0.199 C 
HETATM    7  N4  UNL     1      26.244   1.771  54.345  1.00  0.00    -0.255 NA
HETATM    8  C12 UNL     1      25.156   1.510  53.393  1.00  0.00     0.239 C 
HETATM    9  H17 UNL     1      27.558  -0.775  53.031  1.00  0.00     0.160 HD
ENDROOT
BRANCH   2  10
HETATM   10  C3  UNL     1      24.444   3.878  51.542  1.00  0.00     0.306 C 
BRANCH  10  11
HETATM   11  N1  UNL     1      23.681   4.483  50.530  1.00  0.00     0.093 NA
HETATM   12  C4  UNL     1      23.345   5.842  50.556  1.00  0.00     0.273 C 
HETATM   13  C5  UNL     1      21.938   5.951  51.149  1.00  0.00     0.046 C 
HETATM   14  C6  UNL     1      21.311   4.698  50.592  1.00  0.00     0.107 C 
HETATM   15  C8  UNL     1      22.450   3.773  50.217  1.00  0.00     0.286 C 
BRANCH  14  16
HETATM   16  C7  UNL     1      20.451   4.007  51.592  1.00  0.00     0.221 C 
HETATM   17  N2  UNL     1      19.079   3.807  51.250  1.00  0.00    -0.370 N 
HETATM   18  H11 UNL     1      18.125   4.246  51.403  1.00  0.00     0.159 HD
HETATM   19  H12 UNL     1      18.636   3.046  50.666  1.00  0.00     0.159 HD
HETATM   20  O1  UNL     1      20.685   3.534  52.736  1.00  0.00    -0.273 OA
ENDBRANCH  14  16
ENDBRANCH  10  11
ENDBRANCH   2  10
BRANCH   8  21
HETATM   21  N5  UNL     1      24.718   0.109  53.540  1.00  0.00    -0.364 N 
HETATM   22  H20 UNL     1      25.393  -0.682  53.625  1.00  0.00     0.162 HD
BRANCH  21  23
HETATM   23  C13 UNL     1      23.317  -0.235  53.573  1.00  0.00     0.031 A 
HETATM   24  C14 UNL     1      22.795  -1.003  54.617  1.00  0.00     0.032 A 
HETATM   25  C15 UNL     1      21.462  -1.304  54.603  1.00  0.00     0.046 A 
HETATM   26  C16 UNL     1      20.596  -0.898  53.619  1.00  0.00     0.138 A 
HETATM   27  F1  UNL     1      19.302  -1.278  53.745  1.00  0.00    -0.204 F 
HETATM   28  C17 UNL     1      21.105  -0.146  52.593  1.00  0.00     0.074 A 
HETATM   29 CL1  UNL     1      20.006   0.371  51.343  1.00  0.00    -0.081 Cl
HETATM   30  C18 UNL     1      22.458   0.186  52.568  1.00  0.00     0.056 A 
ENDBRANCH  21  23
ENDBRANCH   8  21
TORSDOF 5
ENDMDL
MODEL 6
REMARK VINA RESULT:      -7.9      3.412      5.804
REMARK  5 active torsions:
REMARK  status: ('A' for Active; 'I' for Inactive)
REMARK    1  A    between atoms: C2_2  and  C3_3 
REMARK    2  A    between atoms: C3_3  and  N1_4 
REMARK    3  A    between atoms: C6_7  and  C7_8 
REMARK       I    between atoms: C7_8  and  N2_9 
REMARK    4  A    between atoms: C12_17  and  N5_18 
REMARK    5  A    between atoms: N5_18  and  C13_19 
ROOT
HETATM    1  C1  UNL     1      23.332  -1.172  55.475  1.00  0.00     0.046 C 
HETATM    2  C2  UNL     1      23.706  -0.805  54.083  1.00  0.00    -0.048 C 
HETATM    3  C9  UNL     1      24.954  -0.334  53.838  1.00  0.00    -0.015 C 
HETATM    4  C10 UNL     1      26.029  -0.138  54.845  1.00  0.00     0.159 C 
HETATM    5  N3  UNL     1      27.337  -0.316  54.183  1.00  0.00    -0.381 N 
HETATM    6  C11 UNL     1      27.513  -1.146  53.020  1.00  0.00     0.199 C 
HETATM    7  N4  UNL     1      26.544  -0.899  52.173  1.00  0.00    -0.255 NA
HETATM    8  C12 UNL     1      25.543   0.106  52.555  1.00  0.00     0.239 C 
HETATM    9  H17 UNL     1      28.130   0.222  54.654  1.00  0.00     0.160 HD
ENDROOT
BRANCH   2  10
HETATM   10  C3  UNL     1      22.701  -1.001  53.046  1.00  0.00     0.306 C 
BRANCH  10  11
HETATM   11  N1  UNL     1      22.130   0.114  52.411  1.00  0.00     0.093 NA
HETATM   12  C4  UNL     1      21.825   1.294  53.099  1.00  0.00     0.273 C 
HETATM   13  C5  UNL     1      20.342   1.232  53.474  1.00  0.00     0.046 C 
HETATM   14  C6  UNL     1      19.788   0.515  52.269  1.00  0.00     0.107 C 
HETATM   15  C8  UNL     1      20.952  -0.201  51.617  1.00  0.00     0.286 C 
BRANCH  14  16
HETATM   16  C7  UNL     1      18.758  -0.495  52.639  1.00  0.00     0.221 C 
HETATM   17  N2  UNL     1      19.045  -1.348  53.748  1.00  0.00    -0.370 N 
HETATM   18  H11 UNL     1      19.421  -2.317  53.959  1.00  0.00     0.159 HD
HETATM   19  H12 UNL     1      18.926  -1.167  54.783  1.00  0.00     0.159 HD
HETATM   20  O1  UNL     1      17.628  -0.774  52.159  1.00  0.00    -0.273 OA
ENDBRANCH  14  16
ENDBRANCH  10  11
ENDBRANCH   2  10
BRANCH   8  21
HETATM   21  N5  UNL     1      26.203   1.420  52.665  1.00  0.00    -0.364 N 
HETATM   22  H20 UNL     1      26.944   1.616  53.374  1.00  0.00     0.162 HD
BRANCH  21  23
HETATM   23  C13 UNL     1      25.851   2.509  51.787  1.00  0.00     0.031 A 
HETATM   24  C14 UNL     1      24.619   3.156  51.908  1.00  0.00     0.032 A 
HETATM   25  C15 UNL     1      24.332   4.181  51.051  1.00  0.00     0.046 A 
HETATM   26  C16 UNL     1      25.185   4.618  50.068  1.00  0.00     0.138 A 
HETATM   27  F1  UNL     1      24.756   5.645  49.296  1.00  0.00    -0.204 F 
HETATM   28  C17 UNL     1      26.393   3.985  49.946  1.00  0.00     0.074 A 
HETATM   29 CL1  UNL     1      27.476   4.540  48.697  1.00  0.00    -0.081 Cl
HETATM   30  C18 UNL     1      26.728   2.936  50.799  1.00  0.00     0.056 A 
ENDBRANCH  21  23
ENDBRANCH   8  21
TORSDOF 5
ENDMDL
MODEL 7
REMARK VINA RESULT:      -7.8      3.938      6.380
REMARK  5 active torsions:
REMARK  status: ('A' for Active; 'I' for Inactive)
REMARK    1  A    between atoms: C2_2  and  C3_3 
REMARK    2  A    between atoms: C3_3  and  N1_4 
REMARK    3  A    between atoms: C6_7  and  C7_8 
REMARK       I    between atoms: C7_8  and  N2_9 
REMARK    4  A    between atoms: C12_17  and  N5_18 
REMARK    5  A    between atoms: N5_18  and  C13_19 
ROOT
HETATM    1  C1  UNL     1      22.601   2.823  47.999  1.00  0.00     0.046 C 
HETATM    2  C2  UNL     1      22.577   3.094  49.461  1.00  0.00    -0.048 C 
HETATM    3  C9  UNL     1      23.644   3.702  50.037  1.00  0.00    -0.015 C 
HETATM    4  C10 UNL     1      24.880   4.145  49.340  1.00  0.00     0.159 C 
HETATM    5  N3  UNL     1      25.433   5.314  50.051  1.00  0.00    -0.381 N 
HETATM    6  C11 UNL     1      24.613   6.219  50.815  1.00  0.00     0.199 C 
HETATM    7  N4  UNL     1      23.784   5.520  51.551  1.00  0.00    -0.255 NA
HETATM    8  C12 UNL     1      23.855   4.056  51.457  1.00  0.00     0.239 C 
HETATM    9  H17 UNL     1      26.490   5.423  49.938  1.00  0.00     0.160 HD
ENDROOT
BRANCH   2  10
HETATM   10  C3  UNL     1      21.379   2.706  50.195  1.00  0.00     0.306 C 
BRANCH  10  11
HETATM   11  N1  UNL     1      20.760   1.477  49.917  1.00  0.00     0.093 NA
HETATM   12  C4  UNL     1      19.377   1.359  49.736  1.00  0.00     0.273 C 
HETATM   13  C5  UNL     1      18.779   0.918  51.075  1.00  0.00     0.046 C 
HETATM   14  C6  UNL     1      19.879   0.019  51.580  1.00  0.00     0.107 C 
HETATM   15  C8  UNL     1      21.136   0.409  50.831  1.00  0.00     0.286 C 
BRANCH  14  16
HETATM   16  C7  UNL     1      20.125   0.194  53.038  1.00  0.00     0.221 C 
HETATM   17  N2  UNL     1      19.682  -0.849  53.907  1.00  0.00    -0.370 N 
HETATM   18  H11 UNL     1      18.864  -1.099  54.535  1.00  0.00     0.159 HD
HETATM   19  H12 UNL     1      20.155  -1.760  54.158  1.00  0.00     0.159 HD
HETATM   20  O1  UNL     1      20.669   1.113  53.706  1.00  0.00    -0.273 OA
ENDBRANCH  14  16
ENDBRANCH  10  11
ENDBRANCH   2  10
BRANCH   8  21
HETATM   21  N5  UNL     1      25.169   3.608  51.955  1.00  0.00    -0.364 N 
HETATM   22  H20 UNL     1      25.964   4.267  52.108  1.00  0.00     0.162 HD
BRANCH  21  23
HETATM   23  C13 UNL     1      25.419   2.219  52.257  1.00  0.00     0.031 A 
HETATM   24  C14 UNL     1      26.641   1.626  51.932  1.00  0.00     0.032 A 
HETATM   25  C15 UNL     1      26.829   0.308  52.238  1.00  0.00     0.046 A 
HETATM   26  C16 UNL     1      25.884  -0.479  52.849  1.00  0.00     0.138 A 
HETATM   27  F1  UNL     1      26.220  -1.770  53.085  1.00  0.00    -0.204 F 
HETATM   28  C17 UNL     1      24.685   0.100  53.168  1.00  0.00     0.074 A 
HETATM   29 CL1  UNL     1      23.484  -0.898  53.944  1.00  0.00    -0.081 Cl
HETATM   30  C18 UNL     1      24.450   1.442  52.876  1.00  0.00     0.056 A 
ENDBRANCH  21  23
ENDBRANCH   8  21
TORSDOF 5
ENDMDL
MODEL 8
REMARK VINA RESULT:      -7.7      4.346      6.168
REMARK  5 active torsions:
REMARK  status: ('A' for Active; 'I' for Inactive)
REMARK    1  A    between atoms: C2_2  and  C3_3 
REMARK    2  A    between atoms: C3_3  and  N1_4 
REMARK    3  A    between atoms: C6_7  and  C7_8 
REMARK       I    between atoms: C7_8  and  N2_9 
REMARK    4  A    between atoms: C12_17  and  N5_18 
REMARK    5  A    between atoms: N5_18  and  C13_19 
ROOT
HETATM    1  C1  UNL     1      23.777   4.872  53.118  1.00  0.00     0.046 C 
HETATM    2  C2  UNL     1      23.633   3.527  52.500  1.00  0.00    -0.048 C 
HETATM    3  C9  UNL     1      22.704   3.344  51.529  1.00  0.00    -0.015 C 
HETATM    4  C10 UNL     1      21.782   4.379  50.994  1.00  0.00     0.159 C 
HETATM    5  N3  UNL     1      21.476   4.059  49.585  1.00  0.00    -0.381 N 
HETATM    6  C11 UNL     1      22.381   3.323  48.741  1.00  0.00     0.199 C 
HETATM    7  N4  UNL     1      22.839   2.293  49.409  1.00  0.00    -0.255 NA
HETATM    8  C12 UNL     1      22.368   2.109  50.788  1.00  0.00     0.239 C 
HETATM    9  H17 UNL     1      20.529   4.431  49.259  1.00  0.00     0.160 HD
ENDROOT
BRANCH   2  10
HETATM   10  C3  UNL     1      24.529   2.476  52.965  1.00  0.00     0.306 C 
BRANCH  10  11
HETATM   11  N1  UNL     1      25.801   2.339  52.387  1.00  0.00     0.093 NA
HETATM   12  C4  UNL     1      26.052   1.458  51.329  1.00  0.00     0.273 C 
HETATM   13  C5  UNL     1      26.613   0.169  51.933  1.00  0.00     0.046 C 
HETATM   14  C6  UNL     1      27.416   0.734  53.078  1.00  0.00     0.107 C 
HETATM   15  C8  UNL     1      26.866   2.117  53.353  1.00  0.00     0.286 C 
BRANCH  14  16
HETATM   16  C7  UNL     1      27.284  -0.083  54.315  1.00  0.00     0.221 C 
HETATM   17  N2  UNL     1      26.046  -0.763  54.523  1.00  0.00    -0.370 N 
HETATM   18  H11 UNL     1      25.127  -0.649  55.042  1.00  0.00     0.159 HD
HETATM   19  H12 UNL     1      25.715  -1.690  54.138  1.00  0.00     0.159 HD
HETATM   20  O1  UNL     1      28.072  -0.316  55.270  1.00  0.00    -0.273 OA
ENDBRANCH  14  16
ENDBRANCH  10  11
ENDBRANCH   2  10
BRANCH   8  21
HETATM   21  N5  UNL     1      20.917   1.847  50.767  1.00  0.00    -0.364 N 
HETATM   22  H20 UNL     1      20.264   2.367  50.141  1.00  0.00     0.162 HD
BRANCH  21  23
HETATM   23  C13 UNL     1      20.326   0.846  51.623  1.00  0.00     0.031 A 
HETATM   24  C14 UNL     1      18.977   0.505  51.498  1.00  0.00     0.032 A 
HETATM   25  C15 UNL     1      18.465  -0.447  52.332  1.00  0.00     0.046 A 
HETATM   26  C16 UNL     1      19.197  -1.096  53.295  1.00  0.00     0.138 A 
HETATM   27  F1  UNL     1      18.545  -2.016  54.046  1.00  0.00    -0.204 F 
HETATM   28  C17 UNL     1      20.520  -0.763  53.421  1.00  0.00     0.074 A 
HETATM   29 CL1  UNL     1      21.450  -1.586  54.644  1.00  0.00    -0.081 Cl
HETATM   30  C18 UNL     1      21.085   0.202  52.590  1.00  0.00     0.056 A 
ENDBRANCH  21  23
ENDBRANCH   8  21
TORSDOF 5
ENDMDL
MODEL 9
REMARK VINA RESULT:      -7.6      4.343      6.567
REMARK  5 active torsions:
REMARK  status: ('A' for Active; 'I' for Inactive)
REMARK    1  A    between atoms: C2_2  and  C3_3 
REMARK    2  A    between atoms: C3_3  and  N1_4 
REMARK    3  A    between atoms: C6_7  and  C7_8 
REMARK       I    between atoms: C7_8  and  N2_9 
REMARK    4  A    between atoms: C12_17  and  N5_18 
REMARK    5  A    between atoms: N5_18  and  C13_19 
ROOT
HETATM    1  C1  UNL     1      22.959   5.071  52.613  1.00  0.00     0.046 C 
HETATM    2  C2  UNL     1      23.175   3.840  51.807  1.00  0.00    -0.048 C 
HETATM    3  C9  UNL     1      22.110   3.064  51.490  1.00  0.00    -0.015 C 
HETATM    4  C10 UNL     1      20.696   3.319  51.872  1.00  0.00     0.159 C 
HETATM    5  N3  UNL     1      19.814   2.752  50.834  1.00  0.00    -0.381 N 
HETATM    6  C11 UNL     1      20.225   2.600  49.462  1.00  0.00     0.199 C 
HETATM    7  N4  UNL     1      21.433   2.093  49.436  1.00  0.00    -0.255 NA
HETATM    8  C12 UNL     1      22.079   1.800  50.722  1.00  0.00     0.239 C 
HETATM    9  H17 UNL     1      18.848   2.474  51.198  1.00  0.00     0.160 HD
ENDROOT
BRANCH   2  10
HETATM   10  C3  UNL     1      24.538   3.551  51.378  1.00  0.00     0.306 C 
BRANCH  10  11
HETATM   11  N1  UNL     1      24.863   3.598  50.013  1.00  0.00     0.093 NA
HETATM   12  C4  UNL     1      26.108   3.187  49.525  1.00  0.00     0.273 C 
HETATM   13  C5  UNL     1      26.977   4.439  49.379  1.00  0.00     0.046 C 
HETATM   14  C6  UNL     1      25.934   5.444  48.959  1.00  0.00     0.107 C 
HETATM   15  C8  UNL     1      24.594   4.885  49.389  1.00  0.00     0.286 C 
BRANCH  14  16
HETATM   16  C7  UNL     1      26.128   6.765  49.617  1.00  0.00     0.221 C 
HETATM   17  N2  UNL     1      25.500   6.966  50.884  1.00  0.00    -0.370 N 
HETATM   18  H11 UNL     1      24.624   7.392  51.305  1.00  0.00     0.159 HD
HETATM   19  H12 UNL     1      25.827   6.682  51.848  1.00  0.00     0.159 HD
HETATM   20  O1  UNL     1      26.762   7.800  49.279  1.00  0.00    -0.273 OA
ENDBRANCH  14  16
ENDBRANCH  10  11
ENDBRANCH   2  10
BRANCH   8  21
HETATM   21  N5  UNL     1      21.312   0.746  51.413  1.00  0.00    -0.364 N 
HETATM   22  H20 UNL     1      20.378   0.423  51.078  1.00  0.00     0.162 HD
BRANCH  21  23
HETATM   23  C13 UNL     1      21.826   0.104  52.599  1.00  0.00     0.031 A 
HETATM   24  C14 UNL     1      20.960  -0.440  53.550  1.00  0.00     0.032 A 
HETATM   25  C15 UNL     1      21.496  -1.036  54.656  1.00  0.00     0.046 A 
HETATM   26  C16 UNL     1      22.843  -1.134  54.896  1.00  0.00     0.138 A 
HETATM   27  F1  UNL     1      23.220  -1.753  56.041  1.00  0.00    -0.204 F 
HETATM   28  C17 UNL     1      23.696  -0.601  53.966  1.00  0.00     0.074 A 
HETATM   29 CL1  UNL     1      25.408  -0.725  54.269  1.00  0.00    -0.081 Cl
HETATM   30  C18 UNL     1      23.193   0.015  52.822  1.00  0.00     0.056 A 
ENDBRANCH  21  23
ENDBRANCH   8  21
TORSDOF 5
ENDMDL
