MODEL 1
REMARK VINA RESULT:      -7.9      0.000      0.000
REMARK  3 active torsions:
REMARK  status: ('A' for Active; 'I' for Inactive)
REMARK    1  A    between atoms: C5_5  and  C6_6 
REMARK    2  A    between atoms: C6_6  and  N1_7 
REMARK    3  A    between atoms: N1_7  and  C7_8 
ROOT
HETATM    1  C7  UNL     1      26.075   2.742  51.703  1.00  0.00     0.156 A 
HETATM    2  N2  UNL     1      27.030   3.048  50.769  1.00  0.00    -0.222 NA
HETATM    3  C8  UNL     1      26.584   3.484  49.579  1.00  0.00     0.238 A 
HETATM    4  N3  UNL     1      25.267   3.607  49.340  1.00  0.00    -0.215 NA
HETATM    5  C9  UNL     1      24.323   3.313  50.239  1.00  0.00     0.201 A 
HETATM    6  C10 UNL     1      24.689   2.855  51.490  1.00  0.00     0.132 A 
HETATM    7  N4  UNL     1      23.969   2.437  52.635  1.00  0.00    -0.359 N 
HETATM    8  C11 UNL     1      23.247   1.304  53.175  1.00  0.00     0.088 C 
HETATM    9  C12 UNL     1      22.272   0.470  52.929  1.00  0.00     0.017 C 
HETATM   10  C13 UNL     1      21.266   0.095  51.992  1.00  0.00     0.001 C 
HETATM   11  C14 UNL     1      20.712   0.348  50.825  1.00  0.00     0.002 C 
HETATM   12  C15 UNL     1      21.259   1.484  50.017  1.00  0.00     0.025 C 
HETATM   13  C16 UNL     1      22.126   2.528  49.808  1.00  0.00     0.144 C 
HETATM   14  O1  UNL     1      23.049   3.529  49.742  1.00  0.00    -0.302 OA
HETATM   15  H9  UNL     1      24.091   3.314  53.187  1.00  0.00     0.165 HD
ENDROOT
BRANCH   1  16
HETATM   16  N1  UNL     1      26.555   2.315  52.997  1.00  0.00    -0.370 N 
HETATM   17  H7  UNL     1      25.950   2.102  53.815  1.00  0.00     0.161 HD
BRANCH  16  18
HETATM   18  C6  UNL     1      27.973   2.163  53.213  1.00  0.00     0.152 C 
BRANCH  18  19
HETATM   19  C5  UNL     1      28.263   0.900  53.982  1.00  0.00     0.149 C 
HETATM   20  C4  UNL     1      29.658   0.437  53.808  1.00  0.00     0.002 C 
HETATM   21  C3  UNL     1      29.973  -0.817  53.479  1.00  0.00     0.001 C 
HETATM   22  C2  UNL     1      28.842  -1.723  53.298  1.00  0.00     0.033 C 
HETATM   23  C1  UNL     1      27.719  -1.135  52.988  1.00  0.00     0.080 C 
HETATM   24  N5  UNL     1      27.291  -0.101  53.545  1.00  0.00    -0.277 NA
ENDBRANCH  18  19
ENDBRANCH  16  18
ENDBRANCH   1  16
TORSDOF 3
ENDMDL
MODEL 2
REMARK VINA RESULT:      -7.9      2.481      5.369
REMARK  3 active torsions:
REMARK  status: ('A' for Active; 'I' for Inactive)
REMARK    1  A    between atoms: C5_5  and  C6_6 
REMARK    2  A    between atoms: C6_6  and  N1_7 
REMARK    3  A    between atoms: N1_7  and  C7_8 
ROOT
HETATM    1  C7  UNL     1      26.500   1.835  53.135  1.00  0.00     0.156 A 
HETATM    2  N2  UNL     1      27.649   2.016  53.860  1.00  0.00    -0.222 NA
HETATM    3  C8  UNL     1      27.937   1.069  54.769  1.00  0.00     0.238 A 
HETATM    4  N3  UNL     1      27.128   0.010  54.940  1.00  0.00    -0.215 NA
HETATM    5  C9  UNL     1      26.004  -0.181  54.242  1.00  0.00     0.201 A 
HETATM    6  C10 UNL     1      25.627   0.743  53.287  1.00  0.00     0.132 A 
HETATM    7  N4  UNL     1      24.518   0.862  52.415  1.00  0.00    -0.359 N 
HETATM    8  C11 UNL     1      23.130   1.274  52.388  1.00  0.00     0.088 C 
HETATM    9  C12 UNL     1      21.970   1.082  52.956  1.00  0.00     0.017 C 
HETATM   10  C13 UNL     1      21.271   0.362  53.967  1.00  0.00     0.001 C 
HETATM   11  C14 UNL     1      21.358  -0.532  54.930  1.00  0.00     0.002 C 
HETATM   12  C15 UNL     1      22.698  -1.146  55.202  1.00  0.00     0.025 C 
HETATM   13  C16 UNL     1      24.041  -1.301  54.963  1.00  0.00     0.144 C 
HETATM   14  O1  UNL     1      25.357  -1.347  54.611  1.00  0.00    -0.302 OA
HETATM   15  H9  UNL     1      25.001   0.527  51.553  1.00  0.00     0.165 HD
ENDROOT
BRANCH   1  16
HETATM   16  N1  UNL     1      26.214   2.831  52.128  1.00  0.00    -0.370 N 
HETATM   17  H7  UNL     1      25.483   3.566  52.210  1.00  0.00     0.161 HD
BRANCH  16  18
HETATM   18  C6  UNL     1      26.973   2.838  50.901  1.00  0.00     0.152 C 
BRANCH  18  19
HETATM   19  C5  UNL     1      26.210   3.539  49.807  1.00  0.00     0.149 C 
HETATM   20  C4  UNL     1      27.071   4.430  48.997  1.00  0.00     0.002 C 
HETATM   21  C3  UNL     1      26.757   5.699  48.730  1.00  0.00     0.001 C 
HETATM   22  C2  UNL     1      25.492   6.166  49.291  1.00  0.00     0.033 C 
HETATM   23  C1  UNL     1      25.090   5.509  50.345  1.00  0.00     0.080 C 
HETATM   24  N5  UNL     1      25.113   4.263  50.445  1.00  0.00    -0.277 NA
ENDBRANCH  18  19
ENDBRANCH  16  18
ENDBRANCH   1  16
TORSDOF 3
ENDMDL
MODEL 3
REMARK VINA RESULT:      -7.9      2.333      4.302
REMARK  3 active torsions:
REMARK  status: ('A' for Active; 'I' for Inactive)
REMARK    1  A    between atoms: C5_5  and  C6_6 
REMARK    2  A    between atoms: C6_6  and  N1_7 
REMARK    3  A    between atoms: N1_7  and  C7_8 
ROOT
HETATM    1  C7  UNL     1      23.541  -0.203  53.465  1.00  0.00     0.156 A 
HETATM    2  N2  UNL     1      23.128  -0.907  54.566  1.00  0.00    -0.222 NA
HETATM    3  C8  UNL     1      21.832  -0.788  54.899  1.00  0.00     0.238 A 
HETATM    4  N3  UNL     1      21.003  -0.016  54.177  1.00  0.00    -0.215 NA
HETATM    5  C9  UNL     1      21.389   0.677  53.102  1.00  0.00     0.201 A 
HETATM    6  C10 UNL     1      22.706   0.617  52.686  1.00  0.00     0.132 A 
HETATM    7  N4  UNL     1      23.437   1.229  51.640  1.00  0.00    -0.359 N 
HETATM    8  C11 UNL     1      24.086   2.472  51.279  1.00  0.00     0.088 C 
HETATM    9  C12 UNL     1      23.891   3.758  51.161  1.00  0.00     0.017 C 
HETATM   10  C13 UNL     1      22.943   4.813  51.298  1.00  0.00     0.001 C 
HETATM   11  C14 UNL     1      21.709   5.136  51.620  1.00  0.00     0.002 C 
HETATM   12  C15 UNL     1      20.782   4.039  52.047  1.00  0.00     0.025 C 
HETATM   13  C16 UNL     1      20.486   2.725  52.315  1.00  0.00     0.144 C 
HETATM   14  O1  UNL     1      20.343   1.388  52.541  1.00  0.00    -0.302 OA
HETATM   15  H9  UNL     1      23.449   0.405  50.999  1.00  0.00     0.165 HD
ENDROOT
BRANCH   1  16
HETATM   16  N1  UNL     1      24.925  -0.365  53.081  1.00  0.00    -0.370 N 
HETATM   17  H7  UNL     1      25.303  -0.179  52.131  1.00  0.00     0.161 HD
BRANCH  16  18
HETATM   18  C6  UNL     1      25.884  -0.817  54.059  1.00  0.00     0.152 C 
BRANCH  18  19
HETATM   19  C5  UNL     1      26.633   0.349  54.650  1.00  0.00     0.149 C 
HETATM   20  C4  UNL     1      26.694   1.508  53.733  1.00  0.00     0.002 C 
HETATM   21  C3  UNL     1      27.828   2.146  53.441  1.00  0.00     0.001 C 
HETATM   22  C2  UNL     1      29.028   1.627  54.091  1.00  0.00     0.033 C 
HETATM   23  C1  UNL     1      28.954   0.373  54.447  1.00  0.00     0.080 C 
HETATM   24  N5  UNL     1      27.964  -0.137  55.014  1.00  0.00    -0.277 NA
ENDBRANCH  18  19
ENDBRANCH  16  18
ENDBRANCH   1  16
TORSDOF 3
ENDMDL
MODEL 4
REMARK VINA RESULT:      -7.8      2.486      5.851
REMARK  3 active torsions:
REMARK  status: ('A' for Active; 'I' for Inactive)
REMARK    1  A    between atoms: C5_5  and  C6_6 
REMARK    2  A    between atoms: C6_6  and  N1_7 
REMARK    3  A    between atoms: N1_7  and  C7_8 
ROOT
HETATM    1  C7  UNL     1      24.551   3.997  50.891  1.00  0.00     0.156 A 
HETATM    2  N2  UNL     1      23.417   4.289  50.179  1.00  0.00    -0.222 NA
HETATM    3  C8  UNL     1      22.306   3.618  50.525  1.00  0.00     0.238 A 
HETATM    4  N3  UNL     1      22.328   2.715  51.519  1.00  0.00    -0.215 NA
HETATM    5  C9  UNL     1      23.424   2.418  52.223  1.00  0.00     0.201 A 
HETATM    6  C10 UNL     1      24.615   3.057  51.936  1.00  0.00     0.132 A 
HETATM    7  N4  UNL     1      25.931   2.965  52.448  1.00  0.00    -0.359 N 
HETATM    8  C11 UNL     1      27.129   2.155  52.373  1.00  0.00     0.088 C 
HETATM    9  C12 UNL     1      27.577   0.935  52.501  1.00  0.00     0.017 C 
HETATM   10  C13 UNL     1      27.223  -0.414  52.794  1.00  0.00     0.001 C 
HETATM   11  C14 UNL     1      26.251  -1.244  53.107  1.00  0.00     0.002 C 
HETATM   12  C15 UNL     1      24.868  -0.686  53.255  1.00  0.00     0.025 C 
HETATM   13  C16 UNL     1      23.958   0.343  53.240  1.00  0.00     0.144 C 
HETATM   14  O1  UNL     1      23.177   1.458  53.189  1.00  0.00    -0.302 OA
HETATM   15  H9  UNL     1      25.894   3.822  53.043  1.00  0.00     0.165 HD
ENDROOT
BRANCH   1  16
HETATM   16  N1  UNL     1      25.736   4.750  50.549  1.00  0.00    -0.370 N 
HETATM   17  H7  UNL     1      26.710   4.451  50.756  1.00  0.00     0.161 HD
BRANCH  16  18
HETATM   18  C6  UNL     1      25.601   6.016  49.870  1.00  0.00     0.152 C 
BRANCH  18  19
HETATM   19  C5  UNL     1      26.393   6.020  48.588  1.00  0.00     0.149 C 
HETATM   20  C4  UNL     1      27.520   5.062  48.614  1.00  0.00     0.002 C 
HETATM   21  C3  UNL     1      28.767   5.395  48.278  1.00  0.00     0.001 C 
HETATM   22  C2  UNL     1      28.960   6.784  47.874  1.00  0.00     0.033 C 
HETATM   23  C1  UNL     1      28.073   7.616  48.348  1.00  0.00     0.080 C 
HETATM   24  N5  UNL     1      26.844   7.394  48.368  1.00  0.00    -0.277 NA
ENDBRANCH  18  19
ENDBRANCH  16  18
ENDBRANCH   1  16
TORSDOF 3
ENDMDL
MODEL 5
REMARK VINA RESULT:      -7.6      2.238      4.679
REMARK  3 active torsions:
REMARK  status: ('A' for Active; 'I' for Inactive)
REMARK    1  A    between atoms: C5_5  and  C6_6 
REMARK    2  A    between atoms: C6_6  and  N1_7 
REMARK    3  A    between atoms: N1_7  and  C7_8 
ROOT
HETATM    1  C7  UNL     1      23.375   3.308  51.455  1.00  0.00     0.156 A 
HETATM    2  N2  UNL     1      22.347   3.693  52.275  1.00  0.00    -0.222 NA
HETATM    3  C8  UNL     1      21.622   4.748  51.869  1.00  0.00     0.238 A 
HETATM    4  N3  UNL     1      21.906   5.377  50.716  1.00  0.00    -0.215 NA
HETATM    5  C9  UNL     1      22.905   5.015  49.905  1.00  0.00     0.201 A 
HETATM    6  C10 UNL     1      23.706   3.941  50.243  1.00  0.00     0.132 A 
HETATM    7  N4  UNL     1      24.833   3.327  49.647  1.00  0.00    -0.359 N 
HETATM    8  C11 UNL     1      26.265   3.480  49.491  1.00  0.00     0.088 C 
HETATM    9  C12 UNL     1      27.192   4.312  49.098  1.00  0.00     0.017 C 
HETATM   10  C13 UNL     1      27.447   5.609  48.566  1.00  0.00     0.001 C 
HETATM   11  C14 UNL     1      26.921   6.742  48.152  1.00  0.00     0.002 C 
HETATM   12  C15 UNL     1      25.430   6.884  48.198  1.00  0.00     0.025 C 
HETATM   13  C16 UNL     1      24.166   6.420  48.468  1.00  0.00     0.144 C 
HETATM   14  O1  UNL     1      22.982   5.824  48.785  1.00  0.00    -0.302 OA
HETATM   15  H9  UNL     1      24.328   2.511  49.237  1.00  0.00     0.165 HD
ENDROOT
BRANCH   1  16
HETATM   16  N1  UNL     1      24.128   2.147  51.870  1.00  0.00    -0.370 N 
HETATM   17  H7  UNL     1      24.220   1.271  51.318  1.00  0.00     0.161 HD
BRANCH  16  18
HETATM   18  C6  UNL     1      24.815   2.163  53.138  1.00  0.00     0.152 C 
BRANCH  18  19
HETATM   19  C5  UNL     1      26.258   1.763  52.968  1.00  0.00     0.149 C 
HETATM   20  C4  UNL     1      26.419   0.578  52.097  1.00  0.00     0.002 C 
HETATM   21  C3  UNL     1      27.151  -0.484  52.440  1.00  0.00     0.001 C 
HETATM   22  C2  UNL     1      27.796  -0.407  53.747  1.00  0.00     0.033 C 
HETATM   23  C1  UNL     1      27.213   0.397  54.595  1.00  0.00     0.080 C 
HETATM   24  N5  UNL     1      26.802   1.541  54.306  1.00  0.00    -0.277 NA
ENDBRANCH  18  19
ENDBRANCH  16  18
ENDBRANCH   1  16
TORSDOF 3
ENDMDL
MODEL 6
REMARK VINA RESULT:      -7.5      2.186      3.174
REMARK  3 active torsions:
REMARK  status: ('A' for Active; 'I' for Inactive)
REMARK    1  A    between atoms: C5_5  and  C6_6 
REMARK    2  A    between atoms: C6_6  and  N1_7 
REMARK    3  A    between atoms: N1_7  and  C7_8 
ROOT
HETATM    1  C7  UNL     1      23.508   0.994  52.599  1.00  0.00     0.156 A 
HETATM    2  N2  UNL     1      24.260   1.525  51.583  1.00  0.00    -0.222 NA
HETATM    3  C8  UNL     1      23.605   2.283  50.689  1.00  0.00     0.238 A 
HETATM    4  N3  UNL     1      22.284   2.499  50.804  1.00  0.00    -0.215 NA
HETATM    5  C9  UNL     1      21.536   1.990  51.787  1.00  0.00     0.201 A 
HETATM    6  C10 UNL     1      22.123   1.194  52.752  1.00  0.00     0.132 A 
HETATM    7  N4  UNL     1      21.637   0.491  53.880  1.00  0.00    -0.359 N 
HETATM    8  C11 UNL     1      20.953  -0.730  54.253  1.00  0.00     0.088 C 
HETATM    9  C12 UNL     1      19.880  -1.440  54.028  1.00  0.00     0.017 C 
HETATM   10  C13 UNL     1      18.666  -1.517  53.286  1.00  0.00     0.001 C 
HETATM   11  C14 UNL     1      17.896  -0.937  52.390  1.00  0.00     0.002 C 
HETATM   12  C15 UNL     1      18.350   0.366  51.807  1.00  0.00     0.025 C 
HETATM   13  C16 UNL     1      19.238   1.406  51.686  1.00  0.00     0.144 C 
HETATM   14  O1  UNL     1      20.208   2.364  51.675  1.00  0.00    -0.302 OA
HETATM   15  H9  UNL     1      21.950   1.178  54.599  1.00  0.00     0.165 HD
ENDROOT
BRANCH   1  16
HETATM   16  N1  UNL     1      24.219   0.213  53.585  1.00  0.00    -0.370 N 
HETATM   17  H7  UNL     1      23.816  -0.116  54.484  1.00  0.00     0.161 HD
BRANCH  16  18
HETATM   18  C6  UNL     1      25.592  -0.155  53.342  1.00  0.00     0.152 C 
BRANCH  18  19
HETATM   19  C5  UNL     1      26.518   0.604  54.256  1.00  0.00     0.149 C 
HETATM   20  C4  UNL     1      27.048   1.836  53.631  1.00  0.00     0.002 C 
HETATM   21  C3  UNL     1      28.346   2.143  53.615  1.00  0.00     0.001 C 
HETATM   22  C2  UNL     1      29.230   1.178  54.263  1.00  0.00     0.033 C 
HETATM   23  C1  UNL     1      28.756  -0.037  54.322  1.00  0.00     0.080 C 
HETATM   24  N5  UNL     1      27.583  -0.317  54.649  1.00  0.00    -0.277 NA
ENDBRANCH  18  19
ENDBRANCH  16  18
ENDBRANCH   1  16
TORSDOF 3
ENDMDL
MODEL 7
REMARK VINA RESULT:      -7.4      6.843      8.868
REMARK  3 active torsions:
REMARK  status: ('A' for Active; 'I' for Inactive)
REMARK    1  A    between atoms: C5_5  and  C6_6 
REMARK    2  A    between atoms: C6_6  and  N1_7 
REMARK    3  A    between atoms: N1_7  and  C7_8 
ROOT
HETATM    1  C7  UNL     1      30.330   9.097  47.867  1.00  0.00     0.156 A 
HETATM    2  N2  UNL     1      30.339  10.414  47.489  1.00  0.00    -0.222 NA
HETATM    3  C8  UNL     1      29.434  11.211  48.080  1.00  0.00     0.238 A 
HETATM    4  N3  UNL     1      28.576  10.723  48.991  1.00  0.00    -0.215 NA
HETATM    5  C9  UNL     1      28.553   9.442  49.370  1.00  0.00     0.201 A 
HETATM    6  C10 UNL     1      29.446   8.547  48.814  1.00  0.00     0.132 A 
HETATM    7  N4  UNL     1      29.669   7.157  48.961  1.00  0.00    -0.359 N 
HETATM    8  C11 UNL     1      29.158   5.870  48.538  1.00  0.00     0.088 C 
HETATM    9  C12 UNL     1      28.077   5.139  48.488  1.00  0.00     0.017 C 
HETATM   10  C13 UNL     1      26.688   5.086  48.799  1.00  0.00     0.001 C 
HETATM   11  C14 UNL     1      25.659   5.726  49.315  1.00  0.00     0.002 C 
HETATM   12  C15 UNL     1      25.884   7.110  49.843  1.00  0.00     0.025 C 
HETATM   13  C16 UNL     1      26.673   8.201  50.115  1.00  0.00     0.144 C 
HETATM   14  O1  UNL     1      27.575   9.201  50.321  1.00  0.00    -0.302 OA
HETATM   15  H9  UNL     1      30.503   7.231  49.584  1.00  0.00     0.165 HD
ENDROOT
BRANCH   1  16
HETATM   16  N1  UNL     1      31.331   8.248  47.264  1.00  0.00    -0.370 N 
HETATM   17  H7  UNL     1      31.132   7.362  46.758  1.00  0.00     0.161 HD
BRANCH  16  18
HETATM   18  C6  UNL     1      32.722   8.620  47.349  1.00  0.00     0.152 C 
BRANCH  18  19
HETATM   19  C5  UNL     1      33.384   7.945  48.522  1.00  0.00     0.149 C 
HETATM   20  C4  UNL     1      34.859   7.925  48.408  1.00  0.00     0.002 C 
HETATM   21  C3  UNL     1      35.587   6.820  48.572  1.00  0.00     0.001 C 
HETATM   22  C2  UNL     1      34.832   5.609  48.878  1.00  0.00     0.033 C 
HETATM   23  C1  UNL     1      33.590   5.625  48.474  1.00  0.00     0.080 C 
HETATM   24  N5  UNL     1      32.820   6.599  48.616  1.00  0.00    -0.277 NA
ENDBRANCH  18  19
ENDBRANCH  16  18
ENDBRANCH   1  16
TORSDOF 3
ENDMDL
MODEL 8
REMARK VINA RESULT:      -7.4      6.595      8.294
REMARK  3 active torsions:
REMARK  status: ('A' for Active; 'I' for Inactive)
REMARK    1  A    between atoms: C5_5  and  C6_6 
REMARK    2  A    between atoms: C6_6  and  N1_7 
REMARK    3  A    between atoms: N1_7  and  C7_8 
ROOT
HETATM    1  C7  UNL     1      30.954   8.024  47.678  1.00  0.00     0.156 A 
HETATM    2  N2  UNL     1      31.411   9.221  47.189  1.00  0.00    -0.222 NA
HETATM    3  C8  UNL     1      30.825  10.327  47.674  1.00  0.00     0.238 A 
HETATM    4  N3  UNL     1      29.846  10.243  48.591  1.00  0.00    -0.215 NA
HETATM    5  C9  UNL     1      29.390   9.086  49.079  1.00  0.00     0.201 A 
HETATM    6  C10 UNL     1      29.931   7.895  48.635  1.00  0.00     0.132 A 
HETATM    7  N4  UNL     1      29.671   6.531  48.910  1.00  0.00    -0.359 N 
HETATM    8  C11 UNL     1      28.758   5.457  48.581  1.00  0.00     0.088 C 
HETATM    9  C12 UNL     1      27.494   5.129  48.553  1.00  0.00     0.017 C 
HETATM   10  C13 UNL     1      26.166   5.576  48.816  1.00  0.00     0.001 C 
HETATM   11  C14 UNL     1      25.412   6.569  49.236  1.00  0.00     0.002 C 
HETATM   12  C15 UNL     1      26.087   7.840  49.652  1.00  0.00     0.025 C 
HETATM   13  C16 UNL     1      27.197   8.623  49.857  1.00  0.00     0.144 C 
HETATM   14  O1  UNL     1      28.383   9.277  50.009  1.00  0.00    -0.302 OA
HETATM   15  H9  UNL     1      30.477   6.378  49.555  1.00  0.00     0.165 HD
ENDROOT
BRANCH   1  16
HETATM   16  N1  UNL     1      31.614   6.836  47.188  1.00  0.00    -0.370 N 
HETATM   17  H7  UNL     1      31.153   6.087  46.634  1.00  0.00     0.161 HD
BRANCH  16  18
HETATM   18  C6  UNL     1      33.015   6.635  47.468  1.00  0.00     0.152 C 
BRANCH  18  19
HETATM   19  C5  UNL     1      33.220   5.396  48.300  1.00  0.00     0.149 C 
HETATM   20  C4  UNL     1      34.552   4.786  48.092  1.00  0.00     0.002 C 
HETATM   21  C3  UNL     1      34.726   3.490  47.826  1.00  0.00     0.001 C 
HETATM   22  C2  UNL     1      33.505   2.693  47.754  1.00  0.00     0.033 C 
HETATM   23  C1  UNL     1      32.429   3.372  47.459  1.00  0.00     0.080 C 
HETATM   24  N5  UNL     1      32.134   4.474  47.970  1.00  0.00    -0.277 NA
ENDBRANCH  18  19
ENDBRANCH  16  18
ENDBRANCH   1  16
TORSDOF 3
ENDMDL
MODEL 9
REMARK VINA RESULT:      -7.3      1.810      2.193
REMARK  3 active torsions:
REMARK  status: ('A' for Active; 'I' for Inactive)
REMARK    1  A    between atoms: C5_5  and  C6_6 
REMARK    2  A    between atoms: C6_6  and  N1_7 
REMARK    3  A    between atoms: N1_7  and  C7_8 
ROOT
HETATM    1  C7  UNL     1      25.711   3.302  50.841  1.00  0.00     0.156 A 
HETATM    2  N2  UNL     1      26.236   4.023  49.800  1.00  0.00    -0.222 NA
HETATM    3  C8  UNL     1      25.578   5.144  49.459  1.00  0.00     0.238 A 
HETATM    4  N3  UNL     1      24.469   5.519  50.117  1.00  0.00    -0.215 NA
HETATM    5  C9  UNL     1      23.944   4.828  51.133  1.00  0.00     0.201 A 
HETATM    6  C10 UNL     1      24.551   3.660  51.552  1.00  0.00     0.132 A 
HETATM    7  N4  UNL     1      24.255   2.697  52.546  1.00  0.00    -0.359 N 
HETATM    8  C11 UNL     1      23.406   1.553  52.806  1.00  0.00     0.088 C 
HETATM    9  C12 UNL     1      22.163   1.153  52.820  1.00  0.00     0.017 C 
HETATM   10  C13 UNL     1      20.810   1.541  52.599  1.00  0.00     0.001 C 
HETATM   11  C14 UNL     1      19.996   2.516  52.252  1.00  0.00     0.002 C 
HETATM   12  C15 UNL     1      20.596   3.847  51.914  1.00  0.00     0.025 C 
HETATM   13  C16 UNL     1      21.657   4.703  51.752  1.00  0.00     0.144 C 
HETATM   14  O1  UNL     1      22.804   5.431  51.635  1.00  0.00    -0.302 OA
HETATM   15  H9  UNL     1      24.950   3.027  53.251  1.00  0.00     0.165 HD
ENDROOT
BRANCH   1  16
HETATM   16  N1  UNL     1      26.442   2.120  51.237  1.00  0.00    -0.370 N 
HETATM   17  H7  UNL     1      26.298   1.172  50.837  1.00  0.00     0.161 HD
BRANCH  16  18
HETATM   18  C6  UNL     1      27.454   2.221  52.260  1.00  0.00     0.152 C 
BRANCH  18  19
HETATM   19  C5  UNL     1      27.614   0.908  52.982  1.00  0.00     0.149 C 
HETATM   20  C4  UNL     1      26.844  -0.185  52.349  1.00  0.00     0.002 C 
HETATM   21  C3  UNL     1      26.030  -0.992  53.031  1.00  0.00     0.001 C 
HETATM   22  C2  UNL     1      25.941  -0.731  54.465  1.00  0.00     0.033 C 
HETATM   23  C1  UNL     1      26.236   0.492  54.813  1.00  0.00     0.080 C 
HETATM   24  N5  UNL     1      27.215   1.131  54.371  1.00  0.00    -0.277 NA
ENDBRANCH  18  19
ENDBRANCH  16  18
ENDBRANCH   1  16
TORSDOF 3
ENDMDL
