MODEL 1
REMARK VINA RESULT:      -7.5      0.000      0.000
REMARK  7 active torsions:
REMARK  status: ('A' for Active; 'I' for Inactive)
REMARK    1  A    between atoms: C5_5  and  N1_6 
REMARK    2  A    between atoms: N1_6  and  C6_7 
REMARK    3  A    between atoms: C6_7  and  C7_8 
REMARK    4  A    between atoms: C6_7  and  C8_10 
REMARK    5  A    between atoms: C11_13  and  N2_14 
REMARK    6  A    between atoms: N2_14  and  C13_16 
REMARK    7  A    between atoms: C13_16  and  C14_17 
ROOT
HETATM    1  C6  UNL     1      23.201   0.260  52.936  1.00  0.00     0.128 C 
ENDROOT
BRANCH   1   2
HETATM    2  N1  UNL     1      24.187  -0.231  53.853  1.00  0.00    -0.380 N 
HETATM    3  H6  UNL     1      23.772  -0.582  54.769  1.00  0.00     0.160 HD
BRANCH   2   4
HETATM    4  C5  UNL     1      25.598  -0.338  53.773  1.00  0.00     0.028 A 
HETATM    5  C4  UNL     1      26.235  -1.104  52.796  1.00  0.00     0.029 A 
HETATM    6  C3  UNL     1      27.609  -1.178  52.791  1.00  0.00     0.009 A 
HETATM    7  C2  UNL     1      28.404  -0.530  53.710  1.00  0.00    -0.062 A 
HETATM    8  C1  UNL     1      29.879  -0.658  53.640  1.00  0.00     0.048 C 
HETATM    9  C18 UNL     1      27.794   0.233  54.683  1.00  0.00     0.009 A 
HETATM   10  C17 UNL     1      26.416   0.301  54.681  1.00  0.00     0.029 A 
ENDBRANCH   2   4
ENDBRANCH   1   2
BRANCH   1  11
HETATM   11  C7  UNL     1      21.858   0.244  53.623  1.00  0.00     0.144 C 
HETATM   12 CL1  UNL     1      22.002  -0.845  55.026  1.00  0.00    -0.128 Cl
ENDBRANCH   1  11
BRANCH   1  13
HETATM   13  C8  UNL     1      23.500   1.597  52.414  1.00  0.00    -0.034 A 
HETATM   14  C9  UNL     1      23.523   1.675  51.038  1.00  0.00     0.011 A 
HETATM   15  C10 UNL     1      23.788   2.872  50.373  1.00  0.00     0.030 A 
HETATM   16  C11 UNL     1      24.041   4.045  51.043  1.00  0.00     0.029 A 
HETATM   17  C15 UNL     1      24.015   3.957  52.418  1.00  0.00     0.030 A 
HETATM   18  C16 UNL     1      23.755   2.780  53.076  1.00  0.00     0.011 A 
BRANCH  16  19
HETATM   19  N2  UNL     1      24.307   5.303  50.437  1.00  0.00    -0.384 N 
HETATM   20  C12 UNL     1      24.118   6.538  51.206  1.00  0.00     0.149 C 
BRANCH  19  21
HETATM   21  C13 UNL     1      24.752   5.514  49.078  1.00  0.00     0.137 C 
BRANCH  21  22
HETATM   22  C14 UNL     1      26.239   5.703  48.944  1.00  0.00     0.134 C 
HETATM   23 CL2  UNL     1      27.163   4.212  49.030  1.00  0.00    -0.129 Cl
ENDBRANCH  21  22
ENDBRANCH  19  21
ENDBRANCH  16  19
ENDBRANCH   1  13
TORSDOF 7
ENDMDL
MODEL 2
REMARK VINA RESULT:      -7.0      1.456      2.307
REMARK  7 active torsions:
REMARK  status: ('A' for Active; 'I' for Inactive)
REMARK    1  A    between atoms: C5_5  and  N1_6 
REMARK    2  A    between atoms: N1_6  and  C6_7 
REMARK    3  A    between atoms: C6_7  and  C7_8 
REMARK    4  A    between atoms: C6_7  and  C8_10 
REMARK    5  A    between atoms: C11_13  and  N2_14 
REMARK    6  A    between atoms: N2_14  and  C13_16 
REMARK    7  A    between atoms: C13_16  and  C14_17 
ROOT
HETATM    1  C6  UNL     1      23.201   0.160  52.892  1.00  0.00     0.128 C 
ENDROOT
BRANCH   1   2
HETATM    2  N1  UNL     1      24.168  -0.221  53.879  1.00  0.00    -0.380 N 
HETATM    3  H6  UNL     1      23.735  -0.454  54.824  1.00  0.00     0.160 HD
BRANCH   2   4
HETATM    4  C5  UNL     1      25.579  -0.346  53.838  1.00  0.00     0.028 A 
HETATM    5  C4  UNL     1      26.415   0.325  54.732  1.00  0.00     0.029 A 
HETATM    6  C3  UNL     1      27.778   0.171  54.620  1.00  0.00     0.009 A 
HETATM    7  C2  UNL     1      28.373  -0.620  53.661  1.00  0.00    -0.062 A 
HETATM    8  C1  UNL     1      29.850  -0.736  53.603  1.00  0.00     0.048 C 
HETATM    9  C18 UNL     1      27.564  -1.291  52.769  1.00  0.00     0.009 A 
HETATM   10  C17 UNL     1      26.199  -1.130  52.888  1.00  0.00     0.029 A 
ENDBRANCH   2   4
ENDBRANCH   1   2
BRANCH   1  11
HETATM   11  C7  UNL     1      21.843   0.213  53.547  1.00  0.00     0.144 C 
HETATM   12 CL1  UNL     1      21.922  -0.816  55.000  1.00  0.00    -0.128 Cl
ENDBRANCH   1  11
BRANCH   1  13
HETATM   13  C8  UNL     1      23.508   1.431  52.231  1.00  0.00    -0.034 A 
HETATM   14  C9  UNL     1      23.744   2.477  53.099  1.00  0.00     0.011 A 
HETATM   15  C10 UNL     1      24.055   3.757  52.640  1.00  0.00     0.030 A 
HETATM   16  C11 UNL     1      24.145   4.058  51.302  1.00  0.00     0.029 A 
HETATM   17  C15 UNL     1      23.907   3.007  50.444  1.00  0.00     0.030 A 
HETATM   18  C16 UNL     1      23.602   1.745  50.891  1.00  0.00     0.011 A 
BRANCH  16  19
HETATM   19  N2  UNL     1      24.467   5.332  50.761  1.00  0.00    -0.384 N 
HETATM   20  C12 UNL     1      25.466   5.440  49.691  1.00  0.00     0.149 C 
BRANCH  19  21
HETATM   21  C13 UNL     1      23.905   6.598  51.174  1.00  0.00     0.137 C 
BRANCH  21  22
HETATM   22  C14 UNL     1      22.445   6.756  50.845  1.00  0.00     0.134 C 
HETATM   23 CL2  UNL     1      22.080   8.160  49.855  1.00  0.00    -0.129 Cl
ENDBRANCH  21  22
ENDBRANCH  19  21
ENDBRANCH  16  19
ENDBRANCH   1  13
TORSDOF 7
ENDMDL
MODEL 3
REMARK VINA RESULT:      -6.7      2.322      6.794
REMARK  7 active torsions:
REMARK  status: ('A' for Active; 'I' for Inactive)
REMARK    1  A    between atoms: C5_5  and  N1_6 
REMARK    2  A    between atoms: N1_6  and  C6_7 
REMARK    3  A    between atoms: C6_7  and  C7_8 
REMARK    4  A    between atoms: C6_7  and  C8_10 
REMARK    5  A    between atoms: C11_13  and  N2_14 
REMARK    6  A    between atoms: N2_14  and  C13_16 
REMARK    7  A    between atoms: C13_16  and  C14_17 
ROOT
HETATM    1  C6  UNL     1      23.177   5.151  51.121  1.00  0.00     0.128 C 
ENDROOT
BRANCH   1   2
HETATM    2  N1  UNL     1      23.765   5.349  49.828  1.00  0.00    -0.380 N 
HETATM    3  H6  UNL     1      23.047   5.519  49.061  1.00  0.00     0.160 HD
BRANCH   2   4
HETATM    4  C5  UNL     1      25.110   5.364  49.381  1.00  0.00     0.028 A 
HETATM    5  C4  UNL     1      25.945   4.251  49.491  1.00  0.00     0.029 A 
HETATM    6  C3  UNL     1      27.246   4.344  49.053  1.00  0.00     0.009 A 
HETATM    7  C2  UNL     1      27.780   5.489  48.505  1.00  0.00    -0.062 A 
HETATM    8  C1  UNL     1      29.193   5.512  48.056  1.00  0.00     0.048 C 
HETATM    9  C18 UNL     1      26.970   6.599  48.388  1.00  0.00     0.009 A 
HETATM   10  C17 UNL     1      25.667   6.497  48.829  1.00  0.00     0.029 A 
ENDBRANCH   2   4
ENDBRANCH   1   2
BRANCH   1  11
HETATM   11  C7  UNL     1      21.752   5.647  51.080  1.00  0.00     0.144 C 
HETATM   12 CL1  UNL     1      21.813   7.377  50.653  1.00  0.00    -0.128 Cl
ENDBRANCH   1  11
BRANCH   1  13
HETATM   13  C8  UNL     1      23.228   3.761  51.581  1.00  0.00    -0.034 A 
HETATM   14  C9  UNL     1      24.093   3.545  52.633  1.00  0.00     0.011 A 
HETATM   15  C10 UNL     1      24.263   2.281  53.198  1.00  0.00     0.030 A 
HETATM   16  C11 UNL     1      23.585   1.175  52.745  1.00  0.00     0.029 A 
HETATM   17  C15 UNL     1      22.723   1.402  51.694  1.00  0.00     0.030 A 
HETATM   18  C16 UNL     1      22.552   2.645  51.136  1.00  0.00     0.011 A 
BRANCH  16  19
HETATM   19  N2  UNL     1      23.696  -0.138  53.276  1.00  0.00    -0.384 N 
HETATM   20  C12 UNL     1      24.992  -0.621  53.765  1.00  0.00     0.149 C 
BRANCH  19  21
HETATM   21  C13 UNL     1      22.627  -1.105  53.382  1.00  0.00     0.137 C 
BRANCH  21  22
HETATM   22  C14 UNL     1      21.828  -0.998  54.653  1.00  0.00     0.134 C 
HETATM   23 CL2  UNL     1      20.723   0.367  54.694  1.00  0.00    -0.129 Cl
ENDBRANCH  21  22
ENDBRANCH  19  21
ENDBRANCH  16  19
ENDBRANCH   1  13
TORSDOF 7
ENDMDL
MODEL 4
REMARK VINA RESULT:      -6.7      2.676      4.085
REMARK  7 active torsions:
REMARK  status: ('A' for Active; 'I' for Inactive)
REMARK    1  A    between atoms: C5_5  and  N1_6 
REMARK    2  A    between atoms: N1_6  and  C6_7 
REMARK    3  A    between atoms: C6_7  and  C7_8 
REMARK    4  A    between atoms: C6_7  and  C8_10 
REMARK    5  A    between atoms: C11_13  and  N2_14 
REMARK    6  A    between atoms: N2_14  and  C13_16 
REMARK    7  A    between atoms: C13_16  and  C14_17 
ROOT
HETATM    1  C6  UNL     1      25.188   3.155  50.856  1.00  0.00     0.128 C 
ENDROOT
BRANCH   1   2
HETATM    2  N1  UNL     1      25.840   2.877  52.102  1.00  0.00    -0.380 N 
HETATM    3  H6  UNL     1      25.589   3.568  52.872  1.00  0.00     0.160 HD
BRANCH   2   4
HETATM    4  C5  UNL     1      26.748   1.864  52.501  1.00  0.00     0.028 A 
HETATM    5  C4  UNL     1      27.976   2.154  53.096  1.00  0.00     0.029 A 
HETATM    6  C3  UNL     1      28.815   1.119  53.441  1.00  0.00     0.009 A 
HETATM    7  C2  UNL     1      28.508  -0.206  53.228  1.00  0.00    -0.062 A 
HETATM    8  C1  UNL     1      29.465  -1.266  53.626  1.00  0.00     0.048 C 
HETATM    9  C18 UNL     1      27.298  -0.513  52.641  1.00  0.00     0.009 A 
HETATM   10  C17 UNL     1      26.464   0.530  52.299  1.00  0.00     0.029 A 
ENDBRANCH   2   4
ENDBRANCH   1   2
BRANCH   1  11
HETATM   11  C7  UNL     1      23.784   3.627  51.145  1.00  0.00     0.144 C 
HETATM   12 CL1  UNL     1      23.067   2.464  52.289  1.00  0.00    -0.128 Cl
ENDBRANCH   1  11
BRANCH   1  13
HETATM   13  C8  UNL     1      25.902   4.130  50.026  1.00  0.00    -0.034 A 
HETATM   14  C9  UNL     1      25.301   5.369  49.966  1.00  0.00     0.011 A 
HETATM   15  C10 UNL     1      25.847   6.417  49.224  1.00  0.00     0.030 A 
HETATM   16  C11 UNL     1      27.013   6.282  48.509  1.00  0.00     0.029 A 
HETATM   17  C15 UNL     1      27.606   5.040  48.576  1.00  0.00     0.030 A 
HETATM   18  C16 UNL     1      27.071   4.007  49.305  1.00  0.00     0.011 A 
BRANCH  16  19
HETATM   19  N2  UNL     1      27.635   7.304  47.742  1.00  0.00    -0.384 N 
HETATM   20  C12 UNL     1      29.024   7.141  47.299  1.00  0.00     0.149 C 
BRANCH  19  21
HETATM   21  C13 UNL     1      27.029   8.553  47.340  1.00  0.00     0.137 C 
BRANCH  21  22
HETATM   22  C14 UNL     1      26.280   8.478  46.037  1.00  0.00     0.134 C 
HETATM   23 CL2  UNL     1      24.616   7.941  46.195  1.00  0.00    -0.129 Cl
ENDBRANCH  21  22
ENDBRANCH  19  21
ENDBRANCH  16  19
ENDBRANCH   1  13
TORSDOF 7
ENDMDL
MODEL 5
REMARK VINA RESULT:      -6.6      3.094      5.358
REMARK  7 active torsions:
REMARK  status: ('A' for Active; 'I' for Inactive)
REMARK    1  A    between atoms: C5_5  and  N1_6 
REMARK    2  A    between atoms: N1_6  and  C6_7 
REMARK    3  A    between atoms: C6_7  and  C7_8 
REMARK    4  A    between atoms: C6_7  and  C8_10 
REMARK    5  A    between atoms: C11_13  and  N2_14 
REMARK    6  A    between atoms: N2_14  and  C13_16 
REMARK    7  A    between atoms: C13_16  and  C14_17 
ROOT
HETATM    1  C6  UNL     1      24.962   4.453  49.710  1.00  0.00     0.128 C 
ENDROOT
BRANCH   1   2
HETATM    2  N1  UNL     1      25.284   3.974  51.022  1.00  0.00    -0.380 N 
HETATM    3  H6  UNL     1      25.397   4.753  51.739  1.00  0.00     0.160 HD
BRANCH   2   4
HETATM    4  C5  UNL     1      25.478   2.670  51.543  1.00  0.00     0.028 A 
HETATM    5  C4  UNL     1      24.443   1.936  52.124  1.00  0.00     0.029 A 
HETATM    6  C3  UNL     1      24.708   0.683  52.627  1.00  0.00     0.009 A 
HETATM    7  C2  UNL     1      25.957   0.103  52.589  1.00  0.00    -0.062 A 
HETATM    8  C1  UNL     1      26.166  -1.252  53.153  1.00  0.00     0.048 C 
HETATM    9  C18 UNL     1      26.993   0.812  52.019  1.00  0.00     0.009 A 
HETATM   10  C17 UNL     1      26.718   2.067  51.518  1.00  0.00     0.029 A 
ENDBRANCH   2   4
ENDBRANCH   1   2
BRANCH   1  11
HETATM   11  C7  UNL     1      23.695   5.268  49.796  1.00  0.00     0.144 C 
HETATM   12 CL1  UNL     1      23.628   5.959  51.438  1.00  0.00    -0.128 Cl
ENDBRANCH   1  11
BRANCH   1  13
HETATM   13  C8  UNL     1      26.037   5.231  49.090  1.00  0.00    -0.034 A 
HETATM   14  C9  UNL     1      27.231   4.551  48.970  1.00  0.00     0.011 A 
HETATM   15  C10 UNL     1      28.359   5.140  48.399  1.00  0.00     0.030 A 
HETATM   16  C11 UNL     1      28.355   6.428  47.922  1.00  0.00     0.029 A 
HETATM   17  C15 UNL     1      27.158   7.099  48.046  1.00  0.00     0.030 A 
HETATM   18  C16 UNL     1      26.045   6.523  48.607  1.00  0.00     0.011 A 
BRANCH  16  19
HETATM   19  N2  UNL     1      29.458   7.091  47.319  1.00  0.00    -0.384 N 
HETATM   20  C12 UNL     1      29.223   8.176  46.359  1.00  0.00     0.149 C 
BRANCH  19  21
HETATM   21  C13 UNL     1      30.855   6.793  47.544  1.00  0.00     0.137 C 
BRANCH  21  22
HETATM   22  C14 UNL     1      31.369   7.251  48.882  1.00  0.00     0.134 C 
HETATM   23 CL2  UNL     1      31.824   5.944  49.963  1.00  0.00    -0.129 Cl
ENDBRANCH  21  22
ENDBRANCH  19  21
ENDBRANCH  16  19
ENDBRANCH   1  13
TORSDOF 7
ENDMDL
MODEL 6
REMARK VINA RESULT:      -6.6      2.352      6.244
REMARK  7 active torsions:
REMARK  status: ('A' for Active; 'I' for Inactive)
REMARK    1  A    between atoms: C5_5  and  N1_6 
REMARK    2  A    between atoms: N1_6  and  C6_7 
REMARK    3  A    between atoms: C6_7  and  C7_8 
REMARK    4  A    between atoms: C6_7  and  C8_10 
REMARK    5  A    between atoms: C11_13  and  N2_14 
REMARK    6  A    between atoms: N2_14  and  C13_16 
REMARK    7  A    between atoms: C13_16  and  C14_17 
ROOT
HETATM    1  C6  UNL     1      23.000   4.114  51.016  1.00  0.00     0.128 C 
ENDROOT
BRANCH   1   2
HETATM    2  N1  UNL     1      23.568   4.450  49.743  1.00  0.00    -0.380 N 
HETATM    3  H6  UNL     1      22.857   4.445  48.950  1.00  0.00     0.160 HD
BRANCH   2   4
HETATM    4  C5  UNL     1      24.885   4.787  49.342  1.00  0.00     0.028 A 
HETATM    5  C4  UNL     1      25.943   3.880  49.414  1.00  0.00     0.029 A 
HETATM    6  C3  UNL     1      27.200   4.284  49.026  1.00  0.00     0.009 A 
HETATM    7  C2  UNL     1      27.477   5.550  48.562  1.00  0.00    -0.062 A 
HETATM    8  C1  UNL     1      28.859   5.912  48.162  1.00  0.00     0.048 C 
HETATM    9  C18 UNL     1      26.445   6.461  48.482  1.00  0.00     0.009 A 
HETATM   10  C17 UNL     1      25.189   6.048  48.875  1.00  0.00     0.029 A 
ENDBRANCH   2   4
ENDBRANCH   1   2
BRANCH   1  11
HETATM   11  C7  UNL     1      21.507   3.975  50.852  1.00  0.00     0.144 C 
HETATM   12 CL1  UNL     1      20.832   3.652  52.470  1.00  0.00    -0.128 Cl
ENDBRANCH   1  11
BRANCH   1  13
HETATM   13  C8  UNL     1      23.571   2.902  51.610  1.00  0.00    -0.034 A 
HETATM   14  C9  UNL     1      24.446   3.140  52.649  1.00  0.00     0.011 A 
HETATM   15  C10 UNL     1      25.078   2.100  53.331  1.00  0.00     0.030 A 
HETATM   16  C11 UNL     1      24.872   0.779  53.013  1.00  0.00     0.029 A 
HETATM   17  C15 UNL     1      23.997   0.552  51.973  1.00  0.00     0.030 A 
HETATM   18  C16 UNL     1      23.372   1.573  51.300  1.00  0.00     0.011 A 
BRANCH  16  19
HETATM   19  N2  UNL     1      25.469  -0.332  53.668  1.00  0.00    -0.384 N 
HETATM   20  C12 UNL     1      24.909  -0.822  54.933  1.00  0.00     0.149 C 
BRANCH  19  21
HETATM   21  C13 UNL     1      26.630  -1.063  53.214  1.00  0.00     0.137 C 
BRANCH  21  22
HETATM   22  C14 UNL     1      27.910  -0.273  53.269  1.00  0.00     0.134 C 
HETATM   23 CL2  UNL     1      29.361  -1.261  53.337  1.00  0.00    -0.129 Cl
ENDBRANCH  21  22
ENDBRANCH  19  21
ENDBRANCH  16  19
ENDBRANCH   1  13
TORSDOF 7
ENDMDL
MODEL 7
REMARK VINA RESULT:      -6.5      2.324      2.679
REMARK  7 active torsions:
REMARK  status: ('A' for Active; 'I' for Inactive)
REMARK    1  A    between atoms: C5_5  and  N1_6 
REMARK    2  A    between atoms: N1_6  and  C6_7 
REMARK    3  A    between atoms: C6_7  and  C7_8 
REMARK    4  A    between atoms: C6_7  and  C8_10 
REMARK    5  A    between atoms: C11_13  and  N2_14 
REMARK    6  A    between atoms: N2_14  and  C13_16 
REMARK    7  A    between atoms: C13_16  and  C14_17 
ROOT
HETATM    1  C6  UNL     1      23.264   0.100  53.040  1.00  0.00     0.128 C 
ENDROOT
BRANCH   1   2
HETATM    2  N1  UNL     1      24.383   0.380  53.892  1.00  0.00    -0.380 N 
HETATM    3  H6  UNL     1      24.126   0.959  54.748  1.00  0.00     0.160 HD
BRANCH   2   4
HETATM    4  C5  UNL     1      25.755   0.032  53.815  1.00  0.00     0.028 A 
HETATM    5  C4  UNL     1      26.257  -0.813  52.824  1.00  0.00     0.029 A 
HETATM    6  C3  UNL     1      27.597  -1.122  52.822  1.00  0.00     0.009 A 
HETATM    7  C2  UNL     1      28.486  -0.638  53.755  1.00  0.00    -0.062 A 
HETATM    8  C1  UNL     1      29.918  -1.017  53.688  1.00  0.00     0.048 C 
HETATM    9  C18 UNL     1      28.010   0.200  54.742  1.00  0.00     0.009 A 
HETATM   10  C17 UNL     1      26.665   0.504  54.737  1.00  0.00     0.029 A 
ENDBRANCH   2   4
ENDBRANCH   1   2
BRANCH   1  11
HETATM   11  C7  UNL     1      22.005   0.162  53.868  1.00  0.00     0.144 C 
HETATM   12 CL1  UNL     1      22.052  -1.216  54.997  1.00  0.00    -0.128 Cl
ENDBRANCH   1  11
BRANCH   1  13
HETATM   13  C8  UNL     1      23.170   0.996  51.885  1.00  0.00    -0.034 A 
HETATM   14  C9  UNL     1      21.976   0.913  51.201  1.00  0.00     0.011 A 
HETATM   15  C10 UNL     1      21.715   1.698  50.078  1.00  0.00     0.030 A 
HETATM   16  C11 UNL     1      22.626   2.600  49.583  1.00  0.00     0.029 A 
HETATM   17  C15 UNL     1      23.816   2.676  50.274  1.00  0.00     0.030 A 
HETATM   18  C16 UNL     1      24.076   1.905  51.380  1.00  0.00     0.011 A 
BRANCH  16  19
HETATM   19  N2  UNL     1      22.428   3.441  48.454  1.00  0.00    -0.384 N 
HETATM   20  C12 UNL     1      22.429   4.899  48.620  1.00  0.00     0.149 C 
BRANCH  19  21
HETATM   21  C13 UNL     1      22.203   3.001  47.096  1.00  0.00     0.137 C 
BRANCH  21  22
HETATM   22  C14 UNL     1      21.009   3.636  46.437  1.00  0.00     0.134 C 
HETATM   23 CL2  UNL     1      21.265   4.078  44.757  1.00  0.00    -0.129 Cl
ENDBRANCH  21  22
ENDBRANCH  19  21
ENDBRANCH  16  19
ENDBRANCH   1  13
TORSDOF 7
ENDMDL
MODEL 8
REMARK VINA RESULT:      -6.5      2.494      4.382
REMARK  7 active torsions:
REMARK  status: ('A' for Active; 'I' for Inactive)
REMARK    1  A    between atoms: C5_5  and  N1_6 
REMARK    2  A    between atoms: N1_6  and  C6_7 
REMARK    3  A    between atoms: C6_7  and  C7_8 
REMARK    4  A    between atoms: C6_7  and  C8_10 
REMARK    5  A    between atoms: C11_13  and  N2_14 
REMARK    6  A    between atoms: N2_14  and  C13_16 
REMARK    7  A    between atoms: C13_16  and  C14_17 
ROOT
HETATM    1  C6  UNL     1      26.603   0.902  54.083  1.00  0.00     0.128 C 
ENDROOT
BRANCH   1   2
HETATM    2  N1  UNL     1      25.917  -0.353  54.181  1.00  0.00    -0.380 N 
HETATM    3  H6  UNL     1      26.575  -1.188  54.247  1.00  0.00     0.160 HD
BRANCH   2   4
HETATM    4  C5  UNL     1      24.541  -0.691  54.210  1.00  0.00     0.028 A 
HETATM    5  C4  UNL     1      23.903  -1.125  55.373  1.00  0.00     0.029 A 
HETATM    6  C3  UNL     1      22.568  -1.455  55.323  1.00  0.00     0.009 A 
HETATM    7  C2  UNL     1      21.814  -1.380  54.173  1.00  0.00    -0.062 A 
HETATM    8  C1  UNL     1      20.379  -1.754  54.196  1.00  0.00     0.048 C 
HETATM    9  C18 UNL     1      22.426  -0.953  53.013  1.00  0.00     0.009 A 
HETATM   10  C17 UNL     1      23.765  -0.625  53.073  1.00  0.00     0.029 A 
ENDBRANCH   2   4
ENDBRANCH   1   2
BRANCH   1  11
HETATM   11  C7  UNL     1      28.083   0.631  53.967  1.00  0.00     0.144 C 
HETATM   12 CL1  UNL     1      28.263  -0.997  53.265  1.00  0.00    -0.128 Cl
ENDBRANCH   1  11
BRANCH   1  13
HETATM   13  C8  UNL     1      26.140   1.736  52.970  1.00  0.00    -0.034 A 
HETATM   14  C9  UNL     1      25.049   2.524  53.269  1.00  0.00     0.011 A 
HETATM   15  C10 UNL     1      24.480   3.382  52.328  1.00  0.00     0.030 A 
HETATM   16  C11 UNL     1      24.968   3.498  51.048  1.00  0.00     0.029 A 
HETATM   17  C15 UNL     1      26.059   2.707  50.759  1.00  0.00     0.030 A 
HETATM   18  C16 UNL     1      26.621   1.861  51.684  1.00  0.00     0.011 A 
BRANCH  16  19
HETATM   19  N2  UNL     1      24.451   4.356  50.041  1.00  0.00    -0.384 N 
HETATM   20  C12 UNL     1      24.775   5.787  50.063  1.00  0.00     0.149 C 
BRANCH  19  21
HETATM   21  C13 UNL     1      23.589   3.962  48.949  1.00  0.00     0.137 C 
BRANCH  21  22
HETATM   22  C14 UNL     1      22.277   3.372  49.388  1.00  0.00     0.134 C 
HETATM   23 CL2  UNL     1      22.302   1.626  49.578  1.00  0.00    -0.129 Cl
ENDBRANCH  21  22
ENDBRANCH  19  21
ENDBRANCH  16  19
ENDBRANCH   1  13
TORSDOF 7
ENDMDL
MODEL 9
REMARK VINA RESULT:      -6.4      2.990      5.967
REMARK  7 active torsions:
REMARK  status: ('A' for Active; 'I' for Inactive)
REMARK    1  A    between atoms: C5_5  and  N1_6 
REMARK    2  A    between atoms: N1_6  and  C6_7 
REMARK    3  A    between atoms: C6_7  and  C7_8 
REMARK    4  A    between atoms: C6_7  and  C8_10 
REMARK    5  A    between atoms: C11_13  and  N2_14 
REMARK    6  A    between atoms: N2_14  and  C13_16 
REMARK    7  A    between atoms: C13_16  and  C14_17 
ROOT
HETATM    1  C6  UNL     1      23.962   1.837  52.836  1.00  0.00     0.128 C 
ENDROOT
BRANCH   1   2
HETATM    2  N1  UNL     1      24.989   1.146  52.112  1.00  0.00    -0.380 N 
HETATM    3  H6  UNL     1      24.771   1.035  51.076  1.00  0.00     0.160 HD
BRANCH   2   4
HETATM    4  C5  UNL     1      26.230   0.590  52.510  1.00  0.00     0.028 A 
HETATM    5  C4  UNL     1      26.465  -0.786  52.514  1.00  0.00     0.029 A 
HETATM    6  C3  UNL     1      27.689  -1.256  52.932  1.00  0.00     0.009 A 
HETATM    7  C2  UNL     1      28.711  -0.434  53.352  1.00  0.00    -0.062 A 
HETATM    8  C1  UNL     1      30.003  -1.015  53.789  1.00  0.00     0.048 C 
HETATM    9  C18 UNL     1      28.499   0.928  53.356  1.00  0.00     0.009 A 
HETATM   10  C17 UNL     1      27.269   1.391  52.936  1.00  0.00     0.029 A 
ENDBRANCH   2   4
ENDBRANCH   1   2
BRANCH   1  11
HETATM   11  C7  UNL     1      23.764   3.195  52.209  1.00  0.00     0.144 C 
HETATM   12 CL1  UNL     1      24.422   3.107  50.555  1.00  0.00    -0.128 Cl
ENDBRANCH   1  11
BRANCH   1  13
HETATM   13  C8  UNL     1      22.694   1.104  52.896  1.00  0.00    -0.034 A 
HETATM   14  C9  UNL     1      21.603   1.826  52.460  1.00  0.00     0.011 A 
HETATM   15  C10 UNL     1      20.319   1.281  52.445  1.00  0.00     0.030 A 
HETATM   16  C11 UNL     1      20.059  -0.003  52.862  1.00  0.00     0.029 A 
HETATM   17  C15 UNL     1      21.156  -0.715  53.296  1.00  0.00     0.030 A 
HETATM   18  C16 UNL     1      22.422  -0.182  53.312  1.00  0.00     0.011 A 
BRANCH  16  19
HETATM   19  N2  UNL     1      18.784  -0.629  52.866  1.00  0.00    -0.384 N 
HETATM   20  C12 UNL     1      18.556  -1.819  53.695  1.00  0.00     0.149 C 
BRANCH  19  21
HETATM   21  C13 UNL     1      17.631  -0.215  52.097  1.00  0.00     0.137 C 
BRANCH  21  22
HETATM   22  C14 UNL     1      16.316  -0.639  52.691  1.00  0.00     0.134 C 
HETATM   23 CL2  UNL     1      15.448  -1.832  51.737  1.00  0.00    -0.129 Cl
ENDBRANCH  21  22
ENDBRANCH  19  21
ENDBRANCH  16  19
ENDBRANCH   1  13
TORSDOF 7
ENDMDL
