MODEL 1
REMARK VINA RESULT:      -7.9      0.000      0.000
REMARK  7 active torsions:
REMARK  status: ('A' for Active; 'I' for Inactive)
REMARK    1  A    between atoms: N1_2  and  C2_3 
REMARK    2  A    between atoms: C2_3  and  N2_4 
REMARK    3  A    between atoms: N2_4  and  C3_5 
REMARK    4  A    between atoms: C10_14  and  C11_15 
REMARK    5  A    between atoms: C13_18  and  C14_19 
REMARK    6  A    between atoms: C14_19  and  N3_20 
REMARK    7  A    between atoms: C18_25  and  O3_26 
ROOT
HETATM    1  C2  UNL     1      24.039   2.101  51.542  1.00  0.00     0.245 C 
HETATM    2  C9  UNL     1      23.684   1.055  52.528  1.00  0.00     0.086 C 
HETATM    3  C10 UNL     1      22.717   0.260  52.983  1.00  0.00     0.055 C 
HETATM    4  O1  UNL     1      21.391   0.170  52.523  1.00  0.00    -0.318 OA
HETATM    5  C13 UNL     1      20.668   0.583  51.398  1.00  0.00     0.083 C 
HETATM    6  C20 UNL     1      21.006   1.195  50.275  1.00  0.00     0.053 C 
HETATM    7  C21 UNL     1      22.257   1.696  49.729  1.00  0.00     0.118 C 
HETATM    8  N4  UNL     1      23.366   2.016  50.296  1.00  0.00    -0.244 NA
ENDROOT
BRANCH   1   9
HETATM    9  N1  UNL     1      23.840   3.394  52.187  1.00  0.00    -0.255 NA
HETATM   10  C1  UNL     1      24.075   4.415  51.440  1.00  0.00     0.148 C 
ENDBRANCH   1   9
BRANCH   1  11
HETATM   11  N2  UNL     1      25.480   2.056  51.291  1.00  0.00    -0.340 N 
HETATM   12  H3  UNL     1      25.879   2.571  50.454  1.00  0.00     0.164 HD
BRANCH  11  13
HETATM   13  C3  UNL     1      26.393   1.357  52.109  1.00  0.00     0.033 A 
HETATM   14  C4  UNL     1      27.199   2.008  53.049  1.00  0.00     0.032 A 
HETATM   15  C5  UNL     1      28.082   1.293  53.832  1.00  0.00     0.046 A 
HETATM   16  C6  UNL     1      28.215  -0.081  53.734  1.00  0.00     0.138 A 
HETATM   17  F1  UNL     1      29.125  -0.629  54.573  1.00  0.00    -0.204 F 
HETATM   18  C7  UNL     1      27.411  -0.719  52.798  1.00  0.00     0.074 A 
HETATM   19 CL1  UNL     1      27.622  -2.460  52.719  1.00  0.00    -0.081 Cl
HETATM   20  C8  UNL     1      26.533  -0.005  52.020  1.00  0.00     0.056 A 
ENDBRANCH  11  13
ENDBRANCH   1  11
BRANCH   3  21
HETATM   21  C11 UNL     1      23.024  -0.671  54.124  1.00  0.00     0.060 C 
HETATM   22  C12 UNL     1      21.732  -1.268  54.642  1.00  0.00     0.012 C 
ENDBRANCH   3  21
BRANCH   5  23
HETATM   23  C14 UNL     1      19.244   0.207  51.622  1.00  0.00     0.340 C 
BRANCH  23  24
HETATM   24  N3  UNL     1      18.350   0.913  50.761  1.00  0.00     0.127 N 
HETATM   25  C15 UNL     1      17.402   0.070  50.063  1.00  0.00     0.302 C 
HETATM   26  C16 UNL     1      16.032   0.127  50.741  1.00  0.00     0.198 C 
HETATM   27  O2  UNL     1      15.465   1.386  50.696  1.00  0.00    -0.385 OA
HETATM   28  C17 UNL     1      16.413   2.404  50.680  1.00  0.00     0.231 C 
HETATM   29  C18 UNL     1      17.598   1.898  51.500  1.00  0.00     0.382 C 
BRANCH  29  30
HETATM   30  O3  UNL     1      18.357   2.965  51.963  1.00  0.00    -0.361 OA
HETATM   31  C19 UNL     1      18.366   3.949  50.985  1.00  0.00     0.204 C 
ENDBRANCH  29  30
ENDBRANCH  23  24
ENDBRANCH   5  23
TORSDOF 7
ENDMDL
MODEL 2
REMARK VINA RESULT:      -7.7      4.245      7.025
REMARK  7 active torsions:
REMARK  status: ('A' for Active; 'I' for Inactive)
REMARK    1  A    between atoms: N1_2  and  C2_3 
REMARK    2  A    between atoms: C2_3  and  N2_4 
REMARK    3  A    between atoms: N2_4  and  C3_5 
REMARK    4  A    between atoms: C10_14  and  C11_15 
REMARK    5  A    between atoms: C13_18  and  C14_19 
REMARK    6  A    between atoms: C14_19  and  N3_20 
REMARK    7  A    between atoms: C18_25  and  O3_26 
ROOT
HETATM    1  C2  UNL     1      23.843   2.352  51.777  1.00  0.00     0.245 C 
HETATM    2  C9  UNL     1      24.959   2.698  50.868  1.00  0.00     0.086 C 
HETATM    3  C10 UNL     1      25.520   3.661  50.137  1.00  0.00     0.055 C 
HETATM    4  O1  UNL     1      25.082   4.989  49.984  1.00  0.00    -0.318 OA
HETATM    5  C13 UNL     1      24.187   5.851  50.627  1.00  0.00     0.083 C 
HETATM    6  C20 UNL     1      23.427   5.735  51.704  1.00  0.00     0.053 C 
HETATM    7  C21 UNL     1      23.196   4.677  52.673  1.00  0.00     0.118 C 
HETATM    8  N4  UNL     1      23.387   3.407  52.609  1.00  0.00    -0.244 NA
ENDROOT
BRANCH   1   9
HETATM    9  N1  UNL     1      22.772   1.792  50.960  1.00  0.00    -0.255 NA
HETATM   10  C1  UNL     1      22.013   0.949  51.566  1.00  0.00     0.148 C 
ENDBRANCH   1   9
BRANCH   1  11
HETATM   11  N2  UNL     1      24.248   1.235  52.631  1.00  0.00    -0.340 N 
HETATM   12  H3  UNL     1      23.509   0.683  53.153  1.00  0.00     0.164 HD
BRANCH  11  13
HETATM   13  C3  UNL     1      25.590   0.834  52.808  1.00  0.00     0.033 A 
HETATM   14  C4  UNL     1      26.020  -0.468  52.535  1.00  0.00     0.032 A 
HETATM   15  C5  UNL     1      27.340  -0.825  52.720  1.00  0.00     0.046 A 
HETATM   16  C6  UNL     1      28.293   0.069  53.176  1.00  0.00     0.138 A 
HETATM   17  F1  UNL     1      29.541  -0.440  53.303  1.00  0.00    -0.204 F 
HETATM   18  C7  UNL     1      27.857   1.360  53.445  1.00  0.00     0.074 A 
HETATM   19 CL1  UNL     1      29.109   2.449  54.020  1.00  0.00    -0.081 Cl
HETATM   20  C8  UNL     1      26.543   1.713  53.260  1.00  0.00     0.056 A 
ENDBRANCH  11  13
ENDBRANCH   1  11
BRANCH   3  21
HETATM   21  C11 UNL     1      26.769   3.344  49.362  1.00  0.00     0.060 C 
HETATM   22  C12 UNL     1      27.372   4.632  48.841  1.00  0.00     0.012 C 
ENDBRANCH   3  21
BRANCH   5  23
HETATM   23  C14 UNL     1      24.165   7.126  49.854  1.00  0.00     0.340 C 
BRANCH  23  24
HETATM   24  N3  UNL     1      24.965   7.063  48.674  1.00  0.00     0.127 N 
HETATM   25  C15 UNL     1      24.217   7.168  47.438  1.00  0.00     0.302 C 
HETATM   26  C16 UNL     1      24.327   8.580  46.862  1.00  0.00     0.198 C 
HETATM   27  O2  UNL     1      25.620   8.912  46.506  1.00  0.00    -0.385 OA
HETATM   28  C17 UNL     1      26.576   8.270  47.285  1.00  0.00     0.231 C 
HETATM   29  C18 UNL     1      25.960   8.109  48.673  1.00  0.00     0.382 C 
BRANCH  29  30
HETATM   30  O3  UNL     1      26.953   7.950  49.629  1.00  0.00    -0.361 OA
HETATM   31  C19 UNL     1      27.226   9.194  50.182  1.00  0.00     0.204 C 
ENDBRANCH  29  30
ENDBRANCH  23  24
ENDBRANCH   5  23
TORSDOF 7
ENDMDL
MODEL 3
REMARK VINA RESULT:      -7.6      2.391      3.300
REMARK  7 active torsions:
REMARK  status: ('A' for Active; 'I' for Inactive)
REMARK    1  A    between atoms: N1_2  and  C2_3 
REMARK    2  A    between atoms: C2_3  and  N2_4 
REMARK    3  A    between atoms: N2_4  and  C3_5 
REMARK    4  A    between atoms: C10_14  and  C11_15 
REMARK    5  A    between atoms: C13_18  and  C14_19 
REMARK    6  A    between atoms: C14_19  and  N3_20 
REMARK    7  A    between atoms: C18_25  and  O3_26 
ROOT
HETATM    1  C2  UNL     1      24.442   3.049  52.518  1.00  0.00     0.245 C 
HETATM    2  C9  UNL     1      23.474   1.935  52.398  1.00  0.00     0.086 C 
HETATM    3  C10 UNL     1      22.636   1.293  51.586  1.00  0.00     0.055 C 
HETATM    4  O1  UNL     1      22.362   1.577  50.236  1.00  0.00    -0.318 OA
HETATM    5  C13 UNL     1      22.937   2.340  49.214  1.00  0.00     0.083 C 
HETATM    6  C20 UNL     1      24.039   3.067  49.133  1.00  0.00     0.053 C 
HETATM    7  C21 UNL     1      25.116   3.384  50.057  1.00  0.00     0.118 C 
HETATM    8  N4  UNL     1      25.175   3.346  51.341  1.00  0.00    -0.244 NA
ENDROOT
BRANCH   1   9
HETATM    9  N1  UNL     1      23.713   4.208  53.021  1.00  0.00    -0.255 NA
HETATM   10  C1  UNL     1      22.798   4.655  52.235  1.00  0.00     0.148 C 
ENDBRANCH   1   9
BRANCH   1  11
HETATM   11  N2  UNL     1      25.393   2.746  53.589  1.00  0.00    -0.340 N 
HETATM   12  H3  UNL     1      25.290   3.226  54.528  1.00  0.00     0.164 HD
BRANCH  11  13
HETATM   13  C3  UNL     1      26.462   1.834  53.449  1.00  0.00     0.033 A 
HETATM   14  C4  UNL     1      27.796   2.221  53.606  1.00  0.00     0.032 A 
HETATM   15  C5  UNL     1      28.815   1.303  53.461  1.00  0.00     0.046 A 
HETATM   16  C6  UNL     1      28.578  -0.027  53.159  1.00  0.00     0.138 A 
HETATM   17  F1  UNL     1      29.687  -0.796  53.051  1.00  0.00    -0.204 F 
HETATM   18  C7  UNL     1      27.249  -0.403  53.004  1.00  0.00     0.074 A 
HETATM   19 CL1  UNL     1      27.010  -2.099  52.622  1.00  0.00    -0.081 Cl
HETATM   20  C8  UNL     1      26.237   0.513  53.148  1.00  0.00     0.056 A 
ENDBRANCH  11  13
ENDBRANCH   1  11
BRANCH   3  21
HETATM   21  C11 UNL     1      21.865   0.119  52.124  1.00  0.00     0.060 C 
HETATM   22  C12 UNL     1      22.638  -0.502  53.270  1.00  0.00     0.012 C 
ENDBRANCH   3  21
BRANCH   5  23
HETATM   23  C14 UNL     1      22.042   2.241  48.027  1.00  0.00     0.340 C 
BRANCH  23  24
HETATM   24  N3  UNL     1      21.157   3.355  47.915  1.00  0.00     0.127 N 
HETATM   25  C15 UNL     1      21.379   4.182  46.747  1.00  0.00     0.302 C 
HETATM   26  C16 UNL     1      20.350   3.866  45.662  1.00  0.00     0.198 C 
HETATM   27  O2  UNL     1      19.057   4.164  46.047  1.00  0.00    -0.385 OA
HETATM   28  C17 UNL     1      18.863   4.043  47.419  1.00  0.00     0.231 C 
HETATM   29  C18 UNL     1      19.782   2.916  47.884  1.00  0.00     0.382 C 
BRANCH  29  30
HETATM   30  O3  UNL     1      19.327   2.384  49.083  1.00  0.00    -0.361 OA
HETATM   31  C19 UNL     1      19.140   3.427  49.979  1.00  0.00     0.204 C 
ENDBRANCH  29  30
ENDBRANCH  23  24
ENDBRANCH   5  23
TORSDOF 7
ENDMDL
MODEL 4
REMARK VINA RESULT:      -7.4      4.099      6.502
REMARK  7 active torsions:
REMARK  status: ('A' for Active; 'I' for Inactive)
REMARK    1  A    between atoms: N1_2  and  C2_3 
REMARK    2  A    between atoms: C2_3  and  N2_4 
REMARK    3  A    between atoms: N2_4  and  C3_5 
REMARK    4  A    between atoms: C10_14  and  C11_15 
REMARK    5  A    between atoms: C13_18  and  C14_19 
REMARK    6  A    between atoms: C14_19  and  N3_20 
REMARK    7  A    between atoms: C18_25  and  O3_26 
ROOT
HETATM    1  C2  UNL     1      23.674   2.365  51.876  1.00  0.00     0.245 C 
HETATM    2  C9  UNL     1      24.802   2.693  50.974  1.00  0.00     0.086 C 
HETATM    3  C10 UNL     1      25.230   3.497  50.001  1.00  0.00     0.055 C 
HETATM    4  O1  UNL     1      24.531   4.554  49.391  1.00  0.00    -0.318 OA
HETATM    5  C13 UNL     1      23.383   5.309  49.655  1.00  0.00     0.083 C 
HETATM    6  C20 UNL     1      22.524   5.334  50.660  1.00  0.00     0.053 C 
HETATM    7  C21 UNL     1      22.401   4.602  51.909  1.00  0.00     0.118 C 
HETATM    8  N4  UNL     1      22.880   3.467  52.281  1.00  0.00    -0.244 NA
ENDROOT
BRANCH   1   9
HETATM    9  N1  UNL     1      22.884   1.325  51.226  1.00  0.00    -0.255 NA
HETATM   10  C1  UNL     1      21.982   0.787  51.968  1.00  0.00     0.148 C 
ENDBRANCH   1   9
BRANCH   1  11
HETATM   11  N2  UNL     1      24.195   1.707  53.075  1.00  0.00    -0.340 N 
HETATM   12  H3  UNL     1      23.592   1.657  53.945  1.00  0.00     0.164 HD
BRANCH  11  13
HETATM   13  C3  UNL     1      25.477   1.120  53.150  1.00  0.00     0.033 A 
HETATM   14  C4  UNL     1      25.709  -0.211  52.788  1.00  0.00     0.032 A 
HETATM   15  C5  UNL     1      26.975  -0.752  52.874  1.00  0.00     0.046 A 
HETATM   16  C6  UNL     1      28.065  -0.021  53.314  1.00  0.00     0.138 A 
HETATM   17  F1  UNL     1      29.236  -0.699  53.339  1.00  0.00    -0.204 F 
HETATM   18  C7  UNL     1      27.826   1.301  53.670  1.00  0.00     0.074 A 
HETATM   19 CL1  UNL     1      29.245   2.178  54.218  1.00  0.00    -0.081 Cl
HETATM   20  C8  UNL     1      26.565   1.836  53.584  1.00  0.00     0.056 A 
ENDBRANCH  11  13
ENDBRANCH   1  11
BRANCH   3  21
HETATM   21  C11 UNL     1      26.616   3.294  49.454  1.00  0.00     0.060 C 
HETATM   22  C12 UNL     1      27.138   4.611  48.918  1.00  0.00     0.012 C 
ENDBRANCH   3  21
BRANCH   5  23
HETATM   23  C14 UNL     1      23.185   6.235  48.504  1.00  0.00     0.340 C 
BRANCH  23  24
HETATM   24  N3  UNL     1      24.037   7.379  48.570  1.00  0.00     0.127 N 
HETATM   25  C15 UNL     1      25.077   7.409  47.563  1.00  0.00     0.302 C 
HETATM   26  C16 UNL     1      24.694   8.356  46.425  1.00  0.00     0.198 C 
HETATM   27  O2  UNL     1      24.581   9.669  46.836  1.00  0.00    -0.385 OA
HETATM   28  C17 UNL     1      24.185   9.786  48.165  1.00  0.00     0.231 C 
HETATM   29  C18 UNL     1      23.271   8.596  48.445  1.00  0.00     0.382 C 
BRANCH  29  30
HETATM   30  O3  UNL     1      22.446   8.863  49.529  1.00  0.00    -0.361 OA
HETATM   31  C19 UNL     1      21.279   9.445  49.054  1.00  0.00     0.204 C 
ENDBRANCH  29  30
ENDBRANCH  23  24
ENDBRANCH   5  23
TORSDOF 7
ENDMDL
MODEL 5
REMARK VINA RESULT:      -7.4      3.547      4.771
REMARK  7 active torsions:
REMARK  status: ('A' for Active; 'I' for Inactive)
REMARK    1  A    between atoms: N1_2  and  C2_3 
REMARK    2  A    between atoms: C2_3  and  N2_4 
REMARK    3  A    between atoms: N2_4  and  C3_5 
REMARK    4  A    between atoms: C10_14  and  C11_15 
REMARK    5  A    between atoms: C13_18  and  C14_19 
REMARK    6  A    between atoms: C14_19  and  N3_20 
REMARK    7  A    between atoms: C18_25  and  O3_26 
ROOT
HETATM    1  C2  UNL     1      24.811   2.695  52.638  1.00  0.00     0.245 C 
HETATM    2  C9  UNL     1      25.547   2.920  51.373  1.00  0.00     0.086 C 
HETATM    3  C10 UNL     1      25.510   3.490  50.169  1.00  0.00     0.055 C 
HETATM    4  O1  UNL     1      24.466   4.248  49.610  1.00  0.00    -0.318 OA
HETATM    5  C13 UNL     1      23.309   4.888  50.066  1.00  0.00     0.083 C 
HETATM    6  C20 UNL     1      22.781   5.064  51.266  1.00  0.00     0.053 C 
HETATM    7  C21 UNL     1      23.167   4.675  52.612  1.00  0.00     0.118 C 
HETATM    8  N4  UNL     1      23.953   3.751  53.038  1.00  0.00    -0.244 NA
ENDROOT
BRANCH   1   9
HETATM    9  N1  UNL     1      24.101   1.427  52.510  1.00  0.00    -0.255 NA
HETATM   10  C1  UNL     1      23.237   1.383  51.559  1.00  0.00     0.148 C 
ENDBRANCH   1   9
BRANCH   1  11
HETATM   11  N2  UNL     1      25.771   2.448  53.715  1.00  0.00    -0.340 N 
HETATM   12  H3  UNL     1      25.650   2.944  54.644  1.00  0.00     0.164 HD
BRANCH  11  13
HETATM   13  C3  UNL     1      26.872   1.572  53.594  1.00  0.00     0.033 A 
HETATM   14  C4  UNL     1      28.191   2.010  53.746  1.00  0.00     0.032 A 
HETATM   15  C5  UNL     1      29.243   1.126  53.620  1.00  0.00     0.046 A 
HETATM   16  C6  UNL     1      29.054  -0.217  53.343  1.00  0.00     0.138 A 
HETATM   17  F1  UNL     1      30.189  -0.948  53.252  1.00  0.00    -0.204 F 
HETATM   18  C7  UNL     1      27.740  -0.643  53.194  1.00  0.00     0.074 A 
HETATM   19 CL1  UNL     1      27.562  -2.354  52.845  1.00  0.00    -0.081 Cl
HETATM   20  C8  UNL     1      26.695   0.239  53.319  1.00  0.00     0.056 A 
ENDBRANCH  11  13
ENDBRANCH   1  11
BRANCH   3  21
HETATM   21  C11 UNL     1      26.698   3.334  49.259  1.00  0.00     0.060 C 
HETATM   22  C12 UNL     1      27.215   4.705  48.876  1.00  0.00     0.012 C 
ENDBRANCH   3  21
BRANCH   5  23
HETATM   23  C14 UNL     1      22.610   5.446  48.874  1.00  0.00     0.340 C 
BRANCH  23  24
HETATM   24  N3  UNL     1      21.400   4.751  48.574  1.00  0.00     0.127 N 
HETATM   25  C15 UNL     1      20.234   5.602  48.458  1.00  0.00     0.302 C 
HETATM   26  C16 UNL     1      19.894   5.848  46.987  1.00  0.00     0.198 C 
HETATM   27  O2  UNL     1      19.539   4.692  46.320  1.00  0.00    -0.385 OA
HETATM   28  C17 UNL     1      20.157   3.559  46.838  1.00  0.00     0.231 C 
HETATM   29  C18 UNL     1      21.526   4.011  47.342  1.00  0.00     0.382 C 
BRANCH  29  30
HETATM   30  O3  UNL     1      22.396   2.932  47.412  1.00  0.00    -0.361 OA
HETATM   31  C19 UNL     1      21.787   1.929  48.153  1.00  0.00     0.204 C 
ENDBRANCH  29  30
ENDBRANCH  23  24
ENDBRANCH   5  23
TORSDOF 7
ENDMDL
MODEL 6
REMARK VINA RESULT:      -7.3      3.612      5.168
REMARK  7 active torsions:
REMARK  status: ('A' for Active; 'I' for Inactive)
REMARK    1  A    between atoms: N1_2  and  C2_3 
REMARK    2  A    between atoms: C2_3  and  N2_4 
REMARK    3  A    between atoms: N2_4  and  C3_5 
REMARK    4  A    between atoms: C10_14  and  C11_15 
REMARK    5  A    between atoms: C13_18  and  C14_19 
REMARK    6  A    between atoms: C14_19  and  N3_20 
REMARK    7  A    between atoms: C18_25  and  O3_26 
ROOT
HETATM    1  C2  UNL     1      24.709   2.680  52.542  1.00  0.00     0.245 C 
HETATM    2  C9  UNL     1      25.519   3.009  51.346  1.00  0.00     0.086 C 
HETATM    3  C10 UNL     1      25.543   3.657  50.183  1.00  0.00     0.055 C 
HETATM    4  O1  UNL     1      24.515   4.422  49.604  1.00  0.00    -0.318 OA
HETATM    5  C13 UNL     1      23.310   4.999  50.022  1.00  0.00     0.083 C 
HETATM    6  C20 UNL     1      22.699   5.080  51.193  1.00  0.00     0.053 C 
HETATM    7  C21 UNL     1      23.009   4.612  52.534  1.00  0.00     0.118 C 
HETATM    8  N4  UNL     1      23.794   3.683  52.951  1.00  0.00    -0.244 NA
ENDROOT
BRANCH   1   9
HETATM    9  N1  UNL     1      24.050   1.404  52.284  1.00  0.00    -0.255 NA
HETATM   10  C1  UNL     1      23.000   1.184  52.994  1.00  0.00     0.148 C 
ENDBRANCH   1   9
BRANCH   1  11
HETATM   11  N2  UNL     1      25.604   2.388  53.663  1.00  0.00    -0.340 N 
HETATM   12  H3  UNL     1      25.409   2.819  54.611  1.00  0.00     0.164 HD
BRANCH  11  13
HETATM   13  C3  UNL     1      26.735   1.549  53.560  1.00  0.00     0.033 A 
HETATM   14  C4  UNL     1      28.034   2.022  53.774  1.00  0.00     0.032 A 
HETATM   15  C5  UNL     1      29.117   1.174  53.665  1.00  0.00     0.046 A 
HETATM   16  C6  UNL     1      28.980  -0.166  53.345  1.00  0.00     0.138 A 
HETATM   17  F1  UNL     1      30.140  -0.860  53.277  1.00  0.00    -0.204 F 
HETATM   18  C7  UNL     1      27.686  -0.627  53.134  1.00  0.00     0.074 A 
HETATM   19 CL1  UNL     1      27.575  -2.332  52.732  1.00  0.00    -0.081 Cl
HETATM   20  C8  UNL     1      26.611   0.220  53.243  1.00  0.00     0.056 A 
ENDBRANCH  11  13
ENDBRANCH   1  11
BRANCH   3  21
HETATM   21  C11 UNL     1      26.792   3.594  49.347  1.00  0.00     0.060 C 
HETATM   22  C12 UNL     1      27.173   4.995  48.914  1.00  0.00     0.012 C 
ENDBRANCH   3  21
BRANCH   5  23
HETATM   23  C14 UNL     1      22.674   5.617  48.825  1.00  0.00     0.340 C 
BRANCH  23  24
HETATM   24  N3  UNL     1      22.639   4.731  47.706  1.00  0.00     0.127 N 
HETATM   25  C15 UNL     1      22.000   3.458  47.970  1.00  0.00     0.302 C 
HETATM   26  C16 UNL     1      20.576   3.447  47.414  1.00  0.00     0.198 C 
HETATM   27  O2  UNL     1      20.537   3.568  46.039  1.00  0.00    -0.385 OA
HETATM   28  C17 UNL     1      21.607   4.297  45.532  1.00  0.00     0.231 C 
HETATM   29  C18 UNL     1      21.955   5.340  46.591  1.00  0.00     0.382 C 
BRANCH  29  30
HETATM   30  O3  UNL     1      22.638   6.404  46.017  1.00  0.00    -0.361 OA
HETATM   31  C19 UNL     1      22.323   6.445  44.666  1.00  0.00     0.204 C 
ENDBRANCH  29  30
ENDBRANCH  23  24
ENDBRANCH   5  23
TORSDOF 7
ENDMDL
MODEL 7
REMARK VINA RESULT:      -7.3      5.620      8.791
REMARK  7 active torsions:
REMARK  status: ('A' for Active; 'I' for Inactive)
REMARK    1  A    between atoms: N1_2  and  C2_3 
REMARK    2  A    between atoms: C2_3  and  N2_4 
REMARK    3  A    between atoms: N2_4  and  C3_5 
REMARK    4  A    between atoms: C10_14  and  C11_15 
REMARK    5  A    between atoms: C13_18  and  C14_19 
REMARK    6  A    between atoms: C14_19  and  N3_20 
REMARK    7  A    between atoms: C18_25  and  O3_26 
ROOT
HETATM    1  C2  UNL     1      23.866   4.286  49.524  1.00  0.00     0.245 C 
HETATM    2  C9  UNL     1      25.285   4.501  49.161  1.00  0.00     0.086 C 
HETATM    3  C10 UNL     1      26.286   5.379  49.122  1.00  0.00     0.055 C 
HETATM    4  O1  UNL     1      26.264   6.725  49.530  1.00  0.00    -0.318 OA
HETATM    5  C13 UNL     1      25.428   7.550  50.292  1.00  0.00     0.083 C 
HETATM    6  C20 UNL     1      24.323   7.331  50.985  1.00  0.00     0.053 C 
HETATM    7  C21 UNL     1      23.508   6.157  51.254  1.00  0.00     0.118 C 
HETATM    8  N4  UNL     1      23.402   5.036  50.634  1.00  0.00    -0.244 NA
ENDROOT
BRANCH   1   9
HETATM    9  N1  UNL     1      23.068   4.525  48.325  1.00  0.00    -0.255 NA
HETATM   10  C1  UNL     1      21.802   4.355  48.475  1.00  0.00     0.148 C 
ENDBRANCH   1   9
BRANCH   1  11
HETATM   11  N2  UNL     1      23.652   2.865  49.805  1.00  0.00    -0.340 N 
HETATM   12  H3  UNL     1      23.120   2.271  49.107  1.00  0.00     0.164 HD
BRANCH  11  13
HETATM   13  C3  UNL     1      24.121   2.221  50.971  1.00  0.00     0.033 A 
HETATM   14  C4  UNL     1      25.441   2.350  51.413  1.00  0.00     0.032 A 
HETATM   15  C5  UNL     1      25.865   1.706  52.557  1.00  0.00     0.046 A 
HETATM   16  C6  UNL     1      25.022   0.912  53.316  1.00  0.00     0.138 A 
HETATM   17  F1  UNL     1      25.593   0.351  54.408  1.00  0.00    -0.204 F 
HETATM   18  C7  UNL     1      23.712   0.790  52.870  1.00  0.00     0.074 A 
HETATM   19 CL1  UNL     1      22.691  -0.227  53.872  1.00  0.00    -0.081 Cl
HETATM   20  C8  UNL     1      23.293   1.432  51.731  1.00  0.00     0.056 A 
ENDBRANCH  11  13
ENDBRANCH   1  11
BRANCH   3  21
HETATM   21  C11 UNL     1      27.619   4.933  48.587  1.00  0.00     0.060 C 
HETATM   22  C12 UNL     1      28.426   6.149  48.181  1.00  0.00     0.012 C 
ENDBRANCH   3  21
BRANCH   5  23
HETATM   23  C14 UNL     1      25.994   8.927  50.239  1.00  0.00     0.340 C 
BRANCH  23  24
HETATM   24  N3  UNL     1      26.579   9.230  48.973  1.00  0.00     0.127 N 
HETATM   25  C15 UNL     1      25.682   9.877  48.038  1.00  0.00     0.302 C 
HETATM   26  C16 UNL     1      25.955  11.381  47.986  1.00  0.00     0.198 C 
HETATM   27  O2  UNL     1      27.216  11.679  47.509  1.00  0.00    -0.385 OA
HETATM   28  C17 UNL     1      28.149  10.688  47.794  1.00  0.00     0.231 C 
HETATM   29  C18 UNL     1      27.734  10.082  49.132  1.00  0.00     0.382 C 
BRANCH  29  30
HETATM   30  O3  UNL     1      28.817   9.464  49.742  1.00  0.00    -0.361 OA
HETATM   31  C19 UNL     1      29.895   9.516  48.869  1.00  0.00     0.204 C 
ENDBRANCH  29  30
ENDBRANCH  23  24
ENDBRANCH   5  23
TORSDOF 7
ENDMDL
MODEL 8
REMARK VINA RESULT:      -7.2      4.340      7.382
REMARK  7 active torsions:
REMARK  status: ('A' for Active; 'I' for Inactive)
REMARK    1  A    between atoms: N1_2  and  C2_3 
REMARK    2  A    between atoms: C2_3  and  N2_4 
REMARK    3  A    between atoms: N2_4  and  C3_5 
REMARK    4  A    between atoms: C10_14  and  C11_15 
REMARK    5  A    between atoms: C13_18  and  C14_19 
REMARK    6  A    between atoms: C14_19  and  N3_20 
REMARK    7  A    between atoms: C18_25  and  O3_26 
ROOT
HETATM    1  C2  UNL     1      22.186   2.522  50.068  1.00  0.00     0.245 C 
HETATM    2  C9  UNL     1      23.631   2.781  49.873  1.00  0.00     0.086 C 
HETATM    3  C10 UNL     1      24.596   3.698  49.912  1.00  0.00     0.055 C 
HETATM    4  O1  UNL     1      24.472   5.060  50.242  1.00  0.00    -0.318 OA
HETATM    5  C13 UNL     1      23.517   5.883  50.849  1.00  0.00     0.083 C 
HETATM    6  C20 UNL     1      22.342   5.651  51.411  1.00  0.00     0.053 C 
HETATM    7  C21 UNL     1      21.544   4.457  51.638  1.00  0.00     0.118 C 
HETATM    8  N4  UNL     1      21.558   3.303  51.071  1.00  0.00    -0.244 NA
ENDROOT
BRANCH   1   9
HETATM    9  N1  UNL     1      21.538   2.668  48.769  1.00  0.00    -0.255 NA
HETATM   10  C1  UNL     1      20.343   2.195  48.704  1.00  0.00     0.148 C 
ENDBRANCH   1   9
BRANCH   1  11
HETATM   11  N2  UNL     1      21.991   1.108  50.396  1.00  0.00    -0.340 N 
HETATM   12  H3  UNL     1      21.750   0.424  49.624  1.00  0.00     0.164 HD
BRANCH  11  13
HETATM   13  C3  UNL     1      22.108   0.587  51.703  1.00  0.00     0.033 A 
HETATM   14  C4  UNL     1      20.991   0.254  52.474  1.00  0.00     0.032 A 
HETATM   15  C5  UNL     1      21.142  -0.253  53.748  1.00  0.00     0.046 A 
HETATM   16  C6  UNL     1      22.385  -0.456  54.322  1.00  0.00     0.138 A 
HETATM   17  F1  UNL     1      22.360  -0.959  55.579  1.00  0.00    -0.204 F 
HETATM   18  C7  UNL     1      23.490  -0.123  53.549  1.00  0.00     0.074 A 
HETATM   19 CL1  UNL     1      25.038  -0.403  54.328  1.00  0.00    -0.081 Cl
HETATM   20  C8  UNL     1      23.336   0.382  52.281  1.00  0.00     0.056 A 
ENDBRANCH  11  13
ENDBRANCH   1  11
BRANCH   3  21
HETATM   21  C11 UNL     1      26.001   3.285  49.572  1.00  0.00     0.060 C 
HETATM   22  C12 UNL     1      26.780   4.500  49.113  1.00  0.00     0.012 C 
ENDBRANCH   3  21
BRANCH   5  23
HETATM   23  C14 UNL     1      24.034   7.280  50.794  1.00  0.00     0.340 C 
BRANCH  23  24
HETATM   24  N3  UNL     1      24.564   7.616  49.512  1.00  0.00     0.127 N 
HETATM   25  C15 UNL     1      23.570   8.023  48.541  1.00  0.00     0.302 C 
HETATM   26  C16 UNL     1      23.548   9.545  48.400  1.00  0.00     0.198 C 
HETATM   27  O2  UNL     1      24.733  10.054  47.906  1.00  0.00    -0.385 OA
HETATM   28  C17 UNL     1      25.837   9.280  48.249  1.00  0.00     0.231 C 
HETATM   29  C18 UNL     1      25.531   8.683  49.621  1.00  0.00     0.382 C 
BRANCH  29  30
HETATM   30  O3  UNL     1      26.706   8.323  50.266  1.00  0.00    -0.361 OA
HETATM   31  C19 UNL     1      27.619   9.358  50.117  1.00  0.00     0.204 C 
ENDBRANCH  29  30
ENDBRANCH  23  24
ENDBRANCH   5  23
TORSDOF 7
ENDMDL
MODEL 9
REMARK VINA RESULT:      -7.1      5.908      9.189
REMARK  7 active torsions:
REMARK  status: ('A' for Active; 'I' for Inactive)
REMARK    1  A    between atoms: N1_2  and  C2_3 
REMARK    2  A    between atoms: C2_3  and  N2_4 
REMARK    3  A    between atoms: N2_4  and  C3_5 
REMARK    4  A    between atoms: C10_14  and  C11_15 
REMARK    5  A    between atoms: C13_18  and  C14_19 
REMARK    6  A    between atoms: C14_19  and  N3_20 
REMARK    7  A    between atoms: C18_25  and  O3_26 
ROOT
HETATM    1  C2  UNL     1      23.459   5.490  50.758  1.00  0.00     0.245 C 
HETATM    2  C9  UNL     1      24.732   4.911  50.272  1.00  0.00     0.086 C 
HETATM    3  C10 UNL     1      25.876   5.156  49.635  1.00  0.00     0.055 C 
HETATM    4  O1  UNL     1      26.312   6.378  49.092  1.00  0.00    -0.318 OA
HETATM    5  C13 UNL     1      25.955   7.728  49.194  1.00  0.00     0.083 C 
HETATM    6  C20 UNL     1      25.062   8.379  49.921  1.00  0.00     0.053 C 
HETATM    7  C21 UNL     1      24.078   7.983  50.915  1.00  0.00     0.118 C 
HETATM    8  N4  UNL     1      23.523   6.849  51.158  1.00  0.00    -0.244 NA
ENDROOT
BRANCH   1   9
HETATM    9  N1  UNL     1      22.455   5.267  49.723  1.00  0.00    -0.255 NA
HETATM   10  C1  UNL     1      21.284   5.722  49.998  1.00  0.00     0.148 C 
ENDBRANCH   1   9
BRANCH   1  11
HETATM   11  N2  UNL     1      22.972   4.700  51.890  1.00  0.00    -0.340 N 
HETATM   12  H3  UNL     1      22.262   5.122  52.553  1.00  0.00     0.164 HD
BRANCH  11  13
HETATM   13  C3  UNL     1      23.397   3.381  52.161  1.00  0.00     0.033 A 
HETATM   14  C4  UNL     1      22.735   2.264  51.640  1.00  0.00     0.032 A 
HETATM   15  C5  UNL     1      23.178   0.989  51.927  1.00  0.00     0.046 A 
HETATM   16  C6  UNL     1      24.280   0.750  52.729  1.00  0.00     0.138 A 
HETATM   17  F1  UNL     1      24.582  -0.557  52.911  1.00  0.00    -0.204 F 
HETATM   18  C7  UNL     1      24.931   1.865  53.242  1.00  0.00     0.074 A 
HETATM   19 CL1  UNL     1      26.321   1.499  54.250  1.00  0.00    -0.081 Cl
HETATM   20  C8  UNL     1      24.489   3.132  52.955  1.00  0.00     0.056 A 
ENDBRANCH  11  13
ENDBRANCH   1  11
BRANCH   3  21
HETATM   21  C11 UNL     1      26.852   4.028  49.442  1.00  0.00     0.060 C 
HETATM   22  C12 UNL     1      26.185   2.722  49.821  1.00  0.00     0.012 C 
ENDBRANCH   3  21
BRANCH   5  23
HETATM   23  C14 UNL     1      26.820   8.489  48.249  1.00  0.00     0.340 C 
BRANCH  23  24
HETATM   24  N3  UNL     1      27.981   9.025  48.881  1.00  0.00     0.127 N 
HETATM   25  C15 UNL     1      29.211   8.331  48.562  1.00  0.00     0.302 C 
HETATM   26  C16 UNL     1      30.010   9.107  47.514  1.00  0.00     0.198 C 
HETATM   27  O2  UNL     1      30.425  10.344  47.966  1.00  0.00    -0.385 OA
HETATM   28  C17 UNL     1      29.560  10.893  48.907  1.00  0.00     0.231 C 
HETATM   29  C18 UNL     1      28.160  10.415  48.531  1.00  0.00     0.382 C 
BRANCH  29  30
HETATM   30  O3  UNL     1      27.199  11.264  49.062  1.00  0.00    -0.361 OA
HETATM   31  C19 UNL     1      26.915  12.242  48.120  1.00  0.00     0.204 C 
ENDBRANCH  29  30
ENDBRANCH  23  24
ENDBRANCH   5  23
TORSDOF 7
ENDMDL
