MODEL 1
REMARK VINA RESULT:      -7.1      0.000      0.000
REMARK  3 active torsions:
REMARK  status: ('A' for Active; 'I' for Inactive)
REMARK    1  A    between atoms: C2_2  and  C3_3 
REMARK    2  A    between atoms: C4_4  and  N1_5 
REMARK    3  A    between atoms: N1_5  and  C5_6 
ROOT
HETATM    1  C5  UNL     1      21.233   1.963  52.096  1.00  0.00     0.169 C 
HETATM    2  C6  UNL     1      19.997   2.071  51.289  1.00  0.00     0.030 C 
HETATM    3  C7  UNL     1      18.938   1.278  51.285  1.00  0.00     0.001 C 
HETATM    4  C8  UNL     1      18.769  -0.039  51.881  1.00  0.00     0.008 C 
HETATM    5  C9  UNL     1      19.508  -0.675  52.790  1.00  0.00     0.066 C 
HETATM    6  S1  UNL     1      20.421   0.180  54.029  1.00  0.00     0.003 SA
HETATM    7  N2  UNL     1      21.066   1.435  53.378  1.00  0.00    -0.218 NA
HETATM    8  C10 UNL     1      21.578  -0.926  54.790  1.00  0.00     0.277 C 
HETATM    9  O1  UNL     1      22.305  -1.726  55.369  1.00  0.00    -0.269 OA
HETATM   10  C11 UNL     1      22.798  -0.631  54.175  1.00  0.00    -0.014 C 
HETATM   11  C12 UNL     1      23.805  -0.368  53.652  1.00  0.00    -0.069 C 
HETATM   12  C13 UNL     1      25.024  -0.030  53.003  1.00  0.00     0.344 C 
HETATM   13  N3  UNL     1      24.793   1.069  52.047  1.00  0.00     0.032 NA
HETATM   14  C14 UNL     1      23.579   1.211  51.586  1.00  0.00     0.685 C 
HETATM   15  C15 UNL     1      22.154   1.076  51.291  1.00  0.00     0.185 C 
HETATM   16  C16 UNL     1      21.868   1.251  49.857  1.00  0.00     0.071 C 
HETATM   17  N4  UNL     1      21.641   1.378  48.721  1.00  0.00    -0.197 NA
ENDROOT
BRANCH   1  18
HETATM   18  N1  UNL     1      21.738   3.327  52.226  1.00  0.00    -0.367 N 
HETATM   19  H6  UNL     1      22.494   3.745  52.811  1.00  0.00     0.161 HD
BRANCH  18  20
HETATM   20  C4  UNL     1      21.385   4.556  51.611  1.00  0.00     0.085 C 
HETATM   21  C3  UNL     1      22.106   5.643  51.394  1.00  0.00     0.016 C 
BRANCH  21  22
HETATM   22  C2  UNL     1      21.569   6.830  50.739  1.00  0.00    -0.009 C 
HETATM   23  C1  UNL     1      22.417   7.760  50.349  1.00  0.00     0.011 C 
ENDBRANCH  21  22
ENDBRANCH  18  20
ENDBRANCH   1  18
TORSDOF 3
ENDMDL
MODEL 2
REMARK VINA RESULT:      -7.0      2.838      3.964
REMARK  3 active torsions:
REMARK  status: ('A' for Active; 'I' for Inactive)
REMARK    1  A    between atoms: C2_2  and  C3_3 
REMARK    2  A    between atoms: C4_4  and  N1_5 
REMARK    3  A    between atoms: N1_5  and  C5_6 
ROOT
HETATM    1  C5  UNL     1      23.089   2.563  52.164  1.00  0.00     0.169 C 
HETATM    2  C6  UNL     1      22.108   1.567  52.652  1.00  0.00     0.030 C 
HETATM    3  C7  UNL     1      22.331   0.425  53.281  1.00  0.00     0.001 C 
HETATM    4  C8  UNL     1      23.580  -0.297  53.470  1.00  0.00     0.008 C 
HETATM    5  C9  UNL     1      24.840   0.103  53.304  1.00  0.00     0.066 C 
HETATM    6  S1  UNL     1      25.338   1.776  53.542  1.00  0.00     0.003 SA
HETATM    7  N2  UNL     1      24.241   2.698  52.941  1.00  0.00    -0.218 NA
HETATM    8  C10 UNL     1      26.955   2.020  52.860  1.00  0.00     0.277 C 
HETATM    9  O1  UNL     1      28.110   2.150  52.468  1.00  0.00    -0.269 OA
HETATM   10  C11 UNL     1      26.723   2.627  51.622  1.00  0.00    -0.014 C 
HETATM   11  C12 UNL     1      26.508   3.134  50.595  1.00  0.00    -0.069 C 
HETATM   12  C13 UNL     1      26.223   3.754  49.348  1.00  0.00     0.344 C 
HETATM   13  N3  UNL     1      24.767   3.935  49.201  1.00  0.00     0.032 NA
HETATM   14  C14 UNL     1      23.995   3.135  49.888  1.00  0.00     0.685 C 
HETATM   15  C15 UNL     1      23.459   2.103  50.773  1.00  0.00     0.185 C 
HETATM   16  C16 UNL     1      22.314   1.400  50.171  1.00  0.00     0.071 C 
HETATM   17  N4  UNL     1      21.414   0.836  49.692  1.00  0.00    -0.197 NA
ENDROOT
BRANCH   1  18
HETATM   18  N1  UNL     1      22.385   3.842  52.164  1.00  0.00    -0.367 N 
HETATM   19  H6  UNL     1      21.398   4.102  52.381  1.00  0.00     0.161 HD
BRANCH  18  20
HETATM   20  C4  UNL     1      22.786   5.172  51.874  1.00  0.00     0.085 C 
HETATM   21  C3  UNL     1      22.276   6.056  51.033  1.00  0.00     0.016 C 
BRANCH  21  22
HETATM   22  C2  UNL     1      22.827   7.395  50.863  1.00  0.00    -0.009 C 
HETATM   23  C1  UNL     1      24.137   7.521  50.782  1.00  0.00     0.011 C 
ENDBRANCH  21  22
ENDBRANCH  18  20
ENDBRANCH   1  18
TORSDOF 3
ENDMDL
MODEL 3
REMARK VINA RESULT:      -6.5      4.958      7.165
REMARK  3 active torsions:
REMARK  status: ('A' for Active; 'I' for Inactive)
REMARK    1  A    between atoms: C2_2  and  C3_3 
REMARK    2  A    between atoms: C4_4  and  N1_5 
REMARK    3  A    between atoms: N1_5  and  C5_6 
ROOT
HETATM    1  C5  UNL     1      25.320   7.415  49.984  1.00  0.00     0.169 C 
HETATM    2  C6  UNL     1      24.544   8.580  49.500  1.00  0.00     0.030 C 
HETATM    3  C7  UNL     1      23.232   8.723  49.412  1.00  0.00     0.001 C 
HETATM    4  C8  UNL     1      22.184   7.720  49.535  1.00  0.00     0.008 C 
HETATM    5  C9  UNL     1      22.232   6.479  50.019  1.00  0.00     0.066 C 
HETATM    6  S1  UNL     1      23.352   6.004  51.291  1.00  0.00     0.003 SA
HETATM    7  N2  UNL     1      24.721   6.683  51.011  1.00  0.00    -0.218 NA
HETATM    8  C10 UNL     1      23.419   4.237  51.400  1.00  0.00     0.277 C 
HETATM    9  O1  UNL     1      23.384   3.017  51.525  1.00  0.00    -0.269 OA
HETATM   10  C11 UNL     1      24.588   3.890  50.717  1.00  0.00    -0.014 C 
HETATM   11  C12 UNL     1      25.568   3.622  50.145  1.00  0.00    -0.069 C 
HETATM   12  C13 UNL     1      26.768   3.320  49.446  1.00  0.00     0.344 C 
HETATM   13  N3  UNL     1      27.408   4.566  48.987  1.00  0.00     0.032 NA
HETATM   14  C14 UNL     1      26.638   5.609  48.831  1.00  0.00     0.685 C 
HETATM   15  C15 UNL     1      25.510   6.537  48.769  1.00  0.00     0.185 C 
HETATM   16  C16 UNL     1      25.553   7.378  47.562  1.00  0.00     0.071 C 
HETATM   17  N4  UNL     1      25.580   8.037  46.601  1.00  0.00    -0.197 NA
ENDROOT
BRANCH   1  18
HETATM   18  N1  UNL     1      26.577   7.962  50.485  1.00  0.00    -0.367 N 
HETATM   19  H6  UNL     1      27.217   7.665  51.255  1.00  0.00     0.161 HD
BRANCH  18  20
HETATM   20  C4  UNL     1      27.370   9.077  50.110  1.00  0.00     0.085 C 
HETATM   21  C3  UNL     1      28.446   9.145  49.343  1.00  0.00     0.016 C 
BRANCH  21  22
HETATM   22  C2  UNL     1      29.140  10.396  49.064  1.00  0.00    -0.009 C 
HETATM   23  C1  UNL     1      28.412  11.469  48.825  1.00  0.00     0.011 C 
ENDBRANCH  21  22
ENDBRANCH  18  20
ENDBRANCH   1  18
TORSDOF 3
ENDMDL
MODEL 4
REMARK VINA RESULT:      -6.5      1.809      2.215
REMARK  3 active torsions:
REMARK  status: ('A' for Active; 'I' for Inactive)
REMARK    1  A    between atoms: C2_2  and  C3_3 
REMARK    2  A    between atoms: C4_4  and  N1_5 
REMARK    3  A    between atoms: N1_5  and  C5_6 
ROOT
HETATM    1  C5  UNL     1      22.557   2.970  51.544  1.00  0.00     0.169 C 
HETATM    2  C6  UNL     1      21.215   2.879  50.925  1.00  0.00     0.030 C 
HETATM    3  C7  UNL     1      20.390   1.846  50.883  1.00  0.00     0.001 C 
HETATM    4  C8  UNL     1      20.640   0.451  51.213  1.00  0.00     0.008 C 
HETATM    5  C9  UNL     1      21.649  -0.109  51.880  1.00  0.00     0.066 C 
HETATM    6  S1  UNL     1      22.523   0.738  53.153  1.00  0.00     0.003 SA
HETATM    7  N2  UNL     1      22.734   2.209  52.701  1.00  0.00    -0.218 NA
HETATM    8  C10 UNL     1      24.019  -0.133  53.532  1.00  0.00     0.277 C 
HETATM    9  O1  UNL     1      25.002  -0.797  53.847  1.00  0.00    -0.269 OA
HETATM   10  C11 UNL     1      25.015   0.574  52.852  1.00  0.00    -0.014 C 
HETATM   11  C12 UNL     1      25.831   1.178  52.281  1.00  0.00    -0.069 C 
HETATM   12  C13 UNL     1      26.809   1.932  51.577  1.00  0.00     0.344 C 
HETATM   13  N3  UNL     1      26.169   3.074  50.898  1.00  0.00     0.032 NA
HETATM   14  C14 UNL     1      24.897   2.965  50.621  1.00  0.00     0.685 C 
HETATM   15  C15 UNL     1      23.517   2.507  50.473  1.00  0.00     0.185 C 
HETATM   16  C16 UNL     1      22.965   2.838  49.148  1.00  0.00     0.071 C 
HETATM   17  N4  UNL     1      22.531   3.089  48.097  1.00  0.00    -0.197 NA
ENDROOT
BRANCH   1  18
HETATM   18  N1  UNL     1      22.736   4.377  51.890  1.00  0.00    -0.367 N 
HETATM   19  H6  UNL     1      23.456   4.876  52.457  1.00  0.00     0.161 HD
BRANCH  18  20
HETATM   20  C4  UNL     1      22.005   5.554  51.582  1.00  0.00     0.085 C 
HETATM   21  C3  UNL     1      22.200   6.462  50.640  1.00  0.00     0.016 C 
BRANCH  21  22
HETATM   22  C2  UNL     1      21.334   7.623  50.471  1.00  0.00    -0.009 C 
HETATM   23  C1  UNL     1      20.296   7.510  49.667  1.00  0.00     0.011 C 
ENDBRANCH  21  22
ENDBRANCH  18  20
ENDBRANCH   1  18
TORSDOF 3
ENDMDL
MODEL 5
REMARK VINA RESULT:      -6.4      2.237      4.114
REMARK  3 active torsions:
REMARK  status: ('A' for Active; 'I' for Inactive)
REMARK    1  A    between atoms: C2_2  and  C3_3 
REMARK    2  A    between atoms: C4_4  and  N1_5 
REMARK    3  A    between atoms: N1_5  and  C5_6 
ROOT
HETATM    1  C5  UNL     1      22.197   1.578  51.332  1.00  0.00     0.169 C 
HETATM    2  C6  UNL     1      22.387   3.001  50.972  1.00  0.00     0.030 C 
HETATM    3  C7  UNL     1      23.289   3.856  51.425  1.00  0.00     0.001 C 
HETATM    4  C8  UNL     1      24.192   3.731  52.560  1.00  0.00     0.008 C 
HETATM    5  C9  UNL     1      24.542   2.658  53.268  1.00  0.00     0.066 C 
HETATM    6  S1  UNL     1      24.595   1.043  52.570  1.00  0.00     0.003 SA
HETATM    7  N2  UNL     1      23.364   0.877  51.636  1.00  0.00    -0.218 NA
HETATM    8  C10 UNL     1      24.703  -0.164  53.863  1.00  0.00     0.277 C 
HETATM    9  O1  UNL     1      24.871  -0.980  54.763  1.00  0.00    -0.269 OA
HETATM   10  C11 UNL     1      23.397  -0.642  54.002  1.00  0.00    -0.014 C 
HETATM   11  C12 UNL     1      22.302  -1.030  54.101  1.00  0.00    -0.069 C 
HETATM   12  C13 UNL     1      20.960  -1.488  54.202  1.00  0.00     0.344 C 
HETATM   13  N3  UNL     1      20.120  -0.801  53.204  1.00  0.00     0.032 NA
HETATM   14  C14 UNL     1      20.533   0.362  52.776  1.00  0.00     0.685 C 
HETATM   15  C15 UNL     1      21.279   1.595  52.533  1.00  0.00     0.185 C 
HETATM   16  C16 UNL     1      20.394   2.769  52.453  1.00  0.00     0.071 C 
HETATM   17  N4  UNL     1      19.696   3.700  52.401  1.00  0.00    -0.197 NA
ENDROOT
BRANCH   1  18
HETATM   18  N1  UNL     1      21.581   0.956  50.164  1.00  0.00    -0.367 N 
HETATM   19  H6  UNL     1      21.377  -0.038  49.921  1.00  0.00     0.161 HD
BRANCH  18  20
HETATM   20  C4  UNL     1      21.046   1.474  48.955  1.00  0.00     0.085 C 
HETATM   21  C3  UNL     1      20.039   2.307  48.752  1.00  0.00     0.016 C 
BRANCH  21  22
HETATM   22  C2  UNL     1      19.624   2.736  47.421  1.00  0.00    -0.009 C 
HETATM   23  C1  UNL     1      19.949   3.952  47.033  1.00  0.00     0.011 C 
ENDBRANCH  21  22
ENDBRANCH  18  20
ENDBRANCH   1  18
TORSDOF 3
ENDMDL
MODEL 6
REMARK VINA RESULT:      -6.4      2.882      4.775
REMARK  3 active torsions:
REMARK  status: ('A' for Active; 'I' for Inactive)
REMARK    1  A    between atoms: C2_2  and  C3_3 
REMARK    2  A    between atoms: C4_4  and  N1_5 
REMARK    3  A    between atoms: N1_5  and  C5_6 
ROOT
HETATM    1  C5  UNL     1      23.032   2.326  51.062  1.00  0.00     0.169 C 
HETATM    2  C6  UNL     1      24.175   1.960  51.930  1.00  0.00     0.030 C 
HETATM    3  C7  UNL     1      24.228   1.052  52.889  1.00  0.00     0.001 C 
HETATM    4  C8  UNL     1      23.145   0.320  53.530  1.00  0.00     0.008 C 
HETATM    5  C9  UNL     1      21.874   0.166  53.161  1.00  0.00     0.066 C 
HETATM    6  S1  UNL     1      21.374   0.169  51.472  1.00  0.00     0.003 SA
HETATM    7  N2  UNL     1      22.173   1.277  50.732  1.00  0.00    -0.218 NA
HETATM    8  C10 UNL     1      19.613   0.342  51.371  1.00  0.00     0.277 C 
HETATM    9  O1  UNL     1      18.388   0.368  51.320  1.00  0.00    -0.269 OA
HETATM   10  C11 UNL     1      19.413   1.693  51.074  1.00  0.00    -0.014 C 
HETATM   11  C12 UNL     1      19.268   2.822  50.824  1.00  0.00    -0.069 C 
HETATM   12  C13 UNL     1      19.115   4.202  50.517  1.00  0.00     0.344 C 
HETATM   13  N3  UNL     1      20.440   4.838  50.397  1.00  0.00     0.032 NA
HETATM   14  C14 UNL     1      21.434   4.267  51.025  1.00  0.00     0.685 C 
HETATM   15  C15 UNL     1      22.278   3.387  51.829  1.00  0.00     0.185 C 
HETATM   16  C16 UNL     1      23.221   4.143  52.669  1.00  0.00     0.071 C 
HETATM   17  N4  UNL     1      23.961   4.741  53.343  1.00  0.00    -0.197 NA
ENDROOT
BRANCH   1  18
HETATM   18  N1  UNL     1      23.623   2.837  49.828  1.00  0.00    -0.367 N 
HETATM   19  H6  UNL     1      23.214   3.083  48.901  1.00  0.00     0.161 HD
BRANCH  18  20
HETATM   20  C4  UNL     1      24.950   3.177  49.455  1.00  0.00     0.085 C 
HETATM   21  C3  UNL     1      25.587   4.335  49.515  1.00  0.00     0.016 C 
BRANCH  21  22
HETATM   22  C2  UNL     1      26.969   4.500  49.080  1.00  0.00    -0.009 C 
HETATM   23  C1  UNL     1      27.333   5.674  48.606  1.00  0.00     0.011 C 
ENDBRANCH  21  22
ENDBRANCH  18  20
ENDBRANCH   1  18
TORSDOF 3
ENDMDL
MODEL 7
REMARK VINA RESULT:      -6.3     11.989     13.944
REMARK  3 active torsions:
REMARK  status: ('A' for Active; 'I' for Inactive)
REMARK    1  A    between atoms: C2_2  and  C3_3 
REMARK    2  A    between atoms: C4_4  and  N1_5 
REMARK    3  A    between atoms: N1_5  and  C5_6 
ROOT
HETATM    1  C5  UNL     1      32.466   6.984  45.739  1.00  0.00     0.169 C 
HETATM    2  C6  UNL     1      32.091   7.284  44.339  1.00  0.00     0.030 C 
HETATM    3  C7  UNL     1      32.339   6.580  43.246  1.00  0.00     0.001 C 
HETATM    4  C8  UNL     1      33.236   5.450  43.060  1.00  0.00     0.008 C 
HETATM    5  C9  UNL     1      33.832   4.666  43.958  1.00  0.00     0.066 C 
HETATM    6  S1  UNL     1      33.118   4.319  45.530  1.00  0.00     0.003 SA
HETATM    7  N2  UNL     1      32.487   5.630  46.076  1.00  0.00    -0.218 NA
HETATM    8  C10 UNL     1      34.336   3.594  46.593  1.00  0.00     0.277 C 
HETATM    9  O1  UNL     1      35.163   3.008  47.285  1.00  0.00    -0.269 OA
HETATM   10  C11 UNL     1      34.762   4.649  47.405  1.00  0.00    -0.014 C 
HETATM   11  C12 UNL     1      35.102   5.541  48.073  1.00  0.00    -0.069 C 
HETATM   12  C13 UNL     1      35.499   6.644  48.877  1.00  0.00     0.344 C 
HETATM   13  N3  UNL     1      34.728   7.843  48.500  1.00  0.00     0.032 NA
HETATM   14  C14 UNL     1      34.233   7.877  47.291  1.00  0.00     0.685 C 
HETATM   15  C15 UNL     1      33.844   7.579  45.915  1.00  0.00     0.185 C 
HETATM   16  C16 UNL     1      33.984   8.752  45.035  1.00  0.00     0.071 C 
HETATM   17  N4  UNL     1      34.105   9.676  44.336  1.00  0.00    -0.197 NA
ENDROOT
BRANCH   1  18
HETATM   18  N1  UNL     1      31.460   7.645  46.565  1.00  0.00    -0.367 N 
HETATM   19  H6  UNL     1      31.463   8.545  47.094  1.00  0.00     0.161 HD
BRANCH  18  20
HETATM   20  C4  UNL     1      30.134   7.304  46.940  1.00  0.00     0.085 C 
HETATM   21  C3  UNL     1      29.693   6.479  47.875  1.00  0.00     0.016 C 
BRANCH  21  22
HETATM   22  C2  UNL     1      28.275   6.250  48.122  1.00  0.00    -0.009 C 
HETATM   23  C1  UNL     1      27.903   5.056  48.538  1.00  0.00     0.011 C 
ENDBRANCH  21  22
ENDBRANCH  18  20
ENDBRANCH   1  18
TORSDOF 3
ENDMDL
MODEL 8
REMARK VINA RESULT:      -6.3     10.231     13.138
REMARK  3 active torsions:
REMARK  status: ('A' for Active; 'I' for Inactive)
REMARK    1  A    between atoms: C2_2  and  C3_3 
REMARK    2  A    between atoms: C4_4  and  N1_5 
REMARK    3  A    between atoms: N1_5  and  C5_6 
ROOT
HETATM    1  C5  UNL     1      31.826   7.935  48.300  1.00  0.00     0.169 C 
HETATM    2  C6  UNL     1      32.953   8.575  47.584  1.00  0.00     0.030 C 
HETATM    3  C7  UNL     1      33.087   9.836  47.209  1.00  0.00     0.001 C 
HETATM    4  C8  UNL     1      32.094  10.899  47.173  1.00  0.00     0.008 C 
HETATM    5  C9  UNL     1      30.889  10.972  47.738  1.00  0.00     0.066 C 
HETATM    6  S1  UNL     1      30.505  10.154  49.250  1.00  0.00     0.003 SA
HETATM    7  N2  UNL     1      31.166   8.748  49.222  1.00  0.00    -0.218 NA
HETATM    8  C10 UNL     1      28.750  10.135  49.490  1.00  0.00     0.277 C 
HETATM    9  O1  UNL     1      27.541  10.212  49.687  1.00  0.00    -0.269 OA
HETATM   10  C11 UNL     1      28.359   8.852  49.097  1.00  0.00    -0.014 C 
HETATM   11  C12 UNL     1      28.054   7.776  48.767  1.00  0.00    -0.069 C 
HETATM   12  C13 UNL     1      27.705   6.459  48.362  1.00  0.00     0.344 C 
HETATM   13  N3  UNL     1      28.918   5.720  47.967  1.00  0.00     0.032 NA
HETATM   14  C14 UNL     1      29.947   6.426  47.580  1.00  0.00     0.685 C 
HETATM   15  C15 UNL     1      30.866   7.502  47.216  1.00  0.00     0.185 C 
HETATM   16  C16 UNL     1      31.622   7.192  45.991  1.00  0.00     0.071 C 
HETATM   17  N4  UNL     1      32.213   6.952  45.016  1.00  0.00    -0.197 NA
ENDROOT
BRANCH   1  18
HETATM   18  N1  UNL     1      32.408   6.806  49.020  1.00  0.00    -0.367 N 
HETATM   19  H6  UNL     1      32.179   6.362  49.936  1.00  0.00     0.161 HD
BRANCH  18  20
HETATM   20  C4  UNL     1      33.478   5.919  48.734  1.00  0.00     0.085 C 
HETATM   21  C3  UNL     1      33.476   4.733  48.149  1.00  0.00     0.016 C 
BRANCH  21  22
HETATM   22  C2  UNL     1      34.689   3.954  47.937  1.00  0.00    -0.009 C 
HETATM   23  C1  UNL     1      34.944   3.522  46.718  1.00  0.00     0.011 C 
ENDBRANCH  21  22
ENDBRANCH  18  20
ENDBRANCH   1  18
TORSDOF 3
ENDMDL
MODEL 9
REMARK VINA RESULT:      -6.1      3.542      6.342
REMARK  3 active torsions:
REMARK  status: ('A' for Active; 'I' for Inactive)
REMARK    1  A    between atoms: C2_2  and  C3_3 
REMARK    2  A    between atoms: C4_4  and  N1_5 
REMARK    3  A    between atoms: N1_5  and  C5_6 
ROOT
HETATM    1  C5  UNL     1      22.822   2.579  50.609  1.00  0.00     0.169 C 
HETATM    2  C6  UNL     1      21.949   1.385  50.676  1.00  0.00     0.030 C 
HETATM    3  C7  UNL     1      21.029   0.982  49.815  1.00  0.00     0.001 C 
HETATM    4  C8  UNL     1      20.442   1.695  48.690  1.00  0.00     0.008 C 
HETATM    5  C9  UNL     1      20.843   2.805  48.071  1.00  0.00     0.066 C 
HETATM    6  S1  UNL     1      22.539   3.265  47.959  1.00  0.00     0.003 SA
HETATM    7  N2  UNL     1      23.214   2.961  49.325  1.00  0.00    -0.218 NA
HETATM    8  C10 UNL     1      22.667   4.954  47.438  1.00  0.00     0.277 C 
HETATM    9  O1  UNL     1      22.741   6.092  46.987  1.00  0.00    -0.269 OA
HETATM   10  C11 UNL     1      22.909   5.664  48.617  1.00  0.00    -0.014 C 
HETATM   11  C12 UNL     1      23.112   6.238  49.611  1.00  0.00    -0.069 C 
HETATM   12  C13 UNL     1      23.360   6.917  50.835  1.00  0.00     0.344 C 
HETATM   13  N3  UNL     1      23.427   5.945  51.942  1.00  0.00     0.032 NA
HETATM   14  C14 UNL     1      22.805   4.808  51.774  1.00  0.00     0.685 C 
HETATM   15  C15 UNL     1      22.024   3.688  51.254  1.00  0.00     0.185 C 
HETATM   16  C16 UNL     1      21.133   3.115  52.277  1.00  0.00     0.071 C 
HETATM   17  N4  UNL     1      20.419   2.668  53.083  1.00  0.00    -0.197 NA
ENDROOT
BRANCH   1  18
HETATM   18  N1  UNL     1      24.020   2.232  51.369  1.00  0.00    -0.367 N 
HETATM   19  H6  UNL     1      24.885   2.768  51.602  1.00  0.00     0.161 HD
BRANCH  18  20
HETATM   20  C4  UNL     1      24.431   1.059  52.053  1.00  0.00     0.085 C 
HETATM   21  C3  UNL     1      25.642   0.629  52.366  1.00  0.00     0.016 C 
BRANCH  21  22
HETATM   22  C2  UNL     1      25.878  -0.618  53.082  1.00  0.00    -0.009 C 
HETATM   23  C1  UNL     1      26.792  -1.441  52.609  1.00  0.00     0.011 C 
ENDBRANCH  21  22
ENDBRANCH  18  20
ENDBRANCH   1  18
TORSDOF 3
ENDMDL
