MODEL 1
REMARK VINA RESULT:      -9.2      0.000      0.000
REMARK  2 active torsions:
REMARK  status: ('A' for Active; 'I' for Inactive)
REMARK    1  A    between atoms: O1_2  and  C2_3 
REMARK    2  A    between atoms: C6_9  and  C7_10 
ROOT
HETATM    1  C2  UNL     1      20.817   0.586  53.494  1.00  0.00     0.043 C 
HETATM    2  C3  UNL     1      20.826   1.680  52.714  1.00  0.00     0.018 C 
HETATM    3  C4  UNL     1      21.264   2.816  52.066  1.00  0.00     0.017 A 
HETATM    4  N1  UNL     1      21.753   3.604  51.180  1.00  0.00     0.000 N 
HETATM    5  C5  UNL     1      21.838   5.013  51.671  1.00  0.00     0.093 A 
HETATM    6  N2  UNL     1      22.137   4.416  50.599  1.00  0.00    -0.191 NA
HETATM    7  C6  UNL     1      22.295   3.546  49.756  1.00  0.00     0.135 A 
HETATM    8  C7  UNL     1      21.721   2.589  50.715  1.00  0.00     0.020 A 
HETATM    9  C8  UNL     1      21.404   1.430  49.770  1.00  0.00     0.021 C 
HETATM   10  N3  UNL     1      23.045   3.363  48.498  1.00  0.00    -0.275 NA
HETATM   11  C9  UNL     1      24.144   3.085  49.382  1.00  0.00     0.059 C 
HETATM   12  C10 UNL     1      25.146   3.764  50.029  1.00  0.00     0.011 C 
HETATM   13  C11 UNL     1      25.919   2.879  50.835  1.00  0.00    -0.003 C 
HETATM   14  C12 UNL     1      26.507   1.942  51.508  1.00  0.00    -0.022 C 
HETATM   15  C13 UNL     1      27.383   1.177  52.368  1.00  0.00     0.104 A 
HETATM   16  C14 UNL     1      26.324   0.518  53.467  1.00  0.00     0.180 A 
HETATM   17  C15 UNL     1      25.878   0.258  52.251  1.00  0.00     0.179 A 
HETATM   18  C16 UNL     1      25.080  -0.443  53.093  1.00  0.00     0.093 A 
HETATM   19  C17 UNL     1      24.674  -0.865  54.355  1.00  0.00    -0.072 A 
HETATM   20  C18 UNL     1      25.620  -0.196  55.312  1.00  0.00     0.016 A 
HETATM   21  C19 UNL     1      26.792   0.776  54.888  1.00  0.00     0.195 A 
HETATM   22  N4  UNL     1      26.381   0.546  53.678  1.00  0.00    -0.029 N 
HETATM   23  C20 UNL     1      23.629  -1.527  55.124  1.00  0.00     0.035 C 
HETATM   24  C21 UNL     1      22.289  -1.276  54.384  1.00  0.00     0.011 C 
HETATM   25  C22 UNL     1      22.121   0.247  54.162  1.00  0.00     0.064 C 
HETATM   26  H9  UNL     1      21.989   3.504  48.362  1.00  0.00     0.129 HD
HETATM   27  H18 UNL     1      27.009   1.560  54.383  1.00  0.00     0.322 HD
ENDROOT
BRANCH   1  28
HETATM   28  O1  UNL     1      19.557  -0.117  53.543  1.00  0.00    -0.361 OA
HETATM   29  C1  UNL     1      18.946  -0.146  52.242  1.00  0.00     0.209 C 
ENDBRANCH   1  28
TORSDOF 2
ENDMDL
MODEL 2
REMARK VINA RESULT:      -9.0      1.404      2.144
REMARK  2 active torsions:
REMARK  status: ('A' for Active; 'I' for Inactive)
REMARK    1  A    between atoms: O1_2  and  C2_3 
REMARK    2  A    between atoms: C6_9  and  C7_10 
ROOT
HETATM    1  C2  UNL     1      20.196   2.049  52.482  1.00  0.00     0.043 C 
HETATM    2  C3  UNL     1      20.988   3.044  52.049  1.00  0.00     0.018 C 
HETATM    3  C4  UNL     1      22.094   3.850  51.876  1.00  0.00     0.017 A 
HETATM    4  N1  UNL     1      23.180   4.348  51.411  1.00  0.00     0.000 N 
HETATM    5  C5  UNL     1      23.679   5.482  52.248  1.00  0.00     0.093 A 
HETATM    6  N2  UNL     1      24.075   4.898  51.200  1.00  0.00    -0.191 NA
HETATM    7  C6  UNL     1      24.147   4.132  50.251  1.00  0.00     0.135 A 
HETATM    8  C7  UNL     1      22.889   3.525  50.714  1.00  0.00     0.020 A 
HETATM    9  C8  UNL     1      22.489   2.758  49.454  1.00  0.00     0.021 C 
HETATM   10  N3  UNL     1      25.162   3.691  49.274  1.00  0.00    -0.275 NA
HETATM   11  C9  UNL     1      25.586   2.833  50.347  1.00  0.00     0.059 C 
HETATM   12  C10 UNL     1      26.446   2.864  51.417  1.00  0.00     0.011 C 
HETATM   13  C11 UNL     1      26.369   1.653  52.163  1.00  0.00    -0.003 C 
HETATM   14  C12 UNL     1      26.173   0.500  52.719  1.00  0.00    -0.022 C 
HETATM   15  C13 UNL     1      26.211  -0.663  53.576  1.00  0.00     0.104 A 
HETATM   16  C14 UNL     1      24.637  -0.780  54.098  1.00  0.00     0.180 A 
HETATM   17  C15 UNL     1      24.634  -0.689  52.781  1.00  0.00     0.179 A 
HETATM   18  C16 UNL     1      23.352  -0.953  53.135  1.00  0.00     0.093 A 
HETATM   19  C17 UNL     1      22.347  -1.207  54.063  1.00  0.00    -0.072 A 
HETATM   20  C18 UNL     1      23.037  -1.179  55.399  1.00  0.00     0.016 A 
HETATM   21  C19 UNL     1      24.579  -0.900  55.611  1.00  0.00     0.195 A 
HETATM   22  N4  UNL     1      24.614  -0.801  54.317  1.00  0.00    -0.029 N 
HETATM   23  C20 UNL     1      20.912  -1.308  54.286  1.00  0.00     0.035 C 
HETATM   24  C21 UNL     1      20.225  -0.362  53.266  1.00  0.00     0.011 C 
HETATM   25  C22 UNL     1      20.845   1.050  53.402  1.00  0.00     0.064 C 
HETATM   26  H9  UNL     1      24.421   4.354  48.868  1.00  0.00     0.129 HD
HETATM   27  H18 UNL     1      25.294  -0.296  55.413  1.00  0.00     0.322 HD
ENDROOT
BRANCH   1  28
HETATM   28  O1  UNL     1      18.848   2.074  51.968  1.00  0.00    -0.361 OA
HETATM   29  C1  UNL     1      18.854   1.954  50.535  1.00  0.00     0.209 C 
ENDBRANCH   1  28
TORSDOF 2
ENDMDL
MODEL 3
REMARK VINA RESULT:      -8.3      2.099      3.897
REMARK  2 active torsions:
REMARK  status: ('A' for Active; 'I' for Inactive)
REMARK    1  A    between atoms: O1_2  and  C2_3 
REMARK    2  A    between atoms: C6_9  and  C7_10 
ROOT
HETATM    1  C2  UNL     1      19.830   3.338  50.229  1.00  0.00     0.043 C 
HETATM    2  C3  UNL     1      20.949   4.082  50.204  1.00  0.00     0.018 C 
HETATM    3  C4  UNL     1      22.180   4.597  50.551  1.00  0.00     0.017 A 
HETATM    4  N1  UNL     1      23.446   4.790  50.624  1.00  0.00     0.000 N 
HETATM    5  C5  UNL     1      23.793   5.862  51.606  1.00  0.00     0.093 A 
HETATM    6  N2  UNL     1      24.447   5.101  50.840  1.00  0.00    -0.191 NA
HETATM    7  C6  UNL     1      24.734   4.246  50.015  1.00  0.00     0.135 A 
HETATM    8  C7  UNL     1      23.294   3.987  49.862  1.00  0.00     0.020 A 
HETATM    9  C8  UNL     1      23.306   3.205  48.549  1.00  0.00     0.021 C 
HETATM   10  N3  UNL     1      25.930   3.492  49.590  1.00  0.00    -0.275 NA
HETATM   11  C9  UNL     1      25.621   2.674  50.731  1.00  0.00     0.059 C 
HETATM   12  C10 UNL     1      25.908   2.621  52.072  1.00  0.00     0.011 C 
HETATM   13  C11 UNL     1      25.219   1.540  52.695  1.00  0.00    -0.003 C 
HETATM   14  C12 UNL     1      24.525   0.523  53.094  1.00  0.00    -0.022 C 
HETATM   15  C13 UNL     1      23.900  -0.527  53.867  1.00  0.00     0.104 A 
HETATM   16  C14 UNL     1      22.280  -0.234  53.631  1.00  0.00     0.180 A 
HETATM   17  C15 UNL     1      22.873  -0.279  52.451  1.00  0.00     0.179 A 
HETATM   18  C16 UNL     1      21.543  -0.212  52.193  1.00  0.00     0.093 A 
HETATM   19  C17 UNL     1      20.207  -0.139  52.574  1.00  0.00    -0.072 A 
HETATM   20  C18 UNL     1      20.231  -0.130  54.077  1.00  0.00     0.016 A 
HETATM   21  C19 UNL     1      21.542  -0.184  54.957  1.00  0.00     0.195 A 
HETATM   22  N4  UNL     1      22.160  -0.227  53.815  1.00  0.00    -0.029 N 
HETATM   23  C20 UNL     1      18.841   0.108  52.131  1.00  0.00     0.035 C 
HETATM   24  C21 UNL     1      18.921   1.075  50.921  1.00  0.00     0.011 C 
HETATM   25  C22 UNL     1      19.746   2.318  51.332  1.00  0.00     0.064 C 
HETATM   26  H9  UNL     1      25.628   4.260  48.901  1.00  0.00     0.129 HD
HETATM   27  H18 UNL     1      22.397   0.221  55.105  1.00  0.00     0.322 HD
ENDROOT
BRANCH   1  28
HETATM   28  O1  UNL     1      18.892   3.612  49.168  1.00  0.00    -0.361 OA
HETATM   29  C1  UNL     1      19.445   3.232  47.896  1.00  0.00     0.209 C 
ENDBRANCH   1  28
TORSDOF 2
ENDMDL
MODEL 4
REMARK VINA RESULT:      -8.1      2.146      4.802
REMARK  2 active torsions:
REMARK  status: ('A' for Active; 'I' for Inactive)
REMARK    1  A    between atoms: O1_2  and  C2_3 
REMARK    2  A    between atoms: C6_9  and  C7_10 
ROOT
HETATM    1  C2  UNL     1      25.148   3.611  49.818  1.00  0.00     0.043 C 
HETATM    2  C3  UNL     1      23.834   3.550  49.541  1.00  0.00     0.018 C 
HETATM    3  C4  UNL     1      22.538   3.085  49.464  1.00  0.00     0.017 A 
HETATM    4  N1  UNL     1      21.306   2.856  49.734  1.00  0.00     0.000 N 
HETATM    5  C5  UNL     1      20.675   1.939  48.735  1.00  0.00     0.093 A 
HETATM    6  N2  UNL     1      20.286   2.533  49.780  1.00  0.00    -0.191 NA
HETATM    7  C6  UNL     1      20.265   3.226  50.786  1.00  0.00     0.135 A 
HETATM    8  C7  UNL     1      21.676   3.553  50.524  1.00  0.00     0.020 A 
HETATM    9  C8  UNL     1      21.835   4.773  51.431  1.00  0.00     0.021 C 
HETATM   10  N3  UNL     1      19.407   3.409  51.973  1.00  0.00    -0.275 NA
HETATM   11  C9  UNL     1      20.107   2.251  52.457  1.00  0.00     0.059 C 
HETATM   12  C10 UNL     1      19.988   0.884  52.425  1.00  0.00     0.011 C 
HETATM   13  C11 UNL     1      21.088   0.265  53.086  1.00  0.00    -0.003 C 
HETATM   14  C12 UNL     1      22.148  -0.127  53.717  1.00  0.00    -0.022 C 
HETATM   15  C13 UNL     1      23.192  -0.901  54.351  1.00  0.00     0.104 A 
HETATM   16  C14 UNL     1      24.552  -0.416  53.528  1.00  0.00     0.180 A 
HETATM   17  C15 UNL     1      23.912   0.660  53.947  1.00  0.00     0.179 A 
HETATM   18  C16 UNL     1      25.088   1.105  53.439  1.00  0.00     0.093 A 
HETATM   19  C17 UNL     1      26.328   0.922  52.836  1.00  0.00    -0.072 A 
HETATM   20  C18 UNL     1      26.444  -0.562  52.629  1.00  0.00     0.016 A 
HETATM   21  C19 UNL     1      25.338  -1.617  53.031  1.00  0.00     0.195 A 
HETATM   22  N4  UNL     1      24.678  -0.581  53.452  1.00  0.00    -0.029 N 
HETATM   23  C20 UNL     1      27.453   1.571  52.175  1.00  0.00     0.035 C 
HETATM   24  C21 UNL     1      26.902   2.843  51.480  1.00  0.00     0.011 C 
HETATM   25  C22 UNL     1      25.712   2.439  50.576  1.00  0.00     0.064 C 
HETATM   26  H9  UNL     1      19.332   4.202  51.251  1.00  0.00     0.129 HD
HETATM   27  H18 UNL     1      24.412  -1.844  52.947  1.00  0.00     0.322 HD
ENDROOT
BRANCH   1  28
HETATM   28  O1  UNL     1      25.810   4.813  49.372  1.00  0.00    -0.361 OA
HETATM   29  C1  UNL     1      25.254   5.966  50.027  1.00  0.00     0.209 C 
ENDBRANCH   1  28
TORSDOF 2
ENDMDL
MODEL 5
REMARK VINA RESULT:      -7.9      2.263      5.578
REMARK  2 active torsions:
REMARK  status: ('A' for Active; 'I' for Inactive)
REMARK    1  A    between atoms: O1_2  and  C2_3 
REMARK    2  A    between atoms: C6_9  and  C7_10 
ROOT
HETATM    1  C2  UNL     1      23.538   0.184  53.010  1.00  0.00     0.043 C 
HETATM    2  C3  UNL     1      24.198   1.163  52.369  1.00  0.00     0.018 C 
HETATM    3  C4  UNL     1      24.481   2.181  51.482  1.00  0.00     0.017 A 
HETATM    4  N1  UNL     1      24.606   3.346  50.961  1.00  0.00     0.000 N 
HETATM    5  C5  UNL     1      25.095   3.278  49.550  1.00  0.00     0.093 A 
HETATM    6  N2  UNL     1      24.772   4.206  50.345  1.00  0.00    -0.191 NA
HETATM    7  C6  UNL     1      24.397   4.809  51.339  1.00  0.00     0.135 A 
HETATM    8  C7  UNL     1      24.252   3.507  52.008  1.00  0.00     0.020 A 
HETATM    9  C8  UNL     1      24.171   3.968  53.464  1.00  0.00     0.021 C 
HETATM   10  N3  UNL     1      23.917   6.162  51.683  1.00  0.00    -0.275 NA
HETATM   11  C9  UNL     1      22.664   5.670  51.176  1.00  0.00     0.059 C 
HETATM   12  C10 UNL     1      21.990   5.596  49.983  1.00  0.00     0.011 C 
HETATM   13  C11 UNL     1      20.750   4.913  50.144  1.00  0.00    -0.003 C 
HETATM   14  C12 UNL     1      19.671   4.276  50.466  1.00  0.00    -0.022 C 
HETATM   15  C13 UNL     1      18.387   3.610  50.467  1.00  0.00     0.104 A 
HETATM   16  C14 UNL     1      18.771   2.087  51.013  1.00  0.00     0.180 A 
HETATM   17  C15 UNL     1      19.275   2.971  51.855  1.00  0.00     0.179 A 
HETATM   18  C16 UNL     1      19.466   1.761  52.434  1.00  0.00     0.093 A 
HETATM   19  C17 UNL     1      19.366   0.373  52.474  1.00  0.00    -0.072 A 
HETATM   20  C18 UNL     1      18.673  -0.003  51.194  1.00  0.00     0.016 A 
HETATM   21  C19 UNL     1      18.204   1.024  50.088  1.00  0.00     0.195 A 
HETATM   22  N4  UNL     1      18.692   1.922  50.889  1.00  0.00    -0.029 N 
HETATM   23  C20 UNL     1      19.803  -0.846  53.140  1.00  0.00     0.035 C 
HETATM   24  C21 UNL     1      21.221  -0.574  53.706  1.00  0.00     0.011 C 
HETATM   25  C22 UNL     1      22.122  -0.056  52.559  1.00  0.00     0.064 C 
HETATM   26  H9  UNL     1      24.919   5.956  52.010  1.00  0.00     0.129 HD
HETATM   27  H18 UNL     1      18.486   1.749  49.530  1.00  0.00     0.322 HD
ENDROOT
BRANCH   1  28
HETATM   28  O1  UNL     1      24.283  -0.467  54.060  1.00  0.00    -0.361 OA
HETATM   29  C1  UNL     1      25.669  -0.587  53.694  1.00  0.00     0.209 C 
ENDBRANCH   1  28
TORSDOF 2
ENDMDL
MODEL 6
REMARK VINA RESULT:      -7.8      1.943      2.535
REMARK  2 active torsions:
REMARK  status: ('A' for Active; 'I' for Inactive)
REMARK    1  A    between atoms: O1_2  and  C2_3 
REMARK    2  A    between atoms: C6_9  and  C7_10 
ROOT
HETATM    1  C2  UNL     1      20.088   2.785  52.045  1.00  0.00     0.043 C 
HETATM    2  C3  UNL     1      20.243   3.963  51.416  1.00  0.00     0.018 C 
HETATM    3  C4  UNL     1      20.824   5.114  50.928  1.00  0.00     0.017 A 
HETATM    4  N1  UNL     1      21.424   5.948  50.160  1.00  0.00     0.000 N 
HETATM    5  C5  UNL     1      21.652   7.264  50.832  1.00  0.00     0.093 A 
HETATM    6  N2  UNL     1      21.913   6.779  49.696  1.00  0.00    -0.191 NA
HETATM    7  C6  UNL     1      21.997   6.012  48.748  1.00  0.00     0.135 A 
HETATM    8  C7  UNL     1      21.292   5.012  49.565  1.00  0.00     0.020 A 
HETATM    9  C8  UNL     1      20.874   4.028  48.472  1.00  0.00     0.021 C 
HETATM   10  N3  UNL     1      22.758   5.908  47.488  1.00  0.00    -0.275 NA
HETATM   11  C9  UNL     1      23.793   5.394  48.344  1.00  0.00     0.059 C 
HETATM   12  C10 UNL     1      24.845   5.865  49.088  1.00  0.00     0.011 C 
HETATM   13  C11 UNL     1      25.490   4.800  49.783  1.00  0.00    -0.003 C 
HETATM   14  C12 UNL     1      25.950   3.724  50.335  1.00  0.00    -0.022 C 
HETATM   15  C13 UNL     1      26.709   2.759  51.099  1.00  0.00     0.104 A 
HETATM   16  C14 UNL     1      25.552   2.090  52.087  1.00  0.00     0.180 A 
HETATM   17  C15 UNL     1      25.116   2.041  50.842  1.00  0.00     0.179 A 
HETATM   18  C16 UNL     1      24.219   1.334  51.573  1.00  0.00     0.093 A 
HETATM   19  C17 UNL     1      23.732   0.802  52.763  1.00  0.00    -0.072 A 
HETATM   20  C18 UNL     1      24.720   1.230  53.813  1.00  0.00     0.016 A 
HETATM   21  C19 UNL     1      26.005   2.108  53.537  1.00  0.00     0.195 A 
HETATM   22  N4  UNL     1      25.606   2.084  52.301  1.00  0.00    -0.029 N 
HETATM   23  C20 UNL     1      22.598   0.172  53.423  1.00  0.00     0.035 C 
HETATM   24  C21 UNL     1      21.317   0.668  52.703  1.00  0.00     0.011 C 
HETATM   25  C22 UNL     1      21.327   2.215  52.681  1.00  0.00     0.064 C 
HETATM   26  H9  UNL     1      21.729   6.185  47.357  1.00  0.00     0.129 HD
HETATM   27  H18 UNL     1      26.322   2.920  53.142  1.00  0.00     0.322 HD
ENDROOT
BRANCH   1  28
HETATM   28  O1  UNL     1      18.758   2.231  51.983  1.00  0.00    -0.361 OA
HETATM   29  C1  UNL     1      18.247   2.297  50.641  1.00  0.00     0.209 C 
ENDBRANCH   1  28
TORSDOF 2
ENDMDL
MODEL 7
REMARK VINA RESULT:      -7.5      8.845     12.189
REMARK  2 active torsions:
REMARK  status: ('A' for Active; 'I' for Inactive)
REMARK    1  A    between atoms: O1_2  and  C2_3 
REMARK    2  A    between atoms: C6_9  and  C7_10 
ROOT
HETATM    1  C2  UNL     1      28.395   6.632  48.132  1.00  0.00     0.043 C 
HETATM    2  C3  UNL     1      29.486   5.867  47.959  1.00  0.00     0.018 C 
HETATM    3  C4  UNL     1      30.737   5.453  47.552  1.00  0.00     0.017 A 
HETATM    4  N1  UNL     1      31.998   5.222  47.527  1.00  0.00     0.000 N 
HETATM    5  C5  UNL     1      32.430   4.612  46.233  1.00  0.00     0.093 A 
HETATM    6  N2  UNL     1      33.010   4.958  47.300  1.00  0.00    -0.191 NA
HETATM    7  C6  UNL     1      33.221   5.390  48.423  1.00  0.00     0.135 A 
HETATM    8  C7  UNL     1      31.779   5.661  48.531  1.00  0.00     0.020 A 
HETATM    9  C8  UNL     1      31.660   5.850  50.043  1.00  0.00     0.021 C 
HETATM   10  N3  UNL     1      34.378   5.829  49.228  1.00  0.00    -0.275 NA
HETATM   11  C9  UNL     1      34.218   7.054  48.493  1.00  0.00     0.059 C 
HETATM   12  C10 UNL     1      34.657   7.620  47.322  1.00  0.00     0.011 C 
HETATM   13  C11 UNL     1      34.068   8.904  47.129  1.00  0.00    -0.003 C 
HETATM   14  C12 UNL     1      33.447  10.039  47.113  1.00  0.00    -0.022 C 
HETATM   15  C13 UNL     1      32.937  11.349  46.775  1.00  0.00     0.104 A 
HETATM   16  C14 UNL     1      31.295  11.095  46.718  1.00  0.00     0.180 A 
HETATM   17  C15 UNL     1      31.751  10.624  47.865  1.00  0.00     0.179 A 
HETATM   18  C16 UNL     1      30.400  10.548  47.947  1.00  0.00     0.093 A 
HETATM   19  C17 UNL     1      29.114  10.723  47.445  1.00  0.00    -0.072 A 
HETATM   20  C18 UNL     1      29.308  11.315  46.077  1.00  0.00     0.016 A 
HETATM   21  C19 UNL     1      30.712  11.629  45.422  1.00  0.00     0.195 A 
HETATM   22  N4  UNL     1      31.197  11.170  46.536  1.00  0.00    -0.029 N 
HETATM   23  C20 UNL     1      27.702  10.411  47.618  1.00  0.00     0.035 C 
HETATM   24  C21 UNL     1      27.622   9.038  48.334  1.00  0.00     0.011 C 
HETATM   25  C22 UNL     1      28.460   8.011  47.534  1.00  0.00     0.064 C 
HETATM   26  H9  UNL     1      33.982   4.872  49.515  1.00  0.00     0.129 HD
HETATM   27  H18 UNL     1      31.568  11.262  45.205  1.00  0.00     0.322 HD
ENDROOT
BRANCH   1  28
HETATM   28  O1  UNL     1      27.336   6.019  48.897  1.00  0.00    -0.361 OA
HETATM   29  C1  UNL     1      27.429   4.585  48.827  1.00  0.00     0.209 C 
ENDBRANCH   1  28
TORSDOF 2
ENDMDL
MODEL 8
REMARK VINA RESULT:      -7.4      9.172     11.638
REMARK  2 active torsions:
REMARK  status: ('A' for Active; 'I' for Inactive)
REMARK    1  A    between atoms: O1_2  and  C2_3 
REMARK    2  A    between atoms: C6_9  and  C7_10 
ROOT
HETATM    1  C2  UNL     1      29.620   5.881  48.312  1.00  0.00     0.043 C 
HETATM    2  C3  UNL     1      29.047   7.095  48.258  1.00  0.00     0.018 C 
HETATM    3  C4  UNL     1      28.895   8.465  48.237  1.00  0.00     0.017 A 
HETATM    4  N1  UNL     1      28.777   9.674  47.826  1.00  0.00     0.000 N 
HETATM    5  C5  UNL     1      28.701  10.646  48.959  1.00  0.00     0.093 A 
HETATM    6  N2  UNL     1      28.683  10.733  47.699  1.00  0.00    -0.191 NA
HETATM    7  C6  UNL     1      28.699  10.445  46.512  1.00  0.00     0.135 A 
HETATM    8  C7  UNL     1      28.812   9.033  46.911  1.00  0.00     0.020 A 
HETATM    9  C8  UNL     1      28.439   8.357  45.592  1.00  0.00     0.021 C 
HETATM   10  N3  UNL     1      28.902  11.132  45.221  1.00  0.00    -0.275 NA
HETATM   11  C9  UNL     1      30.294  10.995  45.552  1.00  0.00     0.059 C 
HETATM   12  C10 UNL     1      31.271  11.690  46.220  1.00  0.00     0.011 C 
HETATM   13  C11 UNL     1      32.494  10.959  46.235  1.00  0.00    -0.003 C 
HETATM   14  C12 UNL     1      33.513  10.165  46.154  1.00  0.00    -0.022 C 
HETATM   15  C13 UNL     1      34.819   9.551  46.254  1.00  0.00     0.104 A 
HETATM   16  C14 UNL     1      34.486   8.122  47.034  1.00  0.00     0.180 A 
HETATM   17  C15 UNL     1      33.671   8.232  46.001  1.00  0.00     0.179 A 
HETATM   18  C16 UNL     1      33.476   6.984  46.492  1.00  0.00     0.093 A 
HETATM   19  C17 UNL     1      33.727   5.948  47.387  1.00  0.00    -0.072 A 
HETATM   20  C18 UNL     1      34.781   6.484  48.315  1.00  0.00     0.016 A 
HETATM   21  C19 UNL     1      35.406   7.933  48.228  1.00  0.00     0.195 A 
HETATM   22  N4  UNL     1      34.615   8.080  47.208  1.00  0.00    -0.029 N 
HETATM   23  C20 UNL     1      33.276   4.659  47.893  1.00  0.00     0.035 C 
HETATM   24  C21 UNL     1      31.735   4.615  47.719  1.00  0.00     0.011 C 
HETATM   25  C22 UNL     1      31.123   5.869  48.388  1.00  0.00     0.064 C 
HETATM   26  H9  UNL     1      27.881  10.864  45.420  1.00  0.00     0.129 HD
HETATM   27  H18 UNL     1      35.201   8.867  48.186  1.00  0.00     0.322 HD
ENDROOT
BRANCH   1  28
HETATM   28  O1  UNL     1      28.702   4.769  48.257  1.00  0.00    -0.361 OA
HETATM   29  C1  UNL     1      27.385   5.184  48.660  1.00  0.00     0.209 C 
ENDBRANCH   1  28
TORSDOF 2
ENDMDL
MODEL 9
REMARK VINA RESULT:      -7.4      2.634      5.235
REMARK  2 active torsions:
REMARK  status: ('A' for Active; 'I' for Inactive)
REMARK    1  A    between atoms: O1_2  and  C2_3 
REMARK    2  A    between atoms: C6_9  and  C7_10 
ROOT
HETATM    1  C2  UNL     1      24.365   3.589  50.417  1.00  0.00     0.043 C 
HETATM    2  C3  UNL     1      23.326   3.784  49.587  1.00  0.00     0.018 C 
HETATM    3  C4  UNL     1      22.140   3.582  48.912  1.00  0.00     0.017 A 
HETATM    4  N1  UNL     1      20.897   3.601  48.595  1.00  0.00     0.000 N 
HETATM    5  C5  UNL     1      20.626   2.817  47.351  1.00  0.00     0.093 A 
HETATM    6  N2  UNL     1      19.925   3.484  48.163  1.00  0.00    -0.191 NA
HETATM    7  C6  UNL     1      19.582   4.177  49.109  1.00  0.00     0.135 A 
HETATM    8  C7  UNL     1      20.995   4.218  49.520  1.00  0.00     0.020 A 
HETATM    9  C8  UNL     1      20.949   5.391  50.499  1.00  0.00     0.021 C 
HETATM   10  N3  UNL     1      18.333   4.535  49.809  1.00  0.00    -0.275 NA
HETATM   11  C9  UNL     1      18.523   3.267  50.458  1.00  0.00     0.059 C 
HETATM   12  C10 UNL     1      18.189   1.949  50.268  1.00  0.00     0.011 C 
HETATM   13  C11 UNL     1      18.747   1.132  51.293  1.00  0.00    -0.003 C 
HETATM   14  C12 UNL     1      19.325   0.546  52.291  1.00  0.00    -0.022 C 
HETATM   15  C13 UNL     1      19.819  -0.413  53.256  1.00  0.00     0.104 A 
HETATM   16  C14 UNL     1      21.466  -0.211  53.154  1.00  0.00     0.180 A 
HETATM   17  C15 UNL     1      20.911   0.974  53.334  1.00  0.00     0.179 A 
HETATM   18  C16 UNL     1      22.248   1.175  53.432  1.00  0.00     0.093 A 
HETATM   19  C17 UNL     1      23.572   0.748  53.421  1.00  0.00    -0.072 A 
HETATM   20  C18 UNL     1      23.500  -0.732  53.169  1.00  0.00     0.016 A 
HETATM   21  C19 UNL     1      22.162  -1.547  52.959  1.00  0.00     0.195 A 
HETATM   22  N4  UNL     1      21.580  -0.398  53.129  1.00  0.00    -0.029 N 
HETATM   23  C20 UNL     1      24.969   1.158  53.375  1.00  0.00     0.035 C 
HETATM   24  C21 UNL     1      25.024   2.507  52.612  1.00  0.00     0.011 C 
HETATM   25  C22 UNL     1      24.312   2.336  51.249  1.00  0.00     0.064 C 
HETATM   26  H9  UNL     1      18.731   5.321  49.193  1.00  0.00     0.129 HD
HETATM   27  H18 UNL     1      21.346  -1.588  52.459  1.00  0.00     0.322 HD
ENDROOT
BRANCH   1  28
HETATM   28  O1  UNL     1      25.359   4.634  50.404  1.00  0.00    -0.361 OA
HETATM   29  C1  UNL     1      24.731   5.927  50.385  1.00  0.00     0.209 C 
ENDBRANCH   1  28
TORSDOF 2
ENDMDL
