MODEL 1
REMARK VINA RESULT:      -7.2      0.000      0.000
REMARK  12 active torsions:
REMARK  status: ('A' for Active; 'I' for Inactive)
REMARK    1  A    between atoms: O1_2  and  C2_3 
REMARK    2  A    between atoms: C6_9  and  N3_10 
REMARK    3  A    between atoms: N3_10  and  C7_11 
REMARK    4  A    between atoms: C7_11  and  C8_12 
REMARK    5  A    between atoms: C9_13  and  C10_15 
REMARK    6  A    between atoms: C10_15  and  C11_16 
REMARK    7  A    between atoms: C14_20  and  O2_21 
REMARK    8  A    between atoms: O2_21  and  C15_22 
REMARK    9  A    between atoms: C15_22  and  C16_23 
REMARK   10  A    between atoms: C16_23  and  O3_24 
REMARK   11  A    between atoms: C16_23  and  C17_25 
REMARK   12  A    between atoms: C17_25  and  N4_26 
ROOT
HETATM    1  C2  UNL     1      19.960  -0.638  53.366  1.00  0.00     0.103 A 
HETATM    2  C3  UNL     1      20.647  -1.261  54.415  1.00  0.00     0.072 A 
HETATM    3  C4  UNL     1      22.009  -1.068  54.515  1.00  0.00     0.075 A 
HETATM    4  N1  UNL     1      22.726  -1.642  55.506  1.00  0.00    -0.241 NA
HETATM    5  C5  UNL     1      24.067  -1.444  55.593  1.00  0.00     0.235 A 
HETATM    6  N2  UNL     1      24.683  -0.671  54.684  1.00  0.00    -0.224 NA
HETATM    7  C6  UNL     1      24.060  -0.063  53.670  1.00  0.00     0.137 A 
HETATM    8  C12 UNL     1      22.705  -0.290  53.619  1.00  0.00     0.041 A 
HETATM    9  C13 UNL     1      21.951   0.273  52.635  1.00  0.00     0.057 A 
HETATM   10  C14 UNL     1      20.600   0.173  52.410  1.00  0.00     0.103 A 
ENDROOT
BRANCH  10  11
HETATM   11  O2  UNL     1      19.705   0.613  51.552  1.00  0.00    -0.346 OA
BRANCH  11  12
HETATM   12  C15 UNL     1      19.376   1.710  50.859  1.00  0.00     0.209 C 
BRANCH  12  13
HETATM   13  C16 UNL     1      20.294   1.996  49.699  1.00  0.00     0.160 C 
BRANCH  13  14
HETATM   14  O3  UNL     1      19.630   1.785  48.515  1.00  0.00    -0.392 OA
HETATM   15  H18 UNL     1      20.206   1.782  47.716  1.00  0.00     0.210 HD
ENDBRANCH  13  14
BRANCH  13  16
HETATM   16  C17 UNL     1      20.775   3.426  49.820  1.00  0.00     0.150 C 
BRANCH  16  17
HETATM   17  N4  UNL     1      22.034   3.582  50.410  1.00  0.00    -0.406 N 
HETATM   18  C18 UNL     1      23.074   2.681  50.077  1.00  0.00     0.143 C 
HETATM   19  C19 UNL     1      24.386   3.413  50.355  1.00  0.00     0.187 C 
HETATM   20  O4  UNL     1      24.509   3.739  51.686  1.00  0.00    -0.388 OA
HETATM   21  C20 UNL     1      23.336   3.919  52.372  1.00  0.00     0.187 C 
HETATM   22  C21 UNL     1      22.229   4.473  51.476  1.00  0.00     0.143 C 
ENDBRANCH  16  17
ENDBRANCH  13  16
ENDBRANCH  12  13
ENDBRANCH  11  12
ENDBRANCH  10  11
BRANCH   1  23
HETATM   23  O1  UNL     1      18.605  -0.914  53.386  1.00  0.00    -0.353 OA
HETATM   24  C1  UNL     1      18.110  -2.222  53.532  1.00  0.00     0.210 C 
ENDBRANCH   1  23
BRANCH   7  25
HETATM   25  N3  UNL     1      24.775   0.739  52.743  1.00  0.00    -0.370 N 
HETATM   26  H6  UNL     1      24.650   1.738  52.531  1.00  0.00     0.161 HD
BRANCH  25  27
HETATM   27  C7  UNL     1      25.828   0.120  51.972  1.00  0.00     0.150 C 
BRANCH  27  28
HETATM   28  C8  UNL     1      27.173   0.262  52.552  1.00  0.00     0.012 C 
HETATM   29  C9  UNL     1      27.864  -0.829  52.865  1.00  0.00     0.012 C 
HETATM   30 CL1  UNL     1      27.057  -2.350  52.536  1.00  0.00    -0.089 Cl
BRANCH  29  31
HETATM   31  C10 UNL     1      29.229  -0.840  53.456  1.00  0.00     0.082 C 
BRANCH  31  32
HETATM   32  C11 UNL     1      29.532   0.370  54.275  1.00  0.00     0.227 C 
HETATM   33  F1  UNL     1      28.701   0.424  55.396  1.00  0.00    -0.255 F 
ENDBRANCH  31  32
ENDBRANCH  29  31
ENDBRANCH  27  28
ENDBRANCH  25  27
ENDBRANCH   7  25
TORSDOF 12
ENDMDL
MODEL 2
REMARK VINA RESULT:      -7.2      3.655      6.215
REMARK  12 active torsions:
REMARK  status: ('A' for Active; 'I' for Inactive)
REMARK    1  A    between atoms: O1_2  and  C2_3 
REMARK    2  A    between atoms: C6_9  and  N3_10 
REMARK    3  A    between atoms: N3_10  and  C7_11 
REMARK    4  A    between atoms: C7_11  and  C8_12 
REMARK    5  A    between atoms: C9_13  and  C10_15 
REMARK    6  A    between atoms: C10_15  and  C11_16 
REMARK    7  A    between atoms: C14_20  and  O2_21 
REMARK    8  A    between atoms: O2_21  and  C15_22 
REMARK    9  A    between atoms: C15_22  and  C16_23 
REMARK   10  A    between atoms: C16_23  and  O3_24 
REMARK   11  A    between atoms: C16_23  and  C17_25 
REMARK   12  A    between atoms: C17_25  and  N4_26 
ROOT
HETATM    1  C2  UNL     1      21.448   0.926  53.232  1.00  0.00     0.103 A 
HETATM    2  C3  UNL     1      20.778   2.104  52.881  1.00  0.00     0.072 A 
HETATM    3  C4  UNL     1      21.492   3.108  52.262  1.00  0.00     0.075 A 
HETATM    4  N1  UNL     1      20.899   4.266  51.899  1.00  0.00    -0.241 NA
HETATM    5  C5  UNL     1      21.614   5.248  51.289  1.00  0.00     0.235 A 
HETATM    6  N2  UNL     1      22.922   5.061  51.046  1.00  0.00    -0.224 NA
HETATM    7  C6  UNL     1      23.594   3.952  51.368  1.00  0.00     0.137 A 
HETATM    8  C12 UNL     1      22.834   2.986  51.983  1.00  0.00     0.041 A 
HETATM    9  C13 UNL     1      23.397   1.806  52.362  1.00  0.00     0.057 A 
HETATM   10  C14 UNL     1      22.819   0.726  52.981  1.00  0.00     0.103 A 
ENDROOT
BRANCH  10  11
HETATM   11  O2  UNL     1      23.166  -0.465  53.423  1.00  0.00    -0.346 OA
BRANCH  11  12
HETATM   12  C15 UNL     1      23.562  -1.087  54.540  1.00  0.00     0.209 C 
BRANCH  12  13
HETATM   13  C16 UNL     1      24.944  -0.701  54.997  1.00  0.00     0.160 C 
BRANCH  13  14
HETATM   14  O3  UNL     1      25.276  -1.408  56.127  1.00  0.00    -0.392 OA
HETATM   15  H18 UNL     1      24.615  -1.351  56.855  1.00  0.00     0.210 HD
ENDBRANCH  13  14
BRANCH  13  16
HETATM   16  C17 UNL     1      25.910  -0.976  53.864  1.00  0.00     0.150 C 
BRANCH  16  17
HETATM   17  N4  UNL     1      26.867   0.021  53.644  1.00  0.00    -0.406 N 
HETATM   18  C18 UNL     1      26.830   0.767  52.442  1.00  0.00     0.143 C 
HETATM   19  C19 UNL     1      27.534   2.092  52.734  1.00  0.00     0.187 C 
HETATM   20  O4  UNL     1      28.852   1.897  53.078  1.00  0.00    -0.388 OA
HETATM   21  C20 UNL     1      29.149   0.692  53.660  1.00  0.00     0.187 C 
HETATM   22  C21 UNL     1      27.981   0.152  54.486  1.00  0.00     0.143 C 
ENDBRANCH  16  17
ENDBRANCH  13  16
ENDBRANCH  12  13
ENDBRANCH  11  12
ENDBRANCH  10  11
BRANCH   1  23
HETATM   23  O1  UNL     1      20.616   0.006  53.843  1.00  0.00    -0.353 OA
HETATM   24  C1  UNL     1      19.453  -0.479  53.219  1.00  0.00     0.210 C 
ENDBRANCH   1  23
BRANCH   7  25
HETATM   25  N3  UNL     1      24.979   3.824  51.084  1.00  0.00    -0.370 N 
HETATM   26  H6  UNL     1      25.776   3.928  51.727  1.00  0.00     0.161 HD
BRANCH  25  27
HETATM   27  C7  UNL     1      25.374   3.507  49.732  1.00  0.00     0.150 C 
BRANCH  27  28
HETATM   28  C8  UNL     1      26.769   3.844  49.410  1.00  0.00     0.012 C 
HETATM   29  C9  UNL     1      27.038   5.003  48.818  1.00  0.00     0.012 C 
HETATM   30 CL1  UNL     1      25.647   6.017  48.486  1.00  0.00    -0.089 Cl
BRANCH  29  31
HETATM   31  C10 UNL     1      28.394   5.478  48.434  1.00  0.00     0.082 C 
BRANCH  31  32
HETATM   32  C11 UNL     1      28.489   6.962  48.304  1.00  0.00     0.227 C 
HETATM   33  F1  UNL     1      29.824   7.358  48.186  1.00  0.00    -0.255 F 
ENDBRANCH  31  32
ENDBRANCH  29  31
ENDBRANCH  27  28
ENDBRANCH  25  27
ENDBRANCH   7  25
TORSDOF 12
ENDMDL
MODEL 3
REMARK VINA RESULT:      -7.0      6.023      9.682
REMARK  12 active torsions:
REMARK  status: ('A' for Active; 'I' for Inactive)
REMARK    1  A    between atoms: O1_2  and  C2_3 
REMARK    2  A    between atoms: C6_9  and  N3_10 
REMARK    3  A    between atoms: N3_10  and  C7_11 
REMARK    4  A    between atoms: C7_11  and  C8_12 
REMARK    5  A    between atoms: C9_13  and  C10_15 
REMARK    6  A    between atoms: C10_15  and  C11_16 
REMARK    7  A    between atoms: C14_20  and  O2_21 
REMARK    8  A    between atoms: O2_21  and  C15_22 
REMARK    9  A    between atoms: C15_22  and  C16_23 
REMARK   10  A    between atoms: C16_23  and  O3_24 
REMARK   11  A    between atoms: C16_23  and  C17_25 
REMARK   12  A    between atoms: C17_25  and  N4_26 
ROOT
HETATM    1  C2  UNL     1      27.315   7.213  47.839  1.00  0.00     0.103 A 
HETATM    2  C3  UNL     1      25.921   7.125  47.938  1.00  0.00     0.072 A 
HETATM    3  C4  UNL     1      25.373   6.013  48.542  1.00  0.00     0.075 A 
HETATM    4  N1  UNL     1      24.036   5.873  48.667  1.00  0.00    -0.241 NA
HETATM    5  C5  UNL     1      23.509   4.772  49.266  1.00  0.00     0.235 A 
HETATM    6  N2  UNL     1      24.329   3.817  49.736  1.00  0.00    -0.224 NA
HETATM    7  C6  UNL     1      25.662   3.868  49.658  1.00  0.00     0.137 A 
HETATM    8  C12 UNL     1      26.152   4.997  49.046  1.00  0.00     0.041 A 
HETATM    9  C13 UNL     1      27.494   5.172  48.903  1.00  0.00     0.057 A 
HETATM   10  C14 UNL     1      28.178   6.215  48.329  1.00  0.00     0.103 A 
ENDROOT
BRANCH  10  11
HETATM   11  O2  UNL     1      29.423   6.571  48.091  1.00  0.00    -0.346 OA
BRANCH  11  12
HETATM   12  C15 UNL     1      30.505   7.056  48.711  1.00  0.00     0.209 C 
BRANCH  12  13
HETATM   13  C16 UNL     1      31.535   6.009  49.050  1.00  0.00     0.160 C 
BRANCH  13  14
HETATM   14  O3  UNL     1      31.247   5.450  50.271  1.00  0.00    -0.392 OA
HETATM   15  H18 UNL     1      30.415   4.923  50.295  1.00  0.00     0.210 HD
ENDBRANCH  13  14
BRANCH  13  16
HETATM   16  C17 UNL     1      31.531   4.970  47.948  1.00  0.00     0.150 C 
BRANCH  16  17
HETATM   17  N4  UNL     1      32.783   4.425  47.641  1.00  0.00    -0.406 N 
HETATM   18  C18 UNL     1      32.863   3.098  47.155  1.00  0.00     0.143 C 
HETATM   19  C19 UNL     1      34.171   3.003  46.371  1.00  0.00     0.187 C 
HETATM   20  O4  UNL     1      35.260   3.231  47.180  1.00  0.00    -0.388 OA
HETATM   21  C20 UNL     1      35.042   4.031  48.271  1.00  0.00     0.187 C 
HETATM   22  C21 UNL     1      33.967   5.084  48.003  1.00  0.00     0.143 C 
ENDBRANCH  16  17
ENDBRANCH  13  16
ENDBRANCH  12  13
ENDBRANCH  11  12
ENDBRANCH  10  11
BRANCH   1  23
HETATM   23  O1  UNL     1      27.727   8.376  47.213  1.00  0.00    -0.353 OA
HETATM   24  C1  UNL     1      26.887   9.097  46.347  1.00  0.00     0.210 C 
ENDBRANCH   1  23
BRANCH   7  25
HETATM   25  N3  UNL     1      26.467   2.820  50.174  1.00  0.00    -0.370 N 
HETATM   26  H6  UNL     1      27.164   2.246  49.680  1.00  0.00     0.161 HD
BRANCH  25  27
HETATM   27  C7  UNL     1      26.331   2.475  51.570  1.00  0.00     0.150 C 
BRANCH  27  28
HETATM   28  C8  UNL     1      26.759   1.108  51.905  1.00  0.00     0.012 C 
HETATM   29  C9  UNL     1      27.698   0.928  52.827  1.00  0.00     0.012 C 
HETATM   30 CL1  UNL     1      28.329   2.394  53.553  1.00  0.00    -0.089 Cl
BRANCH  29  31
HETATM   31  C10 UNL     1      28.228  -0.390  53.268  1.00  0.00     0.082 C 
BRANCH  31  32
HETATM   32  C11 UNL     1      29.600  -0.314  53.851  1.00  0.00     0.227 C 
HETATM   33  F1  UNL     1      30.181  -1.583  53.903  1.00  0.00    -0.255 F 
ENDBRANCH  31  32
ENDBRANCH  29  31
ENDBRANCH  27  28
ENDBRANCH  25  27
ENDBRANCH   7  25
TORSDOF 12
ENDMDL
MODEL 4
REMARK VINA RESULT:      -7.0      6.093      9.464
REMARK  12 active torsions:
REMARK  status: ('A' for Active; 'I' for Inactive)
REMARK    1  A    between atoms: O1_2  and  C2_3 
REMARK    2  A    between atoms: C6_9  and  N3_10 
REMARK    3  A    between atoms: N3_10  and  C7_11 
REMARK    4  A    between atoms: C7_11  and  C8_12 
REMARK    5  A    between atoms: C9_13  and  C10_15 
REMARK    6  A    between atoms: C10_15  and  C11_16 
REMARK    7  A    between atoms: C14_20  and  O2_21 
REMARK    8  A    between atoms: O2_21  and  C15_22 
REMARK    9  A    between atoms: C15_22  and  C16_23 
REMARK   10  A    between atoms: C16_23  and  O3_24 
REMARK   11  A    between atoms: C16_23  and  C17_25 
REMARK   12  A    between atoms: C17_25  and  N4_26 
ROOT
HETATM    1  C2  UNL     1      27.640   6.813  47.885  1.00  0.00     0.103 A 
HETATM    2  C3  UNL     1      26.289   6.929  48.235  1.00  0.00     0.072 A 
HETATM    3  C4  UNL     1      25.698   5.894  48.929  1.00  0.00     0.075 A 
HETATM    4  N1  UNL     1      24.400   5.949  49.295  1.00  0.00    -0.241 NA
HETATM    5  C5  UNL     1      23.829   4.922  49.978  1.00  0.00     0.235 A 
HETATM    6  N2  UNL     1      24.567   3.844  50.291  1.00  0.00    -0.224 NA
HETATM    7  C6  UNL     1      25.857   3.699  49.972  1.00  0.00     0.137 A 
HETATM    8  C12 UNL     1      26.393   4.760  49.281  1.00  0.00     0.041 A 
HETATM    9  C13 UNL     1      27.699   4.739  48.897  1.00  0.00     0.057 A 
HETATM   10  C14 UNL     1      28.418   5.685  48.209  1.00  0.00     0.103 A 
ENDROOT
BRANCH  10  11
HETATM   11  O2  UNL     1      29.638   5.859  47.749  1.00  0.00    -0.346 OA
BRANCH  11  12
HETATM   12  C15 UNL     1      30.919   5.750  48.124  1.00  0.00     0.209 C 
BRANCH  12  13
HETATM   13  C16 UNL     1      31.227   6.414  49.441  1.00  0.00     0.160 C 
BRANCH  13  14
HETATM   14  O3  UNL     1      31.717   5.485  50.327  1.00  0.00    -0.392 OA
HETATM   15  H18 UNL     1      32.700   5.433  50.364  1.00  0.00     0.210 HD
ENDBRANCH  13  14
BRANCH  13  16
HETATM   16  C17 UNL     1      32.227   7.523  49.188  1.00  0.00     0.150 C 
BRANCH  16  17
HETATM   17  N4  UNL     1      31.678   8.720  48.715  1.00  0.00    -0.406 N 
HETATM   18  C18 UNL     1      30.522   9.248  49.337  1.00  0.00     0.143 C 
HETATM   19  C19 UNL     1      30.525  10.750  49.053  1.00  0.00     0.187 C 
HETATM   20  O4  UNL     1      30.443  11.007  47.704  1.00  0.00    -0.388 OA
HETATM   21  C20 UNL     1      30.947  10.038  46.875  1.00  0.00     0.187 C 
HETATM   22  C21 UNL     1      32.119   9.293  47.513  1.00  0.00     0.143 C 
ENDBRANCH  16  17
ENDBRANCH  13  16
ENDBRANCH  12  13
ENDBRANCH  11  12
ENDBRANCH  10  11
BRANCH   1  23
HETATM   23  O1  UNL     1      28.104   7.919  47.196  1.00  0.00    -0.353 OA
HETATM   24  C1  UNL     1      27.317   9.069  47.012  1.00  0.00     0.210 C 
ENDBRANCH   1  23
BRANCH   7  25
HETATM   25  N3  UNL     1      26.575   2.529  50.332  1.00  0.00    -0.370 N 
HETATM   26  H6  UNL     1      27.346   2.071  49.827  1.00  0.00     0.161 HD
BRANCH  25  27
HETATM   27  C7  UNL     1      26.218   1.857  51.559  1.00  0.00     0.150 C 
BRANCH  27  28
HETATM   28  C8  UNL     1      27.305   1.769  52.546  1.00  0.00     0.012 C 
HETATM   29  C9  UNL     1      27.662   0.579  53.016  1.00  0.00     0.012 C 
HETATM   30 CL1  UNL     1      26.760  -0.783  52.378  1.00  0.00    -0.089 Cl
BRANCH  29  31
HETATM   31  C10 UNL     1      28.740   0.336  54.012  1.00  0.00     0.082 C 
BRANCH  31  32
HETATM   32  C11 UNL     1      29.878  -0.465  53.473  1.00  0.00     0.227 C 
HETATM   33  F1  UNL     1      29.569  -1.827  53.488  1.00  0.00    -0.255 F 
ENDBRANCH  31  32
ENDBRANCH  29  31
ENDBRANCH  27  28
ENDBRANCH  25  27
ENDBRANCH   7  25
TORSDOF 12
ENDMDL
MODEL 5
REMARK VINA RESULT:      -6.9      3.283      6.531
REMARK  12 active torsions:
REMARK  status: ('A' for Active; 'I' for Inactive)
REMARK    1  A    between atoms: O1_2  and  C2_3 
REMARK    2  A    between atoms: C6_9  and  N3_10 
REMARK    3  A    between atoms: N3_10  and  C7_11 
REMARK    4  A    between atoms: C7_11  and  C8_12 
REMARK    5  A    between atoms: C9_13  and  C10_15 
REMARK    6  A    between atoms: C10_15  and  C11_16 
REMARK    7  A    between atoms: C14_20  and  O2_21 
REMARK    8  A    between atoms: O2_21  and  C15_22 
REMARK    9  A    between atoms: C15_22  and  C16_23 
REMARK   10  A    between atoms: C16_23  and  O3_24 
REMARK   11  A    between atoms: C16_23  and  C17_25 
REMARK   12  A    between atoms: C17_25  and  N4_26 
ROOT
HETATM    1  C2  UNL     1      26.984   1.483  52.811  1.00  0.00     0.103 A 
HETATM    2  C3  UNL     1      26.903   0.736  53.993  1.00  0.00     0.072 A 
HETATM    3  C4  UNL     1      25.725   0.078  54.276  1.00  0.00     0.075 A 
HETATM    4  N1  UNL     1      25.589  -0.658  55.400  1.00  0.00    -0.241 NA
HETATM    5  C5  UNL     1      24.423  -1.304  55.667  1.00  0.00     0.235 A 
HETATM    6  N2  UNL     1      23.399  -1.206  54.803  1.00  0.00    -0.224 NA
HETATM    7  C6  UNL     1      23.440  -0.502  53.668  1.00  0.00     0.137 A 
HETATM    8  C12 UNL     1      24.636   0.134  53.437  1.00  0.00     0.041 A 
HETATM    9  C13 UNL     1      24.810   0.883  52.314  1.00  0.00     0.057 A 
HETATM   10  C14 UNL     1      25.914   1.589  51.902  1.00  0.00     0.103 A 
ENDROOT
BRANCH  10  11
HETATM   11  O2  UNL     1      26.280   2.354  50.896  1.00  0.00    -0.346 OA
BRANCH  11  12
HETATM   12  C15 UNL     1      26.026   3.548  50.347  1.00  0.00     0.209 C 
BRANCH  12  13
HETATM   13  C16 UNL     1      24.612   4.027  50.557  1.00  0.00     0.160 C 
BRANCH  13  14
HETATM   14  O3  UNL     1      24.622   5.233  51.214  1.00  0.00    -0.392 OA
HETATM   15  H18 UNL     1      24.497   5.169  52.189  1.00  0.00     0.210 HD
ENDBRANCH  13  14
BRANCH  13  16
HETATM   16  C17 UNL     1      23.945   4.136  49.202  1.00  0.00     0.150 C 
BRANCH  16  17
HETATM   17  N4  UNL     1      22.755   3.413  49.066  1.00  0.00    -0.406 N 
HETATM   18  C18 UNL     1      22.689   2.354  48.130  1.00  0.00     0.143 C 
HETATM   19  C19 UNL     1      21.581   1.419  48.612  1.00  0.00     0.187 C 
HETATM   20  O4  UNL     1      20.360   2.054  48.630  1.00  0.00    -0.388 OA
HETATM   21  C20 UNL     1      20.391   3.412  48.810  1.00  0.00     0.187 C 
HETATM   22  C21 UNL     1      21.571   3.847  49.679  1.00  0.00     0.143 C 
ENDBRANCH  16  17
ENDBRANCH  13  16
ENDBRANCH  12  13
ENDBRANCH  11  12
ENDBRANCH  10  11
BRANCH   1  23
HETATM   23  O1  UNL     1      28.217   2.089  52.652  1.00  0.00    -0.353 OA
HETATM   24  C1  UNL     1      29.024   2.439  53.748  1.00  0.00     0.210 C 
ENDBRANCH   1  23
BRANCH   7  25
HETATM   25  N3  UNL     1      22.317  -0.440  52.802  1.00  0.00    -0.370 N 
HETATM   26  H6  UNL     1      22.224  -0.815  51.848  1.00  0.00     0.161 HD
BRANCH  25  27
HETATM   27  C7  UNL     1      21.124   0.223  53.273  1.00  0.00     0.150 C 
BRANCH  27  28
HETATM   28  C8  UNL     1      19.986  -0.675  53.524  1.00  0.00     0.012 C 
HETATM   29  C9  UNL     1      18.923  -0.614  52.730  1.00  0.00     0.012 C 
HETATM   30 CL1  UNL     1      19.014   0.569  51.440  1.00  0.00    -0.089 Cl
BRANCH  29  31
HETATM   31  C10 UNL     1      17.703  -1.457  52.862  1.00  0.00     0.082 C 
BRANCH  31  32
HETATM   32  C11 UNL     1      17.877  -2.613  53.790  1.00  0.00     0.227 C 
HETATM   33  F1  UNL     1      17.678  -3.818  53.113  1.00  0.00    -0.255 F 
ENDBRANCH  31  32
ENDBRANCH  29  31
ENDBRANCH  27  28
ENDBRANCH  25  27
ENDBRANCH   7  25
TORSDOF 12
ENDMDL
MODEL 6
REMARK VINA RESULT:      -6.8      3.334      6.562
REMARK  12 active torsions:
REMARK  status: ('A' for Active; 'I' for Inactive)
REMARK    1  A    between atoms: O1_2  and  C2_3 
REMARK    2  A    between atoms: C6_9  and  N3_10 
REMARK    3  A    between atoms: N3_10  and  C7_11 
REMARK    4  A    between atoms: C7_11  and  C8_12 
REMARK    5  A    between atoms: C9_13  and  C10_15 
REMARK    6  A    between atoms: C10_15  and  C11_16 
REMARK    7  A    between atoms: C14_20  and  O2_21 
REMARK    8  A    between atoms: O2_21  and  C15_22 
REMARK    9  A    between atoms: C15_22  and  C16_23 
REMARK   10  A    between atoms: C16_23  and  O3_24 
REMARK   11  A    between atoms: C16_23  and  C17_25 
REMARK   12  A    between atoms: C17_25  and  N4_26 
ROOT
HETATM    1  C2  UNL     1      27.018   0.857  53.114  1.00  0.00     0.103 A 
HETATM    2  C3  UNL     1      26.673   0.123  54.256  1.00  0.00     0.072 A 
HETATM    3  C4  UNL     1      25.376  -0.325  54.383  1.00  0.00     0.075 A 
HETATM    4  N1  UNL     1      24.985  -1.038  55.462  1.00  0.00    -0.241 NA
HETATM    5  C5  UNL     1      23.703  -1.475  55.575  1.00  0.00     0.235 A 
HETATM    6  N2  UNL     1      22.819  -1.193  54.603  1.00  0.00    -0.224 NA
HETATM    7  C6  UNL     1      23.112  -0.496  53.502  1.00  0.00     0.137 A 
HETATM    8  C12 UNL     1      24.418  -0.073  53.428  1.00  0.00     0.041 A 
HETATM    9  C13 UNL     1      24.847   0.647  52.356  1.00  0.00     0.057 A 
HETATM   10  C14 UNL     1      26.095   1.156  52.093  1.00  0.00     0.103 A 
ENDROOT
BRANCH  10  11
HETATM   11  O2  UNL     1      26.701   1.856  51.158  1.00  0.00    -0.346 OA
BRANCH  11  12
HETATM   12  C15 UNL     1      26.471   2.834  50.274  1.00  0.00     0.209 C 
BRANCH  12  13
HETATM   13  C16 UNL     1      25.336   3.748  50.658  1.00  0.00     0.160 C 
BRANCH  13  14
HETATM   14  O3  UNL     1      25.741   5.058  50.565  1.00  0.00    -0.392 OA
HETATM   15  H18 UNL     1      26.072   5.322  49.675  1.00  0.00     0.210 HD
ENDBRANCH  13  14
BRANCH  13  16
HETATM   16  C17 UNL     1      24.167   3.461  49.741  1.00  0.00     0.150 C 
BRANCH  16  17
HETATM   17  N4  UNL     1      22.908   3.766  50.269  1.00  0.00    -0.406 N 
HETATM   18  C18 UNL     1      22.590   3.359  51.587  1.00  0.00     0.143 C 
HETATM   19  C19 UNL     1      21.492   4.302  52.078  1.00  0.00     0.187 C 
HETATM   20  O4  UNL     1      20.356   4.195  51.309  1.00  0.00    -0.388 OA
HETATM   21  C20 UNL     1      20.544   3.799  50.010  1.00  0.00     0.187 C 
HETATM   22  C21 UNL     1      21.886   4.276  49.455  1.00  0.00     0.143 C 
ENDBRANCH  16  17
ENDBRANCH  13  16
ENDBRANCH  12  13
ENDBRANCH  11  12
ENDBRANCH  10  11
BRANCH   1  23
HETATM   23  O1  UNL     1      28.346   1.243  53.114  1.00  0.00    -0.353 OA
HETATM   24  C1  UNL     1      29.345   0.481  53.744  1.00  0.00     0.210 C 
ENDBRANCH   1  23
BRANCH   7  25
HETATM   25  N3  UNL     1      22.125  -0.232  52.516  1.00  0.00    -0.370 N 
HETATM   26  H6  UNL     1      22.167  -0.417  51.505  1.00  0.00     0.161 HD
BRANCH  25  27
HETATM   27  C7  UNL     1      20.883   0.373  52.935  1.00  0.00     0.150 C 
BRANCH  27  28
HETATM   28  C8  UNL     1      19.902   0.561  51.855  1.00  0.00     0.012 C 
HETATM   29  C9  UNL     1      18.757  -0.113  51.892  1.00  0.00     0.012 C 
HETATM   30 CL1  UNL     1      18.555  -1.177  53.270  1.00  0.00    -0.089 Cl
BRANCH  29  31
HETATM   31  C10 UNL     1      17.676  -0.024  50.875  1.00  0.00     0.082 C 
BRANCH  31  32
HETATM   32  C11 UNL     1      17.815   1.147  49.959  1.00  0.00     0.227 C 
HETATM   33  F1  UNL     1      17.325   2.305  50.567  1.00  0.00    -0.255 F 
ENDBRANCH  31  32
ENDBRANCH  29  31
ENDBRANCH  27  28
ENDBRANCH  25  27
ENDBRANCH   7  25
TORSDOF 12
ENDMDL
MODEL 7
REMARK VINA RESULT:      -6.8      3.498      5.117
REMARK  12 active torsions:
REMARK  status: ('A' for Active; 'I' for Inactive)
REMARK    1  A    between atoms: O1_2  and  C2_3 
REMARK    2  A    between atoms: C6_9  and  N3_10 
REMARK    3  A    between atoms: N3_10  and  C7_11 
REMARK    4  A    between atoms: C7_11  and  C8_12 
REMARK    5  A    between atoms: C9_13  and  C10_15 
REMARK    6  A    between atoms: C10_15  and  C11_16 
REMARK    7  A    between atoms: C14_20  and  O2_21 
REMARK    8  A    between atoms: O2_21  and  C15_22 
REMARK    9  A    between atoms: C15_22  and  C16_23 
REMARK   10  A    between atoms: C16_23  and  O3_24 
REMARK   11  A    between atoms: C16_23  and  C17_25 
REMARK   12  A    between atoms: C17_25  and  N4_26 
ROOT
HETATM    1  C2  UNL     1      23.417  -0.201  53.044  1.00  0.00     0.103 A 
HETATM    2  C3  UNL     1      24.763  -0.359  53.397  1.00  0.00     0.072 A 
HETATM    3  C4  UNL     1      25.677   0.565  52.936  1.00  0.00     0.075 A 
HETATM    4  N1  UNL     1      26.988   0.465  53.244  1.00  0.00    -0.241 NA
HETATM    5  C5  UNL     1      27.878   1.383  52.784  1.00  0.00     0.235 A 
HETATM    6  N2  UNL     1      27.447   2.397  52.016  1.00  0.00    -0.224 NA
HETATM    7  C6  UNL     1      26.172   2.578  51.659  1.00  0.00     0.137 A 
HETATM    8  C12 UNL     1      25.306   1.628  52.145  1.00  0.00     0.041 A 
HETATM    9  C13 UNL     1      23.978   1.698  51.856  1.00  0.00     0.057 A 
HETATM   10  C14 UNL     1      22.960   0.859  52.239  1.00  0.00     0.103 A 
ENDROOT
BRANCH  10  11
HETATM   11  O2  UNL     1      21.659   0.744  52.075  1.00  0.00    -0.346 OA
BRANCH  11  12
HETATM   12  C15 UNL     1      20.743   0.531  51.122  1.00  0.00     0.209 C 
BRANCH  12  13
HETATM   13  C16 UNL     1      20.745   1.571  50.032  1.00  0.00     0.160 C 
BRANCH  13  14
HETATM   14  O3  UNL     1      19.882   1.198  49.031  1.00  0.00    -0.392 OA
HETATM   15  H18 UNL     1      19.790   1.855  48.303  1.00  0.00     0.210 HD
ENDBRANCH  13  14
BRANCH  13  16
HETATM   16  C17 UNL     1      20.346   2.897  50.645  1.00  0.00     0.150 C 
BRANCH  16  17
HETATM   17  N4  UNL     1      21.386   3.823  50.786  1.00  0.00    -0.406 N 
HETATM   18  C18 UNL     1      21.423   4.658  51.928  1.00  0.00     0.143 C 
HETATM   19  C19 UNL     1      22.881   5.077  52.111  1.00  0.00     0.187 C 
HETATM   20  O4  UNL     1      23.335   5.802  51.033  1.00  0.00    -0.388 OA
HETATM   21  C20 UNL     1      22.725   5.541  49.833  1.00  0.00     0.187 C 
HETATM   22  C21 UNL     1      22.268   4.087  49.728  1.00  0.00     0.143 C 
ENDBRANCH  16  17
ENDBRANCH  13  16
ENDBRANCH  12  13
ENDBRANCH  11  12
ENDBRANCH  10  11
BRANCH   1  23
HETATM   23  O1  UNL     1      22.612  -1.194  53.572  1.00  0.00    -0.353 OA
HETATM   24  C1  UNL     1      22.335  -1.278  54.948  1.00  0.00     0.210 C 
ENDBRANCH   1  23
BRANCH   7  25
HETATM   25  N3  UNL     1      25.787   3.673  50.841  1.00  0.00    -0.370 N 
HETATM   26  H6  UNL     1      24.969   4.288  50.941  1.00  0.00     0.161 HD
BRANCH  25  27
HETATM   27  C7  UNL     1      26.620   4.008  49.710  1.00  0.00     0.150 C 
BRANCH  27  28
HETATM   28  C8  UNL     1      26.339   5.324  49.116  1.00  0.00     0.012 C 
HETATM   29  C9  UNL     1      27.296   5.950  48.440  1.00  0.00     0.012 C 
HETATM   30 CL1  UNL     1      28.825   5.098  48.340  1.00  0.00    -0.089 Cl
BRANCH  29  31
HETATM   31  C10 UNL     1      27.159   7.280  47.787  1.00  0.00     0.082 C 
BRANCH  31  32
HETATM   32  C11 UNL     1      25.744   7.649  47.484  1.00  0.00     0.227 C 
HETATM   33  F1  UNL     1      25.231   8.479  48.484  1.00  0.00    -0.255 F 
ENDBRANCH  31  32
ENDBRANCH  29  31
ENDBRANCH  27  28
ENDBRANCH  25  27
ENDBRANCH   7  25
TORSDOF 12
ENDMDL
MODEL 8
REMARK VINA RESULT:      -6.7      3.986      6.828
REMARK  12 active torsions:
REMARK  status: ('A' for Active; 'I' for Inactive)
REMARK    1  A    between atoms: O1_2  and  C2_3 
REMARK    2  A    between atoms: C6_9  and  N3_10 
REMARK    3  A    between atoms: N3_10  and  C7_11 
REMARK    4  A    between atoms: C7_11  and  C8_12 
REMARK    5  A    between atoms: C9_13  and  C10_15 
REMARK    6  A    between atoms: C10_15  and  C11_16 
REMARK    7  A    between atoms: C14_20  and  O2_21 
REMARK    8  A    between atoms: O2_21  and  C15_22 
REMARK    9  A    between atoms: C15_22  and  C16_23 
REMARK   10  A    between atoms: C16_23  and  O3_24 
REMARK   11  A    between atoms: C16_23  and  C17_25 
REMARK   12  A    between atoms: C17_25  and  N4_26 
ROOT
HETATM    1  C2  UNL     1      24.841   1.184  52.056  1.00  0.00     0.103 A 
HETATM    2  C3  UNL     1      25.326   0.345  53.067  1.00  0.00     0.072 A 
HETATM    3  C4  UNL     1      24.421  -0.252  53.918  1.00  0.00     0.075 A 
HETATM    4  N1  UNL     1      24.829  -1.071  54.911  1.00  0.00    -0.241 NA
HETATM    5  C5  UNL     1      23.926  -1.654  55.743  1.00  0.00     0.235 A 
HETATM    6  N2  UNL     1      22.616  -1.410  55.573  1.00  0.00    -0.224 NA
HETATM    7  C6  UNL     1      22.118  -0.614  54.622  1.00  0.00     0.137 A 
HETATM    8  C12 UNL     1      23.065  -0.046  53.804  1.00  0.00     0.041 A 
HETATM    9  C13 UNL     1      22.690   0.784  52.793  1.00  0.00     0.057 A 
HETATM   10  C14 UNL     1      23.469   1.444  51.875  1.00  0.00     0.103 A 
ENDROOT
BRANCH  10  11
HETATM   11  O2  UNL     1      23.319   2.266  50.858  1.00  0.00    -0.346 OA
BRANCH  11  12
HETATM   12  C15 UNL     1      22.801   3.461  50.551  1.00  0.00     0.209 C 
BRANCH  12  13
HETATM   13  C16 UNL     1      23.822   4.567  50.474  1.00  0.00     0.160 C 
BRANCH  13  14
HETATM   14  O3  UNL     1      24.536   4.623  51.646  1.00  0.00    -0.392 OA
HETATM   15  H18 UNL     1      24.940   3.768  51.921  1.00  0.00     0.210 HD
ENDBRANCH  13  14
BRANCH  13  16
HETATM   16  C17 UNL     1      24.721   4.296  49.286  1.00  0.00     0.150 C 
BRANCH  16  17
HETATM   17  N4  UNL     1      25.785   5.191  49.131  1.00  0.00    -0.406 N 
HETATM   18  C18 UNL     1      25.520   6.527  48.749  1.00  0.00     0.143 C 
HETATM   19  C19 UNL     1      26.703   7.361  49.239  1.00  0.00     0.187 C 
HETATM   20  O4  UNL     1      27.878   6.968  48.640  1.00  0.00    -0.388 OA
HETATM   21  C20 UNL     1      27.938   5.659  48.236  1.00  0.00     0.187 C 
HETATM   22  C21 UNL     1      27.114   4.743  49.140  1.00  0.00     0.143 C 
ENDBRANCH  16  17
ENDBRANCH  13  16
ENDBRANCH  12  13
ENDBRANCH  11  12
ENDBRANCH  10  11
BRANCH   1  23
HETATM   23  O1  UNL     1      25.854   1.714  51.277  1.00  0.00    -0.353 OA
HETATM   24  C1  UNL     1      27.043   2.212  51.836  1.00  0.00     0.210 C 
ENDBRANCH   1  23
BRANCH   7  25
HETATM   25  N3  UNL     1      20.720  -0.399  54.503  1.00  0.00    -0.370 N 
HETATM   26  H6  UNL     1      20.158   0.375  54.882  1.00  0.00     0.161 HD
BRANCH  25  27
HETATM   27  C7  UNL     1      19.939  -1.362  53.763  1.00  0.00     0.150 C 
BRANCH  27  28
HETATM   28  C8  UNL     1      18.795  -0.790  53.036  1.00  0.00     0.012 C 
HETATM   29  C9  UNL     1      17.657  -1.472  52.975  1.00  0.00     0.012 C 
HETATM   30 CL1  UNL     1      17.663  -3.021  53.797  1.00  0.00    -0.089 Cl
BRANCH  29  31
HETATM   31  C10 UNL     1      16.422  -1.021  52.279  1.00  0.00     0.082 C 
BRANCH  31  32
HETATM   32  C11 UNL     1      15.379  -2.084  52.172  1.00  0.00     0.227 C 
HETATM   33  F1  UNL     1      15.145  -2.407  50.833  1.00  0.00    -0.255 F 
ENDBRANCH  31  32
ENDBRANCH  29  31
ENDBRANCH  27  28
ENDBRANCH  25  27
ENDBRANCH   7  25
TORSDOF 12
ENDMDL
MODEL 9
REMARK VINA RESULT:      -6.6      3.778      6.451
REMARK  12 active torsions:
REMARK  status: ('A' for Active; 'I' for Inactive)
REMARK    1  A    between atoms: O1_2  and  C2_3 
REMARK    2  A    between atoms: C6_9  and  N3_10 
REMARK    3  A    between atoms: N3_10  and  C7_11 
REMARK    4  A    between atoms: C7_11  and  C8_12 
REMARK    5  A    between atoms: C9_13  and  C10_15 
REMARK    6  A    between atoms: C10_15  and  C11_16 
REMARK    7  A    between atoms: C14_20  and  O2_21 
REMARK    8  A    between atoms: O2_21  and  C15_22 
REMARK    9  A    between atoms: C15_22  and  C16_23 
REMARK   10  A    between atoms: C16_23  and  O3_24 
REMARK   11  A    between atoms: C16_23  and  C17_25 
REMARK   12  A    between atoms: C17_25  and  N4_26 
ROOT
HETATM    1  C2  UNL     1      26.934   1.571  52.731  1.00  0.00     0.103 A 
HETATM    2  C3  UNL     1      26.855   0.798  53.896  1.00  0.00     0.072 A 
HETATM    3  C4  UNL     1      25.679   0.130  54.165  1.00  0.00     0.075 A 
HETATM    4  N1  UNL     1      25.545  -0.631  55.272  1.00  0.00    -0.241 NA
HETATM    5  C5  UNL     1      24.380  -1.284  55.525  1.00  0.00     0.235 A 
HETATM    6  N2  UNL     1      23.355  -1.169  54.664  1.00  0.00    -0.224 NA
HETATM    7  C6  UNL     1      23.394  -0.440  53.545  1.00  0.00     0.137 A 
HETATM    8  C12 UNL     1      24.589   0.204  53.328  1.00  0.00     0.041 A 
HETATM    9  C13 UNL     1      24.761   0.979  52.222  1.00  0.00     0.057 A 
HETATM   10  C14 UNL     1      25.863   1.696  51.826  1.00  0.00     0.103 A 
ENDROOT
BRANCH  10  11
HETATM   11  O2  UNL     1      26.227   2.484  50.836  1.00  0.00    -0.346 OA
BRANCH  11  12
HETATM   12  C15 UNL     1      25.710   3.291  49.902  1.00  0.00     0.209 C 
BRANCH  12  13
HETATM   13  C16 UNL     1      26.443   4.600  49.754  1.00  0.00     0.160 C 
BRANCH  13  14
HETATM   14  O3  UNL     1      27.686   4.378  49.212  1.00  0.00    -0.392 OA
HETATM   15  H18 UNL     1      28.372   4.098  49.861  1.00  0.00     0.210 HD
ENDBRANCH  13  14
BRANCH  13  16
HETATM   16  C17 UNL     1      25.609   5.511  48.880  1.00  0.00     0.150 C 
BRANCH  16  17
HETATM   17  N4  UNL     1      24.556   6.161  49.533  1.00  0.00    -0.406 N 
HETATM   18  C18 UNL     1      23.296   6.258  48.896  1.00  0.00     0.143 C 
HETATM   19  C19 UNL     1      22.261   6.434  50.007  1.00  0.00     0.187 C 
HETATM   20  O4  UNL     1      22.475   7.594  50.714  1.00  0.00    -0.388 OA
HETATM   21  C20 UNL     1      23.769   8.046  50.751  1.00  0.00     0.187 C 
HETATM   22  C21 UNL     1      24.777   6.898  50.706  1.00  0.00     0.143 C 
ENDBRANCH  16  17
ENDBRANCH  13  16
ENDBRANCH  12  13
ENDBRANCH  11  12
ENDBRANCH  10  11
BRANCH   1  23
HETATM   23  O1  UNL     1      28.165   2.183  52.585  1.00  0.00    -0.353 OA
HETATM   24  C1  UNL     1      28.984   2.488  53.686  1.00  0.00     0.210 C 
ENDBRANCH   1  23
BRANCH   7  25
HETATM   25  N3  UNL     1      22.271  -0.360  52.681  1.00  0.00    -0.370 N 
HETATM   26  H6  UNL     1      22.235  -0.506  51.664  1.00  0.00     0.161 HD
BRANCH  25  27
HETATM   27  C7  UNL     1      20.986  -0.036  53.256  1.00  0.00     0.150 C 
BRANCH  27  28
HETATM   28  C8  UNL     1      20.516   1.328  52.968  1.00  0.00     0.012 C 
HETATM   29  C9  UNL     1      19.523   1.504  52.104  1.00  0.00     0.012 C 
HETATM   30 CL1  UNL     1      18.877   0.038  51.392  1.00  0.00    -0.089 Cl
BRANCH  29  31
HETATM   31  C10 UNL     1      18.945   2.819  51.716  1.00  0.00     0.082 C 
BRANCH  31  32
HETATM   32  C11 UNL     1      19.950   3.766  51.150  1.00  0.00     0.227 C 
HETATM   33  F1  UNL     1      20.753   4.291  52.165  1.00  0.00    -0.255 F 
ENDBRANCH  31  32
ENDBRANCH  29  31
ENDBRANCH  27  28
ENDBRANCH  25  27
ENDBRANCH   7  25
TORSDOF 12
ENDMDL
