MODEL 1
REMARK VINA RESULT:      -9.5      0.000      0.000
REMARK  6 active torsions:
REMARK  status: ('A' for Active; 'I' for Inactive)
REMARK    1  A    between atoms: C5_5  and  N1_6 
REMARK    2  A    between atoms: N1_6  and  C6_7 
REMARK    3  A    between atoms: C9_11  and  N3_12 
REMARK    4  A    between atoms: N3_12  and  C11_14 
REMARK    5  A    between atoms: C22_29  and  S1_30 
REMARK    6  A    between atoms: S1_30  and  N8_31 
ROOT
HETATM    1  C6  UNL     1      23.440   4.183  52.365  1.00  0.00     0.728 A 
HETATM    2  N2  UNL     1      22.099   4.127  52.593  1.00  0.00    -0.075 NA
HETATM    3  C7  UNL     1      21.230   4.542  51.654  1.00  0.00     0.140 A 
HETATM    4  C8  UNL     1      21.624   5.041  50.430  1.00  0.00     0.071 A 
HETATM    5  C9  UNL     1      22.985   5.089  50.220  1.00  0.00     0.150 A 
HETATM    6  N7  UNL     1      23.837   4.673  51.161  1.00  0.00    -0.045 NA
ENDROOT
BRANCH   5   7
HETATM    7  N3  UNL     1      23.434   5.610  48.953  1.00  0.00    -0.336 N 
HETATM    8  C10 UNL     1      22.931   5.335  47.606  1.00  0.00     0.158 C 
BRANCH   7   9
HETATM    9  C11 UNL     1      24.517   6.496  49.219  1.00  0.00     0.034 A 
HETATM   10  C12 UNL     1      24.373   7.549  49.987  1.00  0.00     0.008 A 
HETATM   11  C13 UNL     1      25.369   8.574  50.376  1.00  0.00     0.072 A 
HETATM   12  C14 UNL     1      26.659   8.260  49.760  1.00  0.00    -0.012 A 
HETATM   13  C15 UNL     1      27.505   9.205  50.156  1.00  0.00     0.092 C 
HETATM   14  C19 UNL     1      26.862   7.096  48.891  1.00  0.00     0.053 A 
HETATM   15  N4  UNL     1      28.883   9.517  49.949  1.00  0.00    -0.397 N 
HETATM   16  C16 UNL     1      29.775   9.041  48.884  1.00  0.00     0.135 C 
HETATM   17  H16 UNL     1      29.179  10.175  50.716  1.00  0.00     0.158 HD
HETATM   18  C17 UNL     1      29.878   7.551  49.052  1.00  0.00     0.132 C 
HETATM   19  N5  UNL     1      29.284   6.795  47.980  1.00  0.00    -0.234 NA
HETATM   20  C18 UNL     1      29.982   5.513  47.922  1.00  0.00     0.136 C 
HETATM   21  N6  UNL     1      27.935   6.514  48.151  1.00  0.00    -0.319 N 
HETATM   22  H24 UNL     1      27.696   5.671  47.586  1.00  0.00     0.181 HD
HETATM   23  C20 UNL     1      25.858   6.284  48.650  1.00  0.00     0.060 A 
ENDBRANCH   7   9
ENDBRANCH   5   7
BRANCH   1  24
HETATM   24  N1  UNL     1      24.548   3.828  53.174  1.00  0.00    -0.188 N 
HETATM   25  H6  UNL     1      24.986   4.462  53.890  1.00  0.00     0.184 HD
BRANCH  24  26
HETATM   26  C5  UNL     1      25.159   2.532  53.063  1.00  0.00     0.050 A 
HETATM   27  C4  UNL     1      24.571   1.458  52.437  1.00  0.00     0.030 A 
HETATM   28  C3  UNL     1      25.171   0.224  52.324  1.00  0.00     0.010 A 
HETATM   29  C2  UNL     1      26.439   0.042  52.867  1.00  0.00    -0.039 A 
HETATM   30  C1  UNL     1      27.094  -1.279  52.742  1.00  0.00     0.050 C 
HETATM   31  C22 UNL     1      27.086   1.101  53.517  1.00  0.00     0.087 A 
HETATM   32  C21 UNL     1      26.434   2.335  53.606  1.00  0.00     0.055 A 
BRANCH  31  33
HETATM   33  S1  UNL     1      28.683   0.868  54.201  1.00  0.00     0.257 S 
HETATM   34  O1  UNL     1      28.585  -0.164  55.287  1.00  0.00    -0.201 OA
HETATM   35  O2  UNL     1      29.112   2.149  54.882  1.00  0.00    -0.201 OA
BRANCH  33  36
HETATM   36  N8  UNL     1      29.852   0.388  53.075  1.00  0.00    -0.324 N 
HETATM   37  H27 UNL     1      29.571  -0.205  52.304  1.00  0.00     0.169 HD
HETATM   38  H28 UNL     1      30.758   0.832  53.085  1.00  0.00     0.169 HD
ENDBRANCH  33  36
ENDBRANCH  31  33
ENDBRANCH  24  26
ENDBRANCH   1  24
TORSDOF 6
ENDMDL
MODEL 2
REMARK VINA RESULT:      -9.4      4.270      9.163
REMARK  6 active torsions:
REMARK  status: ('A' for Active; 'I' for Inactive)
REMARK    1  A    between atoms: C5_5  and  N1_6 
REMARK    2  A    between atoms: N1_6  and  C6_7 
REMARK    3  A    between atoms: C9_11  and  N3_12 
REMARK    4  A    between atoms: N3_12  and  C11_14 
REMARK    5  A    between atoms: C22_29  and  S1_30 
REMARK    6  A    between atoms: S1_30  and  N8_31 
ROOT
HETATM    1  C6  UNL     1      24.499   4.642  50.604  1.00  0.00     0.728 A 
HETATM    2  N2  UNL     1      23.930   5.327  51.634  1.00  0.00    -0.075 NA
HETATM    3  C7  UNL     1      23.666   4.710  52.800  1.00  0.00     0.140 A 
HETATM    4  C8  UNL     1      23.944   3.378  53.028  1.00  0.00     0.071 A 
HETATM    5  C9  UNL     1      24.519   2.704  51.972  1.00  0.00     0.150 A 
HETATM    6  N7  UNL     1      24.776   3.329  50.820  1.00  0.00    -0.045 NA
ENDROOT
BRANCH   5   7
HETATM    7  N3  UNL     1      24.817   1.308  52.173  1.00  0.00    -0.336 N 
HETATM    8  C10 UNL     1      26.082   0.593  51.990  1.00  0.00     0.158 C 
BRANCH   7   9
HETATM    9  C11 UNL     1      23.616   0.676  52.606  1.00  0.00     0.034 A 
HETATM   10  C12 UNL     1      23.572  -0.039  53.704  1.00  0.00     0.008 A 
HETATM   11  C13 UNL     1      22.431  -0.763  54.311  1.00  0.00     0.072 A 
HETATM   12  C14 UNL     1      21.239  -0.578  53.483  1.00  0.00    -0.012 A 
HETATM   13  C15 UNL     1      20.256  -1.238  54.084  1.00  0.00     0.092 C 
HETATM   14  C19 UNL     1      21.246   0.209  52.244  1.00  0.00     0.053 A 
HETATM   15  N4  UNL     1      18.869  -1.480  53.844  1.00  0.00    -0.397 N 
HETATM   16  C16 UNL     1      18.123  -1.342  52.587  1.00  0.00     0.135 C 
HETATM   17  H16 UNL     1      18.437  -1.790  54.755  1.00  0.00     0.158 HD
HETATM   18  C17 UNL     1      18.193   0.112  52.211  1.00  0.00     0.132 C 
HETATM   19  N5  UNL     1      18.954   0.376  51.018  1.00  0.00    -0.234 NA
HETATM   20  C18 UNL     1      18.425   1.608  50.437  1.00  0.00     0.136 C 
HETATM   21  N6  UNL     1      20.311   0.579  51.232  1.00  0.00    -0.319 N 
HETATM   22  H24 UNL     1      20.694   1.138  50.439  1.00  0.00     0.181 HD
HETATM   23  C20 UNL     1      22.357   0.788  51.851  1.00  0.00     0.060 A 
ENDBRANCH   7   9
ENDBRANCH   5   7
BRANCH   1  24
HETATM   24  N1  UNL     1      24.863   5.042  49.294  1.00  0.00    -0.188 N 
HETATM   25  H6  UNL     1      24.238   4.953  48.453  1.00  0.00     0.184 HD
BRANCH  24  26
HETATM   26  C5  UNL     1      26.152   5.617  49.028  1.00  0.00     0.050 A 
HETATM   27  C4  UNL     1      27.250   4.890  48.631  1.00  0.00     0.030 A 
HETATM   28  C3  UNL     1      28.478   5.454  48.366  1.00  0.00     0.010 A 
HETATM   29  C2  UNL     1      28.629   6.829  48.504  1.00  0.00    -0.039 A 
HETATM   30  C1  UNL     1      29.943   7.443  48.213  1.00  0.00     0.050 C 
HETATM   31  C22 UNL     1      27.546   7.620  48.907  1.00  0.00     0.087 A 
HETATM   32  C21 UNL     1      26.319   7.000  49.164  1.00  0.00     0.055 A 
BRANCH  31  33
HETATM   33  S1  UNL     1      27.739   9.354  49.080  1.00  0.00     0.257 S 
HETATM   34  O1  UNL     1      26.466   9.917  49.641  1.00  0.00    -0.201 OA
HETATM   35  O2  UNL     1      27.896   9.966  47.705  1.00  0.00    -0.201 OA
BRANCH  33  36
HETATM   36  N8  UNL     1      29.036   9.807  50.070  1.00  0.00    -0.324 N 
HETATM   37  H27 UNL     1      29.348   9.165  50.788  1.00  0.00     0.169 HD
HETATM   38  H28 UNL     1      29.584  10.618  49.824  1.00  0.00     0.169 HD
ENDBRANCH  33  36
ENDBRANCH  31  33
ENDBRANCH  24  26
ENDBRANCH   1  24
TORSDOF 6
ENDMDL
MODEL 3
REMARK VINA RESULT:      -9.3      2.785      4.829
REMARK  6 active torsions:
REMARK  status: ('A' for Active; 'I' for Inactive)
REMARK    1  A    between atoms: C5_5  and  N1_6 
REMARK    2  A    between atoms: N1_6  and  C6_7 
REMARK    3  A    between atoms: C9_11  and  N3_12 
REMARK    4  A    between atoms: N3_12  and  C11_14 
REMARK    5  A    between atoms: C22_29  and  S1_30 
REMARK    6  A    between atoms: S1_30  and  N8_31 
ROOT
HETATM    1  C6  UNL     1      26.529   4.912  49.395  1.00  0.00     0.728 A 
HETATM    2  N2  UNL     1      25.743   5.774  50.095  1.00  0.00    -0.075 NA
HETATM    3  C7  UNL     1      25.849   7.102  49.905  1.00  0.00     0.140 A 
HETATM    4  C8  UNL     1      26.737   7.667  49.014  1.00  0.00     0.071 A 
HETATM    5  C9  UNL     1      27.524   6.775  48.316  1.00  0.00     0.150 A 
HETATM    6  N7  UNL     1      27.407   5.459  48.514  1.00  0.00    -0.045 NA
ENDROOT
BRANCH   5   7
HETATM    7  N3  UNL     1      28.468   7.331  47.378  1.00  0.00    -0.336 N 
HETATM    8  C10 UNL     1      28.225   8.168  46.203  1.00  0.00     0.158 C 
BRANCH   7   9
HETATM    9  C11 UNL     1      29.767   6.917  47.791  1.00  0.00     0.034 A 
HETATM   10  C12 UNL     1      30.461   7.600  48.669  1.00  0.00     0.008 A 
HETATM   11  C13 UNL     1      31.812   7.331  49.216  1.00  0.00     0.072 A 
HETATM   12  C14 UNL     1      32.344   6.104  48.623  1.00  0.00    -0.012 A 
HETATM   13  C15 UNL     1      33.544   5.916  49.161  1.00  0.00     0.092 C 
HETATM   14  C19 UNL     1      31.603   5.313  47.634  1.00  0.00     0.053 A 
HETATM   15  N4  UNL     1      34.591   4.951  49.050  1.00  0.00    -0.397 N 
HETATM   16  C16 UNL     1      34.824   3.978  47.976  1.00  0.00     0.135 C 
HETATM   17  H16 UNL     1      35.206   5.049  49.901  1.00  0.00     0.158 HD
HETATM   18  C17 UNL     1      33.635   3.058  47.973  1.00  0.00     0.132 C 
HETATM   19  N5  UNL     1      32.811   3.162  46.797  1.00  0.00    -0.234 NA
HETATM   20  C18 UNL     1      32.152   1.871  46.620  1.00  0.00     0.136 C 
HETATM   21  N6  UNL     1      31.809   4.121  46.878  1.00  0.00    -0.319 N 
HETATM   22  H24 UNL     1      31.051   3.867  46.209  1.00  0.00     0.181 HD
HETATM   23  C20 UNL     1      30.406   5.702  47.258  1.00  0.00     0.060 A 
ENDBRANCH   7   9
ENDBRANCH   5   7
BRANCH   1  24
HETATM   24  N1  UNL     1      26.624   3.497  49.413  1.00  0.00    -0.188 N 
HETATM   25  H6  UNL     1      27.181   2.932  48.723  1.00  0.00     0.184 HD
BRANCH  24  26
HETATM   26  C5  UNL     1      25.941   2.725  50.414  1.00  0.00     0.050 A 
HETATM   27  C4  UNL     1      24.573   2.593  50.481  1.00  0.00     0.030 A 
HETATM   28  C3  UNL     1      23.930   1.839  51.437  1.00  0.00     0.010 A 
HETATM   29  C2  UNL     1      24.693   1.170  52.389  1.00  0.00    -0.039 A 
HETATM   30  C1  UNL     1      24.009   0.350  53.413  1.00  0.00     0.050 C 
HETATM   31  C22 UNL     1      26.090   1.268  52.369  1.00  0.00     0.087 A 
HETATM   32  C21 UNL     1      26.696   2.047  51.378  1.00  0.00     0.055 A 
BRANCH  31  33
HETATM   33  S1  UNL     1      27.047   0.424  53.571  1.00  0.00     0.257 S 
HETATM   34  O1  UNL     1      26.692   0.968  54.924  1.00  0.00    -0.201 OA
HETATM   35  O2  UNL     1      28.506   0.763  53.356  1.00  0.00    -0.201 OA
BRANCH  33  36
HETATM   36  N8  UNL     1      26.833  -1.255  53.568  1.00  0.00    -0.324 N 
HETATM   37  H27 UNL     1      27.533  -1.835  53.121  1.00  0.00     0.169 HD
HETATM   38  H28 UNL     1      26.117  -1.662  54.151  1.00  0.00     0.169 HD
ENDBRANCH  33  36
ENDBRANCH  31  33
ENDBRANCH  24  26
ENDBRANCH   1  24
TORSDOF 6
ENDMDL
MODEL 4
REMARK VINA RESULT:      -9.3      3.205      7.565
REMARK  6 active torsions:
REMARK  status: ('A' for Active; 'I' for Inactive)
REMARK    1  A    between atoms: C5_5  and  N1_6 
REMARK    2  A    between atoms: N1_6  and  C6_7 
REMARK    3  A    between atoms: C9_11  and  N3_12 
REMARK    4  A    between atoms: N3_12  and  C11_14 
REMARK    5  A    between atoms: C22_29  and  S1_30 
REMARK    6  A    between atoms: S1_30  and  N8_31 
ROOT
HETATM    1  C6  UNL     1      25.830   5.482  49.694  1.00  0.00     0.728 A 
HETATM    2  N2  UNL     1      25.659   6.702  50.273  1.00  0.00    -0.075 NA
HETATM    3  C7  UNL     1      24.539   6.976  50.967  1.00  0.00     0.140 A 
HETATM    4  C8  UNL     1      23.514   6.068  51.133  1.00  0.00     0.071 A 
HETATM    5  C9  UNL     1      23.708   4.840  50.537  1.00  0.00     0.150 A 
HETATM    6  N7  UNL     1      24.826   4.581  49.852  1.00  0.00    -0.045 NA
ENDROOT
BRANCH   5   7
HETATM    7  N3  UNL     1      22.655   3.867  50.686  1.00  0.00    -0.336 N 
HETATM    8  C10 UNL     1      21.298   3.877  50.137  1.00  0.00     0.158 C 
BRANCH   7   9
HETATM    9  C11 UNL     1      23.160   2.817  51.505  1.00  0.00     0.034 A 
HETATM   10  C12 UNL     1      22.492   1.705  51.690  1.00  0.00     0.008 A 
HETATM   11  C13 UNL     1      22.849   0.514  52.496  1.00  0.00     0.072 A 
HETATM   12  C14 UNL     1      24.154   0.722  53.123  1.00  0.00    -0.012 A 
HETATM   13  C15 UNL     1      24.419  -0.380  53.816  1.00  0.00     0.092 C 
HETATM   14  C19 UNL     1      24.933   1.953  52.947  1.00  0.00     0.053 A 
HETATM   15  N4  UNL     1      25.481  -0.854  54.645  1.00  0.00    -0.397 N 
HETATM   16  C16 UNL     1      26.537  -0.079  55.308  1.00  0.00     0.135 C 
HETATM   17  H16 UNL     1      25.388  -1.902  54.713  1.00  0.00     0.158 HD
HETATM   18  C17 UNL     1      27.341   0.564  54.213  1.00  0.00     0.132 C 
HETATM   19  N5  UNL     1      27.235   1.999  54.167  1.00  0.00    -0.234 NA
HETATM   20  C18 UNL     1      28.468   2.502  53.567  1.00  0.00     0.136 C 
HETATM   21  N6  UNL     1      26.184   2.475  53.393  1.00  0.00    -0.319 N 
HETATM   22  H24 UNL     1      26.408   3.447  53.089  1.00  0.00     0.181 HD
HETATM   23  C20 UNL     1      24.460   2.917  52.191  1.00  0.00     0.060 A 
ENDBRANCH   7   9
ENDBRANCH   5   7
BRANCH   1  24
HETATM   24  N1  UNL     1      26.888   4.951  48.914  1.00  0.00    -0.188 N 
HETATM   25  H6  UNL     1      27.038   3.924  48.741  1.00  0.00     0.184 HD
BRANCH  24  26
HETATM   26  C5  UNL     1      27.852   5.815  48.291  1.00  0.00     0.050 A 
HETATM   27  C4  UNL     1      27.532   6.999  47.669  1.00  0.00     0.030 A 
HETATM   28  C3  UNL     1      28.467   7.826  47.085  1.00  0.00     0.010 A 
HETATM   29  C2  UNL     1      29.807   7.455  47.123  1.00  0.00    -0.039 A 
HETATM   30  C1  UNL     1      30.817   8.343  46.506  1.00  0.00     0.050 C 
HETATM   31  C22 UNL     1      30.191   6.259  47.742  1.00  0.00     0.087 A 
HETATM   32  C21 UNL     1      29.204   5.453  48.319  1.00  0.00     0.055 A 
BRANCH  31  33
HETATM   33  S1  UNL     1      31.881   5.795  47.785  1.00  0.00     0.257 S 
HETATM   34  O1  UNL     1      31.987   4.464  48.472  1.00  0.00    -0.201 OA
HETATM   35  O2  UNL     1      32.632   6.776  48.659  1.00  0.00    -0.201 OA
BRANCH  33  36
HETATM   36  N8  UNL     1      32.608   5.698  46.260  1.00  0.00    -0.324 N 
HETATM   37  H27 UNL     1      33.326   5.001  46.106  1.00  0.00     0.169 HD
HETATM   38  H28 UNL     1      32.205   6.207  45.487  1.00  0.00     0.169 HD
ENDBRANCH  33  36
ENDBRANCH  31  33
ENDBRANCH  24  26
ENDBRANCH   1  24
TORSDOF 6
ENDMDL
MODEL 5
REMARK VINA RESULT:      -9.3      3.801      8.466
REMARK  6 active torsions:
REMARK  status: ('A' for Active; 'I' for Inactive)
REMARK    1  A    between atoms: C5_5  and  N1_6 
REMARK    2  A    between atoms: N1_6  and  C6_7 
REMARK    3  A    between atoms: C9_11  and  N3_12 
REMARK    4  A    between atoms: N3_12  and  C11_14 
REMARK    5  A    between atoms: C22_29  and  S1_30 
REMARK    6  A    between atoms: S1_30  and  N8_31 
ROOT
HETATM    1  C6  UNL     1      25.641   6.640  50.180  1.00  0.00     0.728 A 
HETATM    2  N2  UNL     1      25.949   5.961  49.042  1.00  0.00    -0.075 NA
HETATM    3  C7  UNL     1      25.266   4.853  48.704  1.00  0.00     0.140 A 
HETATM    4  C8  UNL     1      24.236   4.340  49.466  1.00  0.00     0.071 A 
HETATM    5  C9  UNL     1      23.942   5.044  50.614  1.00  0.00     0.150 A 
HETATM    6  N7  UNL     1      24.628   6.143  50.937  1.00  0.00    -0.045 NA
ENDROOT
BRANCH   5   7
HETATM    7  N3  UNL     1      22.875   4.534  51.438  1.00  0.00    -0.336 N 
HETATM    8  C10 UNL     1      21.530   5.071  51.653  1.00  0.00     0.158 C 
BRANCH   7   9
HETATM    9  C11 UNL     1      23.351   3.344  52.059  1.00  0.00     0.034 A 
HETATM   10  C12 UNL     1      22.623   2.254  52.110  1.00  0.00     0.008 A 
HETATM   11  C13 UNL     1      22.942   0.935  52.705  1.00  0.00     0.072 A 
HETATM   12  C14 UNL     1      24.285   0.972  53.283  1.00  0.00    -0.012 A 
HETATM   13  C15 UNL     1      24.512  -0.236  53.786  1.00  0.00     0.092 C 
HETATM   14  C19 UNL     1      25.131   2.171  53.253  1.00  0.00     0.053 A 
HETATM   15  N4  UNL     1      25.579  -0.891  54.473  1.00  0.00    -0.397 N 
HETATM   16  C16 UNL     1      26.711  -0.286  55.187  1.00  0.00     0.135 C 
HETATM   17  H16 UNL     1      25.424  -1.930  54.386  1.00  0.00     0.158 HD
HETATM   18  C17 UNL     1      27.503   0.473  54.159  1.00  0.00     0.132 C 
HETATM   19  N5  UNL     1      27.484   1.902  54.338  1.00  0.00    -0.234 NA
HETATM   20  C18 UNL     1      28.718   2.423  53.754  1.00  0.00     0.136 C 
HETATM   21  N6  UNL     1      26.431   2.549  53.703  1.00  0.00    -0.319 N 
HETATM   22  H24 UNL     1      26.701   3.542  53.539  1.00  0.00     0.181 HD
HETATM   23  C20 UNL     1      24.684   3.265  52.679  1.00  0.00     0.060 A 
ENDBRANCH   7   9
ENDBRANCH   5   7
BRANCH   1  24
HETATM   24  N1  UNL     1      26.202   7.806  50.762  1.00  0.00    -0.188 N 
HETATM   25  H6  UNL     1      26.369   7.932  51.792  1.00  0.00     0.184 HD
BRANCH  24  26
HETATM   26  C5  UNL     1      26.590   8.924  49.947  1.00  0.00     0.050 A 
HETATM   27  C4  UNL     1      25.701   9.723  49.266  1.00  0.00     0.030 A 
HETATM   28  C3  UNL     1      26.084  10.800  48.498  1.00  0.00     0.010 A 
HETATM   29  C2  UNL     1      27.437  11.106  48.399  1.00  0.00    -0.039 A 
HETATM   30  C1  UNL     1      27.855  12.268  47.583  1.00  0.00     0.050 C 
HETATM   31  C22 UNL     1      28.388  10.326  49.070  1.00  0.00     0.087 A 
HETATM   32  C21 UNL     1      27.948   9.242  49.836  1.00  0.00     0.055 A 
BRANCH  31  33
HETATM   33  S1  UNL     1      30.093  10.715  48.941  1.00  0.00     0.257 S 
HETATM   34  O1  UNL     1      30.491  10.618  47.497  1.00  0.00    -0.201 OA
HETATM   35  O2  UNL     1      30.889   9.651  49.665  1.00  0.00    -0.201 OA
BRANCH  33  36
HETATM   36  N8  UNL     1      30.497  12.248  49.533  1.00  0.00    -0.324 N 
HETATM   37  H27 UNL     1      31.398  12.378  49.975  1.00  0.00     0.169 HD
HETATM   38  H28 UNL     1      29.921  13.040  49.286  1.00  0.00     0.169 HD
ENDBRANCH  33  36
ENDBRANCH  31  33
ENDBRANCH  24  26
ENDBRANCH   1  24
TORSDOF 6
ENDMDL
MODEL 6
REMARK VINA RESULT:      -9.2      3.843      7.741
REMARK  6 active torsions:
REMARK  status: ('A' for Active; 'I' for Inactive)
REMARK    1  A    between atoms: C5_5  and  N1_6 
REMARK    2  A    between atoms: N1_6  and  C6_7 
REMARK    3  A    between atoms: C9_11  and  N3_12 
REMARK    4  A    between atoms: N3_12  and  C11_14 
REMARK    5  A    between atoms: C22_29  and  S1_30 
REMARK    6  A    between atoms: S1_30  and  N8_31 
ROOT
HETATM    1  C6  UNL     1      25.117   6.244  49.426  1.00  0.00     0.728 A 
HETATM    2  N2  UNL     1      24.941   6.913  50.598  1.00  0.00    -0.075 NA
HETATM    3  C7  UNL     1      24.121   6.424  51.546  1.00  0.00     0.140 A 
HETATM    4  C8  UNL     1      23.420   5.244  51.400  1.00  0.00     0.071 A 
HETATM    5  C9  UNL     1      23.613   4.584  50.206  1.00  0.00     0.150 A 
HETATM    6  N7  UNL     1      24.431   5.081  49.274  1.00  0.00    -0.045 NA
ENDROOT
BRANCH   5   7
HETATM    7  N3  UNL     1      22.891   3.350  50.017  1.00  0.00    -0.336 N 
HETATM    8  C10 UNL     1      21.867   3.016  49.026  1.00  0.00     0.158 C 
BRANCH   7   9
HETATM    9  C11 UNL     1      23.351   2.435  51.007  1.00  0.00     0.034 A 
HETATM   10  C12 UNL     1      22.670   1.360  51.320  1.00  0.00     0.008 A 
HETATM   11  C13 UNL     1      22.982   0.302  52.310  1.00  0.00     0.072 A 
HETATM   12  C14 UNL     1      24.256   0.606  52.964  1.00  0.00    -0.012 A 
HETATM   13  C15 UNL     1      24.481  -0.380  53.825  1.00  0.00     0.092 C 
HETATM   14  C19 UNL     1      25.047   1.801  52.647  1.00  0.00     0.053 A 
HETATM   15  N4  UNL     1      25.498  -0.723  54.767  1.00  0.00    -0.397 N 
HETATM   16  C16 UNL     1      26.522   0.146  55.360  1.00  0.00     0.135 C 
HETATM   17  H16 UNL     1      25.398  -1.749  54.984  1.00  0.00     0.158 HD
HETATM   18  C17 UNL     1      27.383   0.623  54.224  1.00  0.00     0.132 C 
HETATM   19  N5  UNL     1      27.284   2.035  53.961  1.00  0.00    -0.234 NA
HETATM   20  C18 UNL     1      28.548   2.448  53.356  1.00  0.00     0.136 C 
HETATM   21  N6  UNL     1      26.276   2.387  53.073  1.00  0.00    -0.319 N 
HETATM   22  H24 UNL     1      26.518   3.305  52.641  1.00  0.00     0.181 HD
HETATM   23  C20 UNL     1      24.615   2.640  51.734  1.00  0.00     0.060 A 
ENDBRANCH   7   9
ENDBRANCH   5   7
BRANCH   1  24
HETATM   24  N1  UNL     1      25.899   6.541  48.281  1.00  0.00    -0.188 N 
HETATM   25  H6  UNL     1      25.505   6.682  47.316  1.00  0.00     0.184 HD
BRANCH  24  26
HETATM   26  C5  UNL     1      27.326   6.675  48.376  1.00  0.00     0.050 A 
HETATM   27  C4  UNL     1      28.203   5.618  48.293  1.00  0.00     0.030 A 
HETATM   28  C3  UNL     1      29.570   5.760  48.372  1.00  0.00     0.010 A 
HETATM   29  C2  UNL     1      30.104   7.032  48.543  1.00  0.00    -0.039 A 
HETATM   30  C1  UNL     1      31.573   7.193  48.619  1.00  0.00     0.050 C 
HETATM   31  C22 UNL     1      29.259   8.145  48.635  1.00  0.00     0.087 A 
HETATM   32  C21 UNL     1      27.877   7.949  48.550  1.00  0.00     0.055 A 
BRANCH  31  33
HETATM   33  S1  UNL     1      29.936   9.748  48.852  1.00  0.00     0.257 S 
HETATM   34  O1  UNL     1      28.827  10.750  48.719  1.00  0.00    -0.201 OA
HETATM   35  O2  UNL     1      30.891  10.030  47.713  1.00  0.00    -0.201 OA
BRANCH  33  36
HETATM   36  N8  UNL     1      30.719   9.970  50.336  1.00  0.00    -0.324 N 
HETATM   37  H27 UNL     1      30.225   9.733  51.188  1.00  0.00     0.169 HD
HETATM   38  H28 UNL     1      31.709  10.166  50.348  1.00  0.00     0.169 HD
ENDBRANCH  33  36
ENDBRANCH  31  33
ENDBRANCH  24  26
ENDBRANCH   1  24
TORSDOF 6
ENDMDL
MODEL 7
REMARK VINA RESULT:      -9.2      3.787      7.672
REMARK  6 active torsions:
REMARK  status: ('A' for Active; 'I' for Inactive)
REMARK    1  A    between atoms: C5_5  and  N1_6 
REMARK    2  A    between atoms: N1_6  and  C6_7 
REMARK    3  A    between atoms: C9_11  and  N3_12 
REMARK    4  A    between atoms: N3_12  and  C11_14 
REMARK    5  A    between atoms: C22_29  and  S1_30 
REMARK    6  A    between atoms: S1_30  and  N8_31 
ROOT
HETATM    1  C6  UNL     1      22.805   3.844  49.205  1.00  0.00     0.728 A 
HETATM    2  N2  UNL     1      22.669   3.180  48.025  1.00  0.00    -0.075 NA
HETATM    3  C7  UNL     1      21.910   2.072  47.949  1.00  0.00     0.140 A 
HETATM    4  C8  UNL     1      21.236   1.545  49.032  1.00  0.00     0.071 A 
HETATM    5  C9  UNL     1      21.389   2.233  50.217  1.00  0.00     0.150 A 
HETATM    6  N7  UNL     1      22.146   3.332  50.277  1.00  0.00    -0.045 NA
ENDROOT
BRANCH   5   7
HETATM    7  N3  UNL     1      20.704   1.707  51.371  1.00  0.00    -0.336 N 
HETATM    8  C10 UNL     1      19.283   1.776  51.718  1.00  0.00     0.158 C 
BRANCH   7   9
HETATM    9  C11 UNL     1      21.679   1.064  52.186  1.00  0.00     0.034 A 
HETATM   10  C12 UNL     1      21.402  -0.026  52.861  1.00  0.00     0.008 A 
HETATM   11  C13 UNL     1      22.272  -0.829  53.751  1.00  0.00     0.072 A 
HETATM   12  C14 UNL     1      23.606  -0.228  53.802  1.00  0.00    -0.012 A 
HETATM   13  C15 UNL     1      24.335  -0.998  54.602  1.00  0.00     0.092 C 
HETATM   14  C19 UNL     1      23.956   0.993  53.067  1.00  0.00     0.053 A 
HETATM   15  N4  UNL     1      25.678  -1.012  55.088  1.00  0.00    -0.397 N 
HETATM   16  C16 UNL     1      26.646   0.091  55.122  1.00  0.00     0.135 C 
HETATM   17  H16 UNL     1      25.880  -1.985  55.437  1.00  0.00     0.158 HD
HETATM   18  C17 UNL     1      26.901   0.476  53.692  1.00  0.00     0.132 C 
HETATM   19  N5  UNL     1      26.422   1.787  53.339  1.00  0.00    -0.234 NA
HETATM   20  C18 UNL     1      27.253   2.265  52.237  1.00  0.00     0.136 C 
HETATM   21  N6  UNL     1      25.105   1.821  52.898  1.00  0.00    -0.319 N 
HETATM   22  H24 UNL     1      24.973   2.670  52.308  1.00  0.00     0.181 HD
HETATM   23  C20 UNL     1      23.051   1.580  52.318  1.00  0.00     0.060 A 
ENDBRANCH   7   9
ENDBRANCH   5   7
BRANCH   1  24
HETATM   24  N1  UNL     1      23.541   5.005  49.552  1.00  0.00    -0.188 N 
HETATM   25  H6  UNL     1      23.129   5.846  50.031  1.00  0.00     0.184 HD
BRANCH  24  26
HETATM   26  C5  UNL     1      24.945   5.105  49.262  1.00  0.00     0.050 A 
HETATM   27  C4  UNL     1      25.811   4.036  49.287  1.00  0.00     0.030 A 
HETATM   28  C3  UNL     1      27.153   4.141  48.994  1.00  0.00     0.010 A 
HETATM   29  C2  UNL     1      27.670   5.386  48.652  1.00  0.00    -0.039 A 
HETATM   30  C1  UNL     1      29.108   5.504  48.327  1.00  0.00     0.050 C 
HETATM   31  C22 UNL     1      26.834   6.510  48.611  1.00  0.00     0.087 A 
HETATM   32  C21 UNL     1      25.479   6.351  48.918  1.00  0.00     0.055 A 
BRANCH  31  33
HETATM   33  S1  UNL     1      27.490   8.078  48.182  1.00  0.00     0.257 S 
HETATM   34  O1  UNL     1      26.365   9.071  48.167  1.00  0.00    -0.201 OA
HETATM   35  O2  UNL     1      28.009   8.015  46.761  1.00  0.00    -0.201 OA
BRANCH  33  36
HETATM   36  N8  UNL     1      28.708   8.625  49.223  1.00  0.00    -0.324 N 
HETATM   37  H27 UNL     1      29.221   9.461  48.975  1.00  0.00     0.169 HD
HETATM   38  H28 UNL     1      28.787   8.220  50.144  1.00  0.00     0.169 HD
ENDBRANCH  33  36
ENDBRANCH  31  33
ENDBRANCH  24  26
ENDBRANCH   1  24
TORSDOF 6
ENDMDL
MODEL 8
REMARK VINA RESULT:      -9.1      1.818      3.050
REMARK  6 active torsions:
REMARK  status: ('A' for Active; 'I' for Inactive)
REMARK    1  A    between atoms: C5_5  and  N1_6 
REMARK    2  A    between atoms: N1_6  and  C6_7 
REMARK    3  A    between atoms: C9_11  and  N3_12 
REMARK    4  A    between atoms: N3_12  and  C11_14 
REMARK    5  A    between atoms: C22_29  and  S1_30 
REMARK    6  A    between atoms: S1_30  and  N8_31 
ROOT
HETATM    1  C6  UNL     1      24.350   4.320  50.511  1.00  0.00     0.728 A 
HETATM    2  N2  UNL     1      23.965   5.067  51.581  1.00  0.00    -0.075 NA
HETATM    3  C7  UNL     1      24.104   6.405  51.564  1.00  0.00     0.140 A 
HETATM    4  C8  UNL     1      24.632   7.094  50.492  1.00  0.00     0.071 A 
HETATM    5  C9  UNL     1      25.016   6.318  49.420  1.00  0.00     0.150 A 
HETATM    6  N7  UNL     1      24.871   4.991  49.450  1.00  0.00    -0.045 NA
ENDROOT
BRANCH   5   7
HETATM    7  N3  UNL     1      25.577   7.005  48.283  1.00  0.00    -0.336 N 
HETATM    8  C10 UNL     1      24.901   7.766  47.231  1.00  0.00     0.158 C 
BRANCH   7   9
HETATM    9  C11 UNL     1      26.989   6.824  48.334  1.00  0.00     0.034 A 
HETATM   10  C12 UNL     1      27.532   5.631  48.302  1.00  0.00     0.008 A 
HETATM   11  C13 UNL     1      28.962   5.246  48.343  1.00  0.00     0.072 A 
HETATM   12  C14 UNL     1      29.790   6.449  48.428  1.00  0.00    -0.012 A 
HETATM   13  C15 UNL     1      31.053   6.037  48.450  1.00  0.00     0.092 C 
HETATM   14  C19 UNL     1      29.223   7.802  48.473  1.00  0.00     0.053 A 
HETATM   15  N4  UNL     1      32.342   6.646  48.521  1.00  0.00    -0.397 N 
HETATM   16  C16 UNL     1      32.686   8.003  48.964  1.00  0.00     0.135 C 
HETATM   17  H16 UNL     1      33.048   5.937  48.191  1.00  0.00     0.158 HD
HETATM   18  C17 UNL     1      32.017   8.945  48.003  1.00  0.00     0.132 C 
HETATM   19  N5  UNL     1      30.966   9.736  48.587  1.00  0.00    -0.234 NA
HETATM   20  C18 UNL     1      30.872  10.968  47.808  1.00  0.00     0.136 C 
HETATM   21  N6  UNL     1      29.711   9.140  48.557  1.00  0.00    -0.319 N 
HETATM   22  H24 UNL     1      28.986   9.888  48.611  1.00  0.00     0.181 HD
HETATM   23  C20 UNL     1      27.920   7.961  48.426  1.00  0.00     0.060 A 
ENDBRANCH   7   9
ENDBRANCH   5   7
BRANCH   1  24
HETATM   24  N1  UNL     1      24.324   2.921  50.281  1.00  0.00    -0.188 N 
HETATM   25  H6  UNL     1      24.202   2.479  49.334  1.00  0.00     0.184 HD
BRANCH  24  26
HETATM   26  C5  UNL     1      24.472   1.991  51.366  1.00  0.00     0.050 A 
HETATM   27  C4  UNL     1      23.429   1.284  51.918  1.00  0.00     0.030 A 
HETATM   28  C3  UNL     1      23.585   0.385  52.950  1.00  0.00     0.010 A 
HETATM   29  C2  UNL     1      24.858   0.173  53.468  1.00  0.00    -0.039 A 
HETATM   30  C1  UNL     1      25.033  -0.798  54.571  1.00  0.00     0.050 C 
HETATM   31  C22 UNL     1      25.957   0.867  52.947  1.00  0.00     0.087 A 
HETATM   32  C21 UNL     1      25.747   1.770  51.899  1.00  0.00     0.055 A 
BRANCH  31  33
HETATM   33  S1  UNL     1      27.559   0.598  53.605  1.00  0.00     0.257 S 
HETATM   34  O1  UNL     1      27.554   1.016  55.046  1.00  0.00    -0.201 OA
HETATM   35  O2  UNL     1      28.533   1.522  52.906  1.00  0.00    -0.201 OA
BRANCH  33  36
HETATM   36  N8  UNL     1      28.092  -1.005  53.488  1.00  0.00    -0.324 N 
HETATM   37  H27 UNL     1      27.929  -1.630  54.267  1.00  0.00     0.169 HD
HETATM   38  H28 UNL     1      28.402  -1.358  52.595  1.00  0.00     0.169 HD
ENDBRANCH  33  36
ENDBRANCH  31  33
ENDBRANCH  24  26
ENDBRANCH   1  24
TORSDOF 6
ENDMDL
MODEL 9
REMARK VINA RESULT:      -9.0      2.004      3.060
REMARK  6 active torsions:
REMARK  status: ('A' for Active; 'I' for Inactive)
REMARK    1  A    between atoms: C5_5  and  N1_6 
REMARK    2  A    between atoms: N1_6  and  C6_7 
REMARK    3  A    between atoms: C9_11  and  N3_12 
REMARK    4  A    between atoms: N3_12  and  C11_14 
REMARK    5  A    between atoms: C22_29  and  S1_30 
REMARK    6  A    between atoms: S1_30  and  N8_31 
ROOT
HETATM    1  C6  UNL     1      25.336   4.656  50.054  1.00  0.00     0.728 A 
HETATM    2  N2  UNL     1      24.572   5.288  50.986  1.00  0.00    -0.075 NA
HETATM    3  C7  UNL     1      24.355   6.613  50.906  1.00  0.00     0.140 A 
HETATM    4  C8  UNL     1      24.877   7.402  49.902  1.00  0.00     0.071 A 
HETATM    5  C9  UNL     1      25.648   6.742  48.970  1.00  0.00     0.150 A 
HETATM    6  N7  UNL     1      25.855   5.426  49.062  1.00  0.00    -0.045 NA
ENDROOT
BRANCH   5   7
HETATM    7  N3  UNL     1      26.215   7.537  47.909  1.00  0.00    -0.336 N 
HETATM    8  C10 UNL     1      25.573   8.079  46.710  1.00  0.00     0.158 C 
BRANCH   7   9
HETATM    9  C11 UNL     1      27.591   7.735  48.218  1.00  0.00     0.034 A 
HETATM   10  C12 UNL     1      27.994   8.740  48.958  1.00  0.00     0.008 A 
HETATM   11  C13 UNL     1      29.365   9.107  49.383  1.00  0.00     0.072 A 
HETATM   12  C14 UNL     1      30.319   8.137  48.844  1.00  0.00    -0.012 A 
HETATM   13  C15 UNL     1      31.520   8.515  49.269  1.00  0.00     0.092 C 
HETATM   14  C19 UNL     1      29.912   7.002  48.008  1.00  0.00     0.053 A 
HETATM   15  N4  UNL     1      32.863   8.049  49.132  1.00  0.00    -0.397 N 
HETATM   16  C16 UNL     1      33.411   7.130  48.126  1.00  0.00     0.135 C 
HETATM   17  H16 UNL     1      33.432   8.488  49.903  1.00  0.00     0.158 HD
HETATM   18  C17 UNL     1      32.709   5.816  48.326  1.00  0.00     0.132 C 
HETATM   19  N5  UNL     1      31.847   5.437  47.237  1.00  0.00    -0.234 NA
HETATM   20  C18 UNL     1      31.769   3.978  47.240  1.00  0.00     0.136 C 
HETATM   21  N6  UNL     1      30.545   5.913  47.339  1.00  0.00    -0.319 N 
HETATM   22  H24 UNL     1      29.920   5.296  46.777  1.00  0.00     0.181 HD
HETATM   23  C20 UNL     1      28.641   6.827  47.727  1.00  0.00     0.060 A 
ENDBRANCH   7   9
ENDBRANCH   5   7
BRANCH   1  24
HETATM   24  N1  UNL     1      25.723   3.299  49.916  1.00  0.00    -0.188 N 
HETATM   25  H6  UNL     1      26.155   2.891  49.048  1.00  0.00     0.184 HD
BRANCH  24  26
HETATM   26  C5  UNL     1      25.545   2.367  50.995  1.00  0.00     0.050 A 
HETATM   27  C4  UNL     1      24.324   1.863  51.380  1.00  0.00     0.030 A 
HETATM   28  C3  UNL     1      24.166   0.960  52.408  1.00  0.00     0.010 A 
HETATM   29  C2  UNL     1      25.292   0.527  53.099  1.00  0.00    -0.039 A 
HETATM   30  C1  UNL     1      25.131  -0.451  54.198  1.00  0.00     0.050 C 
HETATM   31  C22 UNL     1      26.561   1.007  52.752  1.00  0.00     0.087 A 
HETATM   32  C21 UNL     1      26.669   1.923  51.701  1.00  0.00     0.055 A 
BRANCH  31  33
HETATM   33  S1  UNL     1      27.979   0.459  53.626  1.00  0.00     0.257 S 
HETATM   34  O1  UNL     1      27.824   0.850  55.067  1.00  0.00    -0.201 OA
HETATM   35  O2  UNL     1      29.187   1.214  53.116  1.00  0.00    -0.201 OA
BRANCH  33  36
HETATM   36  N8  UNL     1      28.249  -1.209  53.524  1.00  0.00    -0.324 N 
HETATM   37  H27 UNL     1      27.480  -1.813  53.263  1.00  0.00     0.169 HD
HETATM   38  H28 UNL     1      29.196  -1.558  53.552  1.00  0.00     0.169 HD
ENDBRANCH  33  36
ENDBRANCH  31  33
ENDBRANCH  24  26
ENDBRANCH   1  24
TORSDOF 6
ENDMDL
