MODEL 1
REMARK VINA RESULT:      -8.1      0.000      0.000
REMARK  4 active torsions:
REMARK  status: ('A' for Active; 'I' for Inactive)
REMARK    1  A    between atoms: C4_6  and  N3_7 
REMARK    2  A    between atoms: C7_10  and  O1_11 
REMARK    3  A    between atoms: O1_11  and  C8_12 
REMARK    4  A    between atoms: C8_12  and  C9_13 
ROOT
HETATM    1  N3  UNL     1      25.440   0.951  53.210  1.00  0.00    -0.360 N 
HETATM    2  C5  UNL     1      24.951   1.503  51.963  1.00  0.00     0.154 C 
HETATM    3  C6  UNL     1      23.532   1.144  51.706  1.00  0.00     0.026 C 
HETATM    4  C7  UNL     1      22.836   0.281  52.436  1.00  0.00     0.064 C 
HETATM    5  C15 UNL     1      23.530  -0.363  53.584  1.00  0.00     0.156 C 
HETATM    6 CL1  UNL     1      22.443  -1.092  54.737  1.00  0.00    -0.116 Cl
HETATM    7  C16 UNL     1      24.404   0.726  54.203  1.00  0.00     0.151 C 
ENDROOT
BRANCH   4   8
HETATM    8  O1  UNL     1      21.543   0.129  51.984  1.00  0.00    -0.350 OA
BRANCH   8   9
HETATM    9  C8  UNL     1      20.474   1.000  52.166  1.00  0.00     0.214 C 
BRANCH   9  10
HETATM   10  C9  UNL     1      19.242   0.137  52.250  1.00  0.00    -0.031 A 
HETATM   11  C10 UNL     1      18.162   0.278  51.424  1.00  0.00     0.009 A 
HETATM   12  C11 UNL     1      17.045  -0.524  51.519  1.00  0.00     0.004 A 
HETATM   13  C12 UNL     1      17.033  -1.497  52.486  1.00  0.00     0.042 A 
HETATM   14  C13 UNL     1      18.078  -1.711  53.361  1.00  0.00     0.117 A 
HETATM   15  F1  UNL     1      18.107  -2.652  54.323  1.00  0.00    -0.206 F 
HETATM   16  C14 UNL     1      19.153  -0.875  53.206  1.00  0.00     0.051 A 
ENDBRANCH   9  10
ENDBRANCH   8   9
ENDBRANCH   4   8
BRANCH   1  17
HETATM   17  C4  UNL     1      26.815   0.660  53.431  1.00  0.00     0.135 A 
HETATM   18  N2  UNL     1      27.582   1.670  53.935  1.00  0.00    -0.224 NA
HETATM   19  C3  UNL     1      28.894   1.517  54.186  1.00  0.00     0.235 A 
HETATM   20  N1  UNL     1      29.508   0.330  53.940  1.00  0.00    -0.246 NA
HETATM   21  C2  UNL     1      28.778  -0.702  53.436  1.00  0.00     0.041 A 
HETATM   22  C1  UNL     1      29.432  -2.012  53.158  1.00  0.00     0.071 C 
HETATM   23  C17 UNL     1      27.432  -0.556  53.175  1.00  0.00     0.008 A 
HETATM   24  C18 UNL     1      26.587  -1.640  52.628  1.00  0.00     0.054 C 
ENDBRANCH   1  17
TORSDOF 4
ENDMDL
MODEL 2
REMARK VINA RESULT:      -7.9      1.193      1.754
REMARK  4 active torsions:
REMARK  status: ('A' for Active; 'I' for Inactive)
REMARK    1  A    between atoms: C4_6  and  N3_7 
REMARK    2  A    between atoms: C7_10  and  O1_11 
REMARK    3  A    between atoms: O1_11  and  C8_12 
REMARK    4  A    between atoms: C8_12  and  C9_13 
ROOT
HETATM    1  N3  UNL     1      25.415   0.154  53.172  1.00  0.00    -0.360 N 
HETATM    2  C5  UNL     1      25.026   1.025  52.082  1.00  0.00     0.154 C 
HETATM    3  C6  UNL     1      23.549   1.162  51.969  1.00  0.00     0.026 C 
HETATM    4  C7  UNL     1      22.678   0.445  52.667  1.00  0.00     0.064 C 
HETATM    5  C15 UNL     1      23.223  -0.560  53.621  1.00  0.00     0.156 C 
HETATM    6 CL1  UNL     1      22.061  -1.103  54.803  1.00  0.00    -0.116 Cl
HETATM    7  C16 UNL     1      24.448   0.094  54.255  1.00  0.00     0.151 C 
ENDROOT
BRANCH   4   8
HETATM    8  O1  UNL     1      21.372   0.769  52.373  1.00  0.00    -0.350 OA
BRANCH   8   9
HETATM    9  C8  UNL     1      20.772   0.814  51.119  1.00  0.00     0.214 C 
BRANCH   9  10
HETATM   10  C9  UNL     1      19.370   0.294  51.308  1.00  0.00    -0.031 A 
HETATM   11  C10 UNL     1      18.374   0.453  50.386  1.00  0.00     0.009 A 
HETATM   12  C11 UNL     1      17.098  -0.031  50.580  1.00  0.00     0.004 A 
HETATM   13  C12 UNL     1      16.835  -0.697  51.750  1.00  0.00     0.042 A 
HETATM   14  C13 UNL     1      17.779  -0.904  52.735  1.00  0.00     0.117 A 
HETATM   15  F1  UNL     1      17.564  -1.551  53.896  1.00  0.00    -0.206 F 
HETATM   16  C14 UNL     1      19.023  -0.394  52.471  1.00  0.00     0.051 A 
ENDBRANCH   9  10
ENDBRANCH   8   9
ENDBRANCH   4   8
BRANCH   1  17
HETATM   17  C4  UNL     1      26.637  -0.574  53.170  1.00  0.00     0.135 A 
HETATM   18  N2  UNL     1      26.560  -1.901  52.860  1.00  0.00    -0.224 NA
HETATM   19  C3  UNL     1      27.646  -2.694  52.825  1.00  0.00     0.235 A 
HETATM   20  N1  UNL     1      28.876  -2.188  53.103  1.00  0.00    -0.246 NA
HETATM   21  C2  UNL     1      28.995  -0.870  53.418  1.00  0.00     0.041 A 
HETATM   22  C1  UNL     1      30.335  -0.296  53.727  1.00  0.00     0.071 C 
HETATM   23  C17 UNL     1      27.888  -0.048  53.457  1.00  0.00     0.008 A 
HETATM   24  C18 UNL     1      27.956   1.391  53.791  1.00  0.00     0.054 C 
ENDBRANCH   1  17
TORSDOF 4
ENDMDL
MODEL 3
REMARK VINA RESULT:      -7.9      1.087      1.294
REMARK  4 active torsions:
REMARK  status: ('A' for Active; 'I' for Inactive)
REMARK    1  A    between atoms: C4_6  and  N3_7 
REMARK    2  A    between atoms: C7_10  and  O1_11 
REMARK    3  A    between atoms: O1_11  and  C8_12 
REMARK    4  A    between atoms: C8_12  and  C9_13 
ROOT
HETATM    1  N3  UNL     1      25.776   1.743  52.744  1.00  0.00    -0.360 N 
HETATM    2  C5  UNL     1      25.533   2.302  51.429  1.00  0.00     0.154 C 
HETATM    3  C6  UNL     1      24.145   2.051  50.959  1.00  0.00     0.026 C 
HETATM    4  C7  UNL     1      23.276   1.265  51.582  1.00  0.00     0.064 C 
HETATM    5  C15 UNL     1      23.730   0.595  52.831  1.00  0.00     0.156 C 
HETATM    6 CL1  UNL     1      22.422  -0.016  53.809  1.00  0.00    -0.116 Cl
HETATM    7  C16 UNL     1      24.584   1.626  53.566  1.00  0.00     0.151 C 
ENDROOT
BRANCH   4   8
HETATM    8  O1  UNL     1      22.061   1.205  50.936  1.00  0.00    -0.350 OA
BRANCH   8   9
HETATM    9  C8  UNL     1      20.983   2.073  51.077  1.00  0.00     0.214 C 
BRANCH   9  10
HETATM   10  C9  UNL     1      19.748   1.209  51.075  1.00  0.00    -0.031 A 
HETATM   11  C10 UNL     1      18.835   1.197  50.058  1.00  0.00     0.009 A 
HETATM   12  C11 UNL     1      17.713   0.398  50.077  1.00  0.00     0.004 A 
HETATM   13  C12 UNL     1      17.519  -0.412  51.167  1.00  0.00     0.042 A 
HETATM   14  C13 UNL     1      18.388  -0.465  52.237  1.00  0.00     0.117 A 
HETATM   15  F1  UNL     1      18.237  -1.244  53.325  1.00  0.00    -0.206 F 
HETATM   16  C14 UNL     1      19.480   0.357  52.147  1.00  0.00     0.051 A 
ENDBRANCH   9  10
ENDBRANCH   8   9
ENDBRANCH   4   8
BRANCH   1  17
HETATM   17  C4  UNL     1      27.072   1.349  53.179  1.00  0.00     0.135 A 
HETATM   18  N2  UNL     1      27.837   2.308  53.776  1.00  0.00    -0.224 NA
HETATM   19  C3  UNL     1      29.078   2.058  54.229  1.00  0.00     0.235 A 
HETATM   20  N1  UNL     1      29.619   0.817  54.103  1.00  0.00    -0.246 NA
HETATM   21  C2  UNL     1      28.888  -0.167  53.513  1.00  0.00     0.041 A 
HETATM   22  C1  UNL     1      29.463  -1.534  53.365  1.00  0.00     0.071 C 
HETATM   23  C17 UNL     1      27.615   0.079  53.045  1.00  0.00     0.008 A 
HETATM   24  C18 UNL     1      26.774  -0.950  52.396  1.00  0.00     0.054 C 
ENDBRANCH   1  17
TORSDOF 4
ENDMDL
MODEL 4
REMARK VINA RESULT:      -7.8      4.723      6.149
REMARK  4 active torsions:
REMARK  status: ('A' for Active; 'I' for Inactive)
REMARK    1  A    between atoms: C4_6  and  N3_7 
REMARK    2  A    between atoms: C7_10  and  O1_11 
REMARK    3  A    between atoms: O1_11  and  C8_12 
REMARK    4  A    between atoms: C8_12  and  C9_13 
ROOT
HETATM    1  N3  UNL     1      24.347   4.958  49.614  1.00  0.00    -0.360 N 
HETATM    2  C5  UNL     1      23.587   4.091  48.737  1.00  0.00     0.154 C 
HETATM    3  C6  UNL     1      23.172   2.832  49.411  1.00  0.00     0.026 C 
HETATM    4  C7  UNL     1      23.586   2.459  50.616  1.00  0.00     0.064 C 
HETATM    5  C15 UNL     1      24.527   3.365  51.330  1.00  0.00     0.156 C 
HETATM    6 CL1  UNL     1      24.640   3.045  53.040  1.00  0.00    -0.116 Cl
HETATM    7  C16 UNL     1      24.047   4.782  51.025  1.00  0.00     0.151 C 
ENDROOT
BRANCH   4   8
HETATM    8  O1  UNL     1      23.052   1.250  51.007  1.00  0.00    -0.350 OA
BRANCH   8   9
HETATM    9  C8  UNL     1      21.796   1.020  51.560  1.00  0.00     0.214 C 
BRANCH   9  10
HETATM   10  C9  UNL     1      22.031   0.193  52.798  1.00  0.00    -0.031 A 
HETATM   11  C10 UNL     1      21.026  -0.297  53.582  1.00  0.00     0.009 A 
HETATM   12  C11 UNL     1      21.264  -1.051  54.710  1.00  0.00     0.004 A 
HETATM   13  C12 UNL     1      22.569  -1.310  55.046  1.00  0.00     0.042 A 
HETATM   14  C13 UNL     1      23.646  -0.856  54.313  1.00  0.00     0.117 A 
HETATM   15  F1  UNL     1      24.940  -1.086  54.606  1.00  0.00    -0.206 F 
HETATM   16  C14 UNL     1      23.330  -0.113  53.206  1.00  0.00     0.051 A 
ENDBRANCH   9  10
ENDBRANCH   8   9
ENDBRANCH   4   8
BRANCH   1  17
HETATM   17  C4  UNL     1      25.299   5.895  49.125  1.00  0.00     0.135 A 
HETATM   18  N2  UNL     1      24.857   7.171  48.924  1.00  0.00    -0.224 NA
HETATM   19  C3  UNL     1      25.662   8.145  48.465  1.00  0.00     0.235 A 
HETATM   20  N1  UNL     1      26.965   7.884  48.182  1.00  0.00    -0.246 NA
HETATM   21  C2  UNL     1      27.445   6.625  48.368  1.00  0.00     0.041 A 
HETATM   22  C1  UNL     1      28.871   6.318  48.062  1.00  0.00     0.071 C 
HETATM   23  C17 UNL     1      26.628   5.618  48.838  1.00  0.00     0.008 A 
HETATM   24  C18 UNL     1      27.092   4.232  49.061  1.00  0.00     0.054 C 
ENDBRANCH   1  17
TORSDOF 4
ENDMDL
MODEL 5
REMARK VINA RESULT:      -7.8      4.129      4.743
REMARK  4 active torsions:
REMARK  status: ('A' for Active; 'I' for Inactive)
REMARK    1  A    between atoms: C4_6  and  N3_7 
REMARK    2  A    between atoms: C7_10  and  O1_11 
REMARK    3  A    between atoms: O1_11  and  C8_12 
REMARK    4  A    between atoms: C8_12  and  C9_13 
ROOT
HETATM    1  N3  UNL     1      25.867   2.076  52.531  1.00  0.00    -0.360 N 
HETATM    2  C5  UNL     1      24.775   2.481  53.393  1.00  0.00     0.154 C 
HETATM    3  C6  UNL     1      23.906   3.507  52.758  1.00  0.00     0.026 C 
HETATM    4  C7  UNL     1      24.183   4.112  51.610  1.00  0.00     0.064 C 
HETATM    5  C15 UNL     1      25.447   3.734  50.921  1.00  0.00     0.156 C 
HETATM    6 CL1  UNL     1      25.497   4.208  49.244  1.00  0.00    -0.116 Cl
HETATM    7  C16 UNL     1      25.587   2.225  51.113  1.00  0.00     0.151 C 
ENDROOT
BRANCH   4   8
HETATM    8  O1  UNL     1      23.213   5.020  51.245  1.00  0.00    -0.350 OA
BRANCH   8   9
HETATM    9  C8  UNL     1      21.891   4.755  50.899  1.00  0.00     0.214 C 
BRANCH   9  10
HETATM   10  C9  UNL     1      21.942   4.040  49.573  1.00  0.00    -0.031 A 
HETATM   11  C10 UNL     1      22.157   4.672  48.382  1.00  0.00     0.009 A 
HETATM   12  C11 UNL     1      22.200   3.998  47.180  1.00  0.00     0.004 A 
HETATM   13  C12 UNL     1      22.017   2.639  47.200  1.00  0.00     0.042 A 
HETATM   14  C13 UNL     1      21.796   1.919  48.356  1.00  0.00     0.117 A 
HETATM   15  F1  UNL     1      21.612   0.587  48.420  1.00  0.00    -0.206 F 
HETATM   16  C14 UNL     1      21.766   2.657  49.510  1.00  0.00     0.051 A 
ENDBRANCH   9  10
ENDBRANCH   8   9
ENDBRANCH   4   8
BRANCH   1  17
HETATM   17  C4  UNL     1      27.099   1.578  53.039  1.00  0.00     0.135 A 
HETATM   18  N2  UNL     1      27.927   2.485  53.635  1.00  0.00    -0.224 NA
HETATM   19  C3  UNL     1      29.118   2.136  54.153  1.00  0.00     0.235 A 
HETATM   20  N1  UNL     1      29.541   0.846  54.098  1.00  0.00    -0.246 NA
HETATM   21  C2  UNL     1      28.744  -0.088  53.511  1.00  0.00     0.041 A 
HETATM   22  C1  UNL     1      29.190  -1.508  53.440  1.00  0.00     0.071 C 
HETATM   23  C17 UNL     1      27.522   0.259  52.977  1.00  0.00     0.008 A 
HETATM   24  C18 UNL     1      26.613  -0.712  52.328  1.00  0.00     0.054 C 
ENDBRANCH   1  17
TORSDOF 4
ENDMDL
MODEL 6
REMARK VINA RESULT:      -7.7      3.421      4.241
REMARK  4 active torsions:
REMARK  status: ('A' for Active; 'I' for Inactive)
REMARK    1  A    between atoms: C4_6  and  N3_7 
REMARK    2  A    between atoms: C7_10  and  O1_11 
REMARK    3  A    between atoms: O1_11  and  C8_12 
REMARK    4  A    between atoms: C8_12  and  C9_13 
ROOT
HETATM    1  N3  UNL     1      25.877   2.071  52.627  1.00  0.00    -0.360 N 
HETATM    2  C5  UNL     1      25.747   2.644  51.302  1.00  0.00     0.154 C 
HETATM    3  C6  UNL     1      24.360   2.536  50.776  1.00  0.00     0.026 C 
HETATM    4  C7  UNL     1      23.390   1.849  51.365  1.00  0.00     0.064 C 
HETATM    5  C15 UNL     1      23.720   1.143  52.634  1.00  0.00     0.156 C 
HETATM    6 CL1  UNL     1      22.318   0.677  53.559  1.00  0.00    -0.116 Cl
HETATM    7  C16 UNL     1      24.647   2.084  53.400  1.00  0.00     0.151 C 
ENDROOT
BRANCH   4   8
HETATM    8  O1  UNL     1      22.201   1.912  50.671  1.00  0.00    -0.350 OA
BRANCH   8   9
HETATM    9  C8  UNL     1      21.785   1.089  49.629  1.00  0.00     0.214 C 
BRANCH   9  10
HETATM   10  C9  UNL     1      21.442   2.007  48.484  1.00  0.00    -0.031 A 
HETATM   11  C10 UNL     1      22.360   2.465  47.582  1.00  0.00     0.009 A 
HETATM   12  C11 UNL     1      22.024   3.304  46.541  1.00  0.00     0.004 A 
HETATM   13  C12 UNL     1      20.712   3.684  46.421  1.00  0.00     0.042 A 
HETATM   14  C13 UNL     1      19.719   3.270  47.285  1.00  0.00     0.117 A 
HETATM   15  F1  UNL     1      18.421   3.619  47.204  1.00  0.00    -0.206 F 
HETATM   16  C14 UNL     1      20.129   2.439  48.294  1.00  0.00     0.051 A 
ENDBRANCH   9  10
ENDBRANCH   8   9
ENDBRANCH   4   8
BRANCH   1  17
HETATM   17  C4  UNL     1      27.107   1.547  53.115  1.00  0.00     0.135 A 
HETATM   18  N2  UNL     1      27.922   2.414  53.782  1.00  0.00    -0.224 NA
HETATM   19  C3  UNL     1      29.108   2.037  54.290  1.00  0.00     0.235 A 
HETATM   20  N1  UNL     1      29.540   0.756  54.151  1.00  0.00    -0.246 NA
HETATM   21  C2  UNL     1      28.757  -0.139  53.491  1.00  0.00     0.041 A 
HETATM   22  C1  UNL     1      29.213  -1.549  53.327  1.00  0.00     0.071 C 
HETATM   23  C17 UNL     1      27.538   0.237  52.966  1.00  0.00     0.008 A 
HETATM   24  C18 UNL     1      26.644  -0.692  52.241  1.00  0.00     0.054 C 
ENDBRANCH   1  17
TORSDOF 4
ENDMDL
MODEL 7
REMARK VINA RESULT:      -7.5      5.059      8.199
REMARK  4 active torsions:
REMARK  status: ('A' for Active; 'I' for Inactive)
REMARK    1  A    between atoms: C4_6  and  N3_7 
REMARK    2  A    between atoms: C7_10  and  O1_11 
REMARK    3  A    between atoms: O1_11  and  C8_12 
REMARK    4  A    between atoms: C8_12  and  C9_13 
ROOT
HETATM    1  N3  UNL     1      23.455   4.715  50.246  1.00  0.00    -0.360 N 
HETATM    2  C5  UNL     1      22.543   4.409  51.329  1.00  0.00     0.154 C 
HETATM    3  C6  UNL     1      23.143   3.483  52.326  1.00  0.00     0.026 C 
HETATM    4  C7  UNL     1      24.309   2.869  52.167  1.00  0.00     0.064 C 
HETATM    5  C15 UNL     1      25.056   3.130  50.906  1.00  0.00     0.156 C 
HETATM    6 CL1  UNL     1      26.738   2.677  50.986  1.00  0.00    -0.116 Cl
HETATM    7  C16 UNL     1      24.858   4.614  50.608  1.00  0.00     0.151 C 
ENDROOT
BRANCH   4   8
HETATM    8  O1  UNL     1      24.633   2.067  53.240  1.00  0.00    -0.350 OA
BRANCH   8   9
HETATM    9  C8  UNL     1      24.470   0.690  53.347  1.00  0.00     0.214 C 
BRANCH   9  10
HETATM   10  C9  UNL     1      25.859   0.108  53.401  1.00  0.00    -0.031 A 
HETATM   11  C10 UNL     1      26.273  -0.934  52.622  1.00  0.00     0.009 A 
HETATM   12  C11 UNL     1      27.549  -1.451  52.688  1.00  0.00     0.004 A 
HETATM   13  C12 UNL     1      28.426  -0.884  53.578  1.00  0.00     0.042 A 
HETATM   14  C13 UNL     1      28.094   0.171  54.403  1.00  0.00     0.117 A 
HETATM   15  F1  UNL     1      28.921   0.756  55.290  1.00  0.00    -0.206 F 
HETATM   16  C14 UNL     1      26.809   0.629  54.281  1.00  0.00     0.051 A 
ENDBRANCH   9  10
ENDBRANCH   8   9
ENDBRANCH   4   8
BRANCH   1  17
HETATM   17  C4  UNL     1      23.004   5.081  48.947  1.00  0.00     0.135 A 
HETATM   18  N2  UNL     1      22.954   6.416  48.669  1.00  0.00    -0.224 NA
HETATM   19  C3  UNL     1      22.545   6.887  47.477  1.00  0.00     0.235 A 
HETATM   20  N1  UNL     1      22.161   6.029  46.495  1.00  0.00    -0.246 NA
HETATM   21  C2  UNL     1      22.196   4.690  46.733  1.00  0.00     0.041 A 
HETATM   22  C1  UNL     1      21.778   3.734  45.669  1.00  0.00     0.071 C 
HETATM   23  C17 UNL     1      22.613   4.198  47.952  1.00  0.00     0.008 A 
HETATM   24  C18 UNL     1      22.672   2.754  48.268  1.00  0.00     0.054 C 
ENDBRANCH   1  17
TORSDOF 4
ENDMDL
MODEL 8
REMARK VINA RESULT:      -7.3      4.817      8.696
REMARK  4 active torsions:
REMARK  status: ('A' for Active; 'I' for Inactive)
REMARK    1  A    between atoms: C4_6  and  N3_7 
REMARK    2  A    between atoms: C7_10  and  O1_11 
REMARK    3  A    between atoms: O1_11  and  C8_12 
REMARK    4  A    between atoms: C8_12  and  C9_13 
ROOT
HETATM    1  N3  UNL     1      23.254   5.029  51.387  1.00  0.00    -0.360 N 
HETATM    2  C5  UNL     1      23.190   4.411  52.695  1.00  0.00     0.154 C 
HETATM    3  C6  UNL     1      24.228   3.361  52.874  1.00  0.00     0.026 C 
HETATM    4  C7  UNL     1      25.014   2.915  51.902  1.00  0.00     0.064 C 
HETATM    5  C15 UNL     1      24.836   3.509  50.549  1.00  0.00     0.156 C 
HETATM    6 CL1  UNL     1      26.183   3.221  49.479  1.00  0.00    -0.116 Cl
HETATM    7  C16 UNL     1      24.575   4.996  50.781  1.00  0.00     0.151 C 
ENDROOT
BRANCH   4   8
HETATM    8  O1  UNL     1      25.888   1.942  52.335  1.00  0.00    -0.350 OA
BRANCH   8   9
HETATM    9  C8  UNL     1      26.660   1.951  53.492  1.00  0.00     0.214 C 
BRANCH   9  10
HETATM   10  C9  UNL     1      27.549   0.736  53.410  1.00  0.00    -0.031 A 
HETATM   11  C10 UNL     1      28.870   0.741  53.758  1.00  0.00     0.009 A 
HETATM   12  C11 UNL     1      29.663  -0.383  53.675  1.00  0.00     0.004 A 
HETATM   13  C12 UNL     1      29.088  -1.544  53.224  1.00  0.00     0.042 A 
HETATM   14  C13 UNL     1      27.763  -1.640  52.852  1.00  0.00     0.117 A 
HETATM   15  F1  UNL     1      27.159  -2.757  52.403  1.00  0.00    -0.206 F 
HETATM   16  C14 UNL     1      27.038  -0.482  52.961  1.00  0.00     0.051 A 
ENDBRANCH   9  10
ENDBRANCH   8   9
ENDBRANCH   4   8
BRANCH   1  17
HETATM   17  C4  UNL     1      22.118   5.613  50.760  1.00  0.00     0.135 A 
HETATM   18  N2  UNL     1      22.014   6.972  50.825  1.00  0.00    -0.224 NA
HETATM   19  C3  UNL     1      20.986   7.640  50.272  1.00  0.00     0.235 A 
HETATM   20  N1  UNL     1      20.001   6.968  49.619  1.00  0.00    -0.246 NA
HETATM   21  C2  UNL     1      20.068   5.612  49.534  1.00  0.00     0.041 A 
HETATM   22  C1  UNL     1      18.998   4.857  48.823  1.00  0.00     0.071 C 
HETATM   23  C17 UNL     1      21.117   4.918  50.098  1.00  0.00     0.008 A 
HETATM   24  C18 UNL     1      21.244   3.445  50.036  1.00  0.00     0.054 C 
ENDBRANCH   1  17
TORSDOF 4
ENDMDL
MODEL 9
REMARK VINA RESULT:      -7.3      5.056      8.135
REMARK  4 active torsions:
REMARK  status: ('A' for Active; 'I' for Inactive)
REMARK    1  A    between atoms: C4_6  and  N3_7 
REMARK    2  A    between atoms: C7_10  and  O1_11 
REMARK    3  A    between atoms: O1_11  and  C8_12 
REMARK    4  A    between atoms: C8_12  and  C9_13 
ROOT
HETATM    1  N3  UNL     1      20.495   2.062  51.660  1.00  0.00    -0.360 N 
HETATM    2  C5  UNL     1      20.506   3.367  52.287  1.00  0.00     0.154 C 
HETATM    3  C6  UNL     1      21.343   4.344  51.541  1.00  0.00     0.026 C 
HETATM    4  C7  UNL     1      22.129   4.026  50.520  1.00  0.00     0.064 C 
HETATM    5  C15 UNL     1      22.168   2.598  50.101  1.00  0.00     0.156 C 
HETATM    6 CL1  UNL     1      22.831   2.356  48.507  1.00  0.00    -0.116 Cl
HETATM    7  C16 UNL     1      20.733   2.092  50.227  1.00  0.00     0.151 C 
ENDROOT
BRANCH   4   8
HETATM    8  O1  UNL     1      22.796   5.117  50.008  1.00  0.00    -0.350 OA
BRANCH   8   9
HETATM    9  C8  UNL     1      23.781   5.877  50.631  1.00  0.00     0.214 C 
BRANCH   9  10
HETATM   10  C9  UNL     1      25.074   5.535  49.937  1.00  0.00    -0.031 A 
HETATM   11  C10 UNL     1      25.859   6.456  49.303  1.00  0.00     0.009 A 
HETATM   12  C11 UNL     1      27.038   6.121  48.674  1.00  0.00     0.004 A 
HETATM   13  C12 UNL     1      27.425   4.805  48.696  1.00  0.00     0.042 A 
HETATM   14  C13 UNL     1      26.696   3.808  49.312  1.00  0.00     0.117 A 
HETATM   15  F1  UNL     1      27.039   2.507  49.356  1.00  0.00    -0.206 F 
HETATM   16  C14 UNL     1      25.536   4.218  49.914  1.00  0.00     0.051 A 
ENDBRANCH   9  10
ENDBRANCH   8   9
ENDBRANCH   4   8
BRANCH   1  17
HETATM   17  C4  UNL     1      20.271   0.863  52.393  1.00  0.00     0.135 A 
HETATM   18  N2  UNL     1      19.010   0.344  52.350  1.00  0.00    -0.224 NA
HETATM   19  C3  UNL     1      18.675  -0.783  53.002  1.00  0.00     0.235 A 
HETATM   20  N1  UNL     1      19.601  -1.453  53.738  1.00  0.00    -0.246 NA
HETATM   21  C2  UNL     1      20.870  -0.968  53.807  1.00  0.00     0.041 A 
HETATM   22  C1  UNL     1      21.899  -1.687  54.609  1.00  0.00     0.071 C 
HETATM   23  C17 UNL     1      21.223   0.188  53.143  1.00  0.00     0.008 A 
HETATM   24  C18 UNL     1      22.586   0.762  53.180  1.00  0.00     0.054 C 
ENDBRANCH   1  17
TORSDOF 4
ENDMDL
