MODEL 1
REMARK VINA RESULT:      -9.9      0.000      0.000
REMARK  0 active torsions:
REMARK  status: ('A' for Active; 'I' for Inactive)
ROOT
HETATM    1  C1  UNL     1      22.726  -0.001  53.752  1.00  0.00     0.045 C 
HETATM    2  C2  UNL     1      23.234   0.947  52.699  1.00  0.00    -0.064 C 
HETATM    3  C3  UNL     1      24.516   1.237  52.741  1.00  0.00    -0.003 A 
HETATM    4  C4  UNL     1      25.143   0.517  53.851  1.00  0.00     0.012 A 
HETATM    5  C5  UNL     1      26.395   0.524  54.293  1.00  0.00    -0.004 A 
HETATM    6  C6  UNL     1      27.372   1.376  53.601  1.00  0.00     0.177 A 
HETATM    7  N1  UNL     1      26.716   2.063  52.526  1.00  0.00    -0.283 NA
HETATM    8  C7  UNL     1      25.514   2.042  52.119  1.00  0.00     0.091 A 
HETATM    9  C8  UNL     1      25.665   3.039  51.063  1.00  0.00     0.093 C 
HETATM   10  C9  UNL     1      26.646   3.330  50.235  1.00  0.00     0.084 C 
HETATM   11  S1  UNL     1      26.967   4.470  48.955  1.00  0.00    -0.103 SA
HETATM   12  C10 UNL     1      26.251   6.093  49.282  1.00  0.00    -0.010 C 
HETATM   13  C11 UNL     1      24.958   5.825  49.131  1.00  0.00     0.024 C 
HETATM   14  C12 UNL     1      24.183   6.634  50.150  1.00  0.00    -0.035 C 
HETATM   15  C13 UNL     1      25.124   7.339  50.794  1.00  0.00    -0.008 C 
HETATM   16  C14 UNL     1      26.121   7.556  49.642  1.00  0.00     0.045 C 
HETATM   17  C15 UNL     1      25.467   8.233  48.480  1.00  0.00     0.020 C 
HETATM   18  C16 UNL     1      22.803   6.183  49.982  1.00  0.00     0.149 C 
HETATM   19  C17 UNL     1      21.757   6.520  50.994  1.00  0.00     0.089 C 
HETATM   20  C18 UNL     1      21.053   5.145  50.956  1.00  0.00     0.038 C 
HETATM   21  N2  UNL     1      22.149   4.800  51.557  1.00  0.00    -0.180 NA
HETATM   22  N3  UNL     1      22.980   4.722  50.433  1.00  0.00    -0.254 N 
HETATM   23  C19 UNL     1      23.756   3.646  49.913  1.00  0.00     0.230 C 
HETATM   24  N4  UNL     1      24.526   3.858  50.922  1.00  0.00    -0.240 NA
HETATM   25  C20 UNL     1      20.480   3.784  50.975  1.00  0.00     0.083 C 
HETATM   26  C21 UNL     1      20.360   3.153  52.276  1.00  0.00    -0.024 C 
HETATM   27  C22 UNL     1      21.042   2.046  52.565  1.00  0.00    -0.022 C 
HETATM   28  C23 UNL     1      22.009   1.144  51.917  1.00  0.00     0.033 C 
HETATM   29  C24 UNL     1      21.393  -0.179  51.552  1.00  0.00     0.019 C 
ENDROOT
TORSDOF 0
ENDMDL
MODEL 2
REMARK VINA RESULT:      -9.3      2.009      4.884
REMARK  0 active torsions:
REMARK  status: ('A' for Active; 'I' for Inactive)
ROOT
HETATM    1  C1  UNL     1      20.001  -0.910  52.814  1.00  0.00     0.045 C 
HETATM    2  C2  UNL     1      20.691   0.412  52.611  1.00  0.00    -0.064 C 
HETATM    3  C3  UNL     1      20.156   1.223  51.723  1.00  0.00    -0.003 A 
HETATM    4  C4  UNL     1      18.966   0.595  51.145  1.00  0.00     0.012 A 
HETATM    5  C5  UNL     1      18.135   1.018  50.201  1.00  0.00    -0.004 A 
HETATM    6  C6  UNL     1      18.389   2.329  49.586  1.00  0.00     0.177 A 
HETATM    7  N1  UNL     1      19.562   2.904  50.179  1.00  0.00    -0.283 NA
HETATM    8  C7  UNL     1      20.345   2.481  51.083  1.00  0.00     0.091 A 
HETATM    9  C8  UNL     1      21.283   3.601  51.046  1.00  0.00     0.093 C 
HETATM   10  C9  UNL     1      21.133   4.892  50.842  1.00  0.00     0.084 C 
HETATM   11  S1  UNL     1      22.135   6.317  50.764  1.00  0.00    -0.103 SA
HETATM   12  C10 UNL     1      23.734   5.994  49.994  1.00  0.00    -0.010 C 
HETATM   13  C11 UNL     1      24.318   5.265  50.941  1.00  0.00     0.024 C 
HETATM   14  C12 UNL     1      25.155   4.197  50.268  1.00  0.00    -0.035 C 
HETATM   15  C13 UNL     1      24.998   4.433  48.957  1.00  0.00    -0.008 C 
HETATM   16  C14 UNL     1      24.859   5.965  48.984  1.00  0.00     0.045 C 
HETATM   17  C15 UNL     1      26.042   6.605  49.633  1.00  0.00     0.020 C 
HETATM   18  C16 UNL     1      25.652   3.388  51.379  1.00  0.00     0.149 C 
HETATM   19  C17 UNL     1      26.283   2.056  51.136  1.00  0.00     0.089 C 
HETATM   20  C18 UNL     1      25.637   1.352  52.352  1.00  0.00     0.038 C 
HETATM   21  N2  UNL     1      24.585   1.482  51.604  1.00  0.00    -0.180 NA
HETATM   22  N3  UNL     1      24.308   2.827  51.877  1.00  0.00    -0.254 N 
HETATM   23  C19 UNL     1      23.144   3.455  52.406  1.00  0.00     0.230 C 
HETATM   24  N4  UNL     1      22.617   3.199  51.261  1.00  0.00    -0.240 NA
HETATM   25  C20 UNL     1      24.912   0.689  53.453  1.00  0.00     0.083 C 
HETATM   26  C21 UNL     1      24.182  -0.518  53.111  1.00  0.00    -0.024 C 
HETATM   27  C22 UNL     1      22.856  -0.571  53.223  1.00  0.00    -0.022 C 
HETATM   28  C23 UNL     1      21.746   0.310  53.625  1.00  0.00     0.033 C 
HETATM   29  C24 UNL     1      21.168  -0.079  54.958  1.00  0.00     0.019 C 
ENDROOT
TORSDOF 0
ENDMDL
MODEL 3
REMARK VINA RESULT:      -9.1      1.784      4.528
REMARK  0 active torsions:
REMARK  status: ('A' for Active; 'I' for Inactive)
ROOT
HETATM    1  C1  UNL     1      22.853  -1.054  53.082  1.00  0.00     0.045 C 
HETATM    2  C2  UNL     1      22.941   0.416  52.772  1.00  0.00    -0.064 C 
HETATM    3  C3  UNL     1      21.856   0.980  52.285  1.00  0.00    -0.003 A 
HETATM    4  C4  UNL     1      20.794  -0.022  52.177  1.00  0.00     0.012 A 
HETATM    5  C5  UNL     1      19.553   0.076  51.716  1.00  0.00    -0.004 A 
HETATM    6  C6  UNL     1      19.100   1.380  51.211  1.00  0.00     0.177 A 
HETATM    7  N1  UNL     1      20.170   2.327  51.332  1.00  0.00    -0.283 NA
HETATM    8  C7  UNL     1      21.353   2.212  51.778  1.00  0.00     0.091 A 
HETATM    9  C8  UNL     1      21.785   3.578  51.492  1.00  0.00     0.093 C 
HETATM   10  C9  UNL     1      21.170   4.740  51.522  1.00  0.00     0.084 C 
HETATM   11  S1  UNL     1      21.544   6.414  51.208  1.00  0.00    -0.103 SA
HETATM   12  C10 UNL     1      22.674   6.618  49.817  1.00  0.00    -0.010 C 
HETATM   13  C11 UNL     1      23.801   6.150  50.346  1.00  0.00     0.024 C 
HETATM   14  C12 UNL     1      24.557   5.402  49.268  1.00  0.00    -0.035 C 
HETATM   15  C13 UNL     1      23.790   5.537  48.176  1.00  0.00    -0.008 C 
HETATM   16  C14 UNL     1      23.207   6.937  48.438  1.00  0.00     0.045 C 
HETATM   17  C15 UNL     1      24.291   7.950  48.614  1.00  0.00     0.020 C 
HETATM   18  C16 UNL     1      25.704   4.833  49.972  1.00  0.00     0.149 C 
HETATM   19  C17 UNL     1      26.550   3.780  49.335  1.00  0.00     0.089 C 
HETATM   20  C18 UNL     1      26.739   2.935  50.616  1.00  0.00     0.038 C 
HETATM   21  N2  UNL     1      25.487   2.688  50.388  1.00  0.00    -0.180 NA
HETATM   22  N3  UNL     1      24.949   3.873  50.908  1.00  0.00    -0.254 N 
HETATM   23  C19 UNL     1      23.992   4.094  51.939  1.00  0.00     0.230 C 
HETATM   24  N4  UNL     1      23.135   3.647  51.090  1.00  0.00    -0.240 NA
HETATM   25  C20 UNL     1      26.800   2.099  51.831  1.00  0.00     0.083 C 
HETATM   26  C21 UNL     1      26.408   0.710  51.678  1.00  0.00    -0.024 C 
HETATM   27  C22 UNL     1      25.347   0.224  52.319  1.00  0.00    -0.022 C 
HETATM   28  C23 UNL     1      24.301   0.698  53.242  1.00  0.00     0.033 C 
HETATM   29  C24 UNL     1      24.500   0.175  54.639  1.00  0.00     0.019 C 
ENDROOT
TORSDOF 0
ENDMDL
MODEL 4
REMARK VINA RESULT:      -9.0      2.716      5.915
REMARK  0 active torsions:
REMARK  status: ('A' for Active; 'I' for Inactive)
ROOT
HETATM    1  C1  UNL     1      27.322   0.813  52.681  1.00  0.00     0.045 C 
HETATM    2  C2  UNL     1      25.924   0.708  52.133  1.00  0.00    -0.064 C 
HETATM    3  C3  UNL     1      25.555   1.643  51.284  1.00  0.00    -0.003 A 
HETATM    4  C4  UNL     1      26.661   2.581  51.081  1.00  0.00     0.012 A 
HETATM    5  C5  UNL     1      26.739   3.684  50.347  1.00  0.00    -0.004 A 
HETATM    6  C6  UNL     1      25.553   4.097  49.583  1.00  0.00     0.177 A 
HETATM    7  N1  UNL     1      24.497   3.155  49.814  1.00  0.00    -0.283 NA
HETATM    8  C7  UNL     1      24.443   2.103  50.522  1.00  0.00     0.091 A 
HETATM    9  C8  UNL     1      23.040   1.786  50.265  1.00  0.00     0.093 C 
HETATM   10  C9  UNL     1      22.267   1.921  49.209  1.00  0.00     0.084 C 
HETATM   11  S1  UNL     1      20.611   1.601  48.765  1.00  0.00    -0.103 SA
HETATM   12  C10 UNL     1      19.462   1.913  50.120  1.00  0.00    -0.010 C 
HETATM   13  C11 UNL     1      19.759   0.901  50.931  1.00  0.00     0.024 C 
HETATM   14  C12 UNL     1      19.662   1.393  52.360  1.00  0.00    -0.035 C 
HETATM   15  C13 UNL     1      19.277   2.673  52.241  1.00  0.00    -0.008 C 
HETATM   16  C14 UNL     1      18.402   2.565  50.980  1.00  0.00     0.045 C 
HETATM   17  C15 UNL     1      17.311   1.560  51.161  1.00  0.00     0.020 C 
HETATM   18  C16 UNL     1      20.117   0.256  53.155  1.00  0.00     0.149 C 
HETATM   19  C17 UNL     1      20.450   0.416  54.602  1.00  0.00     0.089 C 
HETATM   20  C18 UNL     1      21.689  -0.509  54.581  1.00  0.00     0.038 C 
HETATM   21  N2  UNL     1      22.166   0.491  53.908  1.00  0.00    -0.180 NA
HETATM   22  N3  UNL     1      21.576   0.202  52.671  1.00  0.00    -0.254 N 
HETATM   23  C19 UNL     1      22.153  -0.027  51.389  1.00  0.00     0.230 C 
HETATM   24  N4  UNL     1      22.393   1.237  51.391  1.00  0.00    -0.240 NA
HETATM   25  C20 UNL     1      22.928  -1.306  54.493  1.00  0.00     0.083 C 
HETATM   26  C21 UNL     1      24.136  -0.677  54.994  1.00  0.00    -0.024 C 
HETATM   27  C22 UNL     1      25.156  -0.408  54.180  1.00  0.00    -0.022 C 
HETATM   28  C23 UNL     1      25.498  -0.549  52.754  1.00  0.00     0.033 C 
HETATM   29  C24 UNL     1      26.517  -1.631  52.521  1.00  0.00     0.019 C 
ENDROOT
TORSDOF 0
ENDMDL
MODEL 5
REMARK VINA RESULT:      -8.8      2.284      7.044
REMARK  0 active torsions:
REMARK  status: ('A' for Active; 'I' for Inactive)
ROOT
HETATM    1  C1  UNL     1      25.897   5.512  50.197  1.00  0.00     0.045 C 
HETATM    2  C2  UNL     1      24.885   4.407  50.330  1.00  0.00    -0.064 C 
HETATM    3  C3  UNL     1      23.629   4.774  50.469  1.00  0.00    -0.003 A 
HETATM    4  C4  UNL     1      23.544   6.236  50.449  1.00  0.00     0.012 A 
HETATM    5  C5  UNL     1      22.502   7.046  50.586  1.00  0.00    -0.004 A 
HETATM    6  C6  UNL     1      21.178   6.446  50.799  1.00  0.00     0.177 A 
HETATM    7  N1  UNL     1      21.308   5.018  50.815  1.00  0.00    -0.283 NA
HETATM    8  C7  UNL     1      22.318   4.260  50.681  1.00  0.00     0.091 A 
HETATM    9  C8  UNL     1      21.620   2.993  50.886  1.00  0.00     0.093 C 
HETATM   10  C9  UNL     1      20.417   2.568  50.562  1.00  0.00     0.084 C 
HETATM   11  S1  UNL     1      19.464   1.118  50.741  1.00  0.00    -0.103 SA
HETATM   12  C10 UNL     1      19.745   0.299  52.323  1.00  0.00    -0.010 C 
HETATM   13  C11 UNL     1      20.976  -0.169  52.140  1.00  0.00     0.024 C 
HETATM   14  C12 UNL     1      21.723  -0.064  53.454  1.00  0.00    -0.035 C 
HETATM   15  C13 UNL     1      20.820   0.441  54.306  1.00  0.00    -0.008 C 
HETATM   16  C14 UNL     1      19.540  -0.197  53.737  1.00  0.00     0.045 C 
HETATM   17  C15 UNL     1      19.649  -1.686  53.695  1.00  0.00     0.020 C 
HETATM   18  C16 UNL     1      23.082  -0.487  53.120  1.00  0.00     0.149 C 
HETATM   19  C17 UNL     1      24.212  -0.254  54.069  1.00  0.00     0.089 C 
HETATM   20  C18 UNL     1      25.246   0.138  52.988  1.00  0.00     0.038 C 
HETATM   21  N2  UNL     1      24.489   1.190  52.941  1.00  0.00    -0.180 NA
HETATM   22  N3  UNL     1      23.452   0.659  52.162  1.00  0.00    -0.254 N 
HETATM   23  C19 UNL     1      22.910   1.078  50.914  1.00  0.00     0.230 C 
HETATM   24  N4  UNL     1      22.400   2.050  51.585  1.00  0.00    -0.240 NA
HETATM   25  C20 UNL     1      26.168   0.616  51.939  1.00  0.00     0.083 C 
HETATM   26  C21 UNL     1      26.796   1.903  52.170  1.00  0.00    -0.024 C 
HETATM   27  C22 UNL     1      26.558   2.936  51.362  1.00  0.00    -0.022 C 
HETATM   28  C23 UNL     1      25.756   3.239  50.164  1.00  0.00     0.033 C 
HETATM   29  C24 UNL     1      26.608   3.381  48.933  1.00  0.00     0.019 C 
ENDROOT
TORSDOF 0
ENDMDL
MODEL 6
REMARK VINA RESULT:      -8.7      2.957      5.984
REMARK  0 active torsions:
REMARK  status: ('A' for Active; 'I' for Inactive)
ROOT
HETATM    1  C1  UNL     1      18.679   1.883  49.609  1.00  0.00     0.045 C 
HETATM    2  C2  UNL     1      20.002   1.994  50.318  1.00  0.00    -0.064 C 
HETATM    3  C3  UNL     1      21.061   2.176  49.558  1.00  0.00    -0.003 A 
HETATM    4  C4  UNL     1      20.649   2.233  48.154  1.00  0.00     0.012 A 
HETATM    5  C5  UNL     1      21.365   2.367  47.044  1.00  0.00    -0.004 A 
HETATM    6  C6  UNL     1      22.825   2.485  47.169  1.00  0.00     0.177 A 
HETATM    7  N1  UNL     1      23.183   2.421  48.556  1.00  0.00    -0.283 NA
HETATM    8  C7  UNL     1      22.480   2.291  49.605  1.00  0.00     0.091 A 
HETATM    9  C8  UNL     1      23.586   2.253  50.559  1.00  0.00     0.093 C 
HETATM   10  C9  UNL     1      24.752   2.861  50.607  1.00  0.00     0.084 C 
HETATM   11  S1  UNL     1      26.146   2.910  51.654  1.00  0.00    -0.103 SA
HETATM   12  C10 UNL     1      26.527   1.298  52.370  1.00  0.00    -0.010 C 
HETATM   13  C11 UNL     1      25.513   1.164  53.221  1.00  0.00     0.024 C 
HETATM   14  C12 UNL     1      25.099  -0.293  53.239  1.00  0.00    -0.035 C 
HETATM   15  C13 UNL     1      25.955  -0.889  52.396  1.00  0.00    -0.008 C 
HETATM   16  C14 UNL     1      27.205  -0.026  52.642  1.00  0.00     0.045 C 
HETATM   17  C15 UNL     1      27.590  -0.029  54.086  1.00  0.00     0.020 C 
HETATM   18  C16 UNL     1      23.919  -0.313  54.101  1.00  0.00     0.149 C 
HETATM   19  C17 UNL     1      23.027  -1.510  54.154  1.00  0.00     0.089 C 
HETATM   20  C18 UNL     1      21.702  -0.716  54.214  1.00  0.00     0.038 C 
HETATM   21  N2  UNL     1      22.035  -0.471  52.985  1.00  0.00    -0.180 NA
HETATM   22  N3  UNL     1      22.979   0.536  53.227  1.00  0.00    -0.254 N 
HETATM   23  C19 UNL     1      23.047   1.884  52.774  1.00  0.00     0.230 C 
HETATM   24  N4  UNL     1      23.347   1.372  51.633  1.00  0.00    -0.240 NA
HETATM   25  C20 UNL     1      20.458   0.076  54.154  1.00  0.00     0.083 C 
HETATM   26  C21 UNL     1      19.510  -0.290  53.118  1.00  0.00    -0.024 C 
HETATM   27  C22 UNL     1      19.198   0.563  52.143  1.00  0.00    -0.022 C 
HETATM   28  C23 UNL     1      19.554   1.925  51.712  1.00  0.00     0.033 C 
HETATM   29  C24 UNL     1      18.443   2.907  51.963  1.00  0.00     0.019 C 
ENDROOT
TORSDOF 0
ENDMDL
MODEL 7
REMARK VINA RESULT:      -8.6      2.786      5.386
REMARK  0 active torsions:
REMARK  status: ('A' for Active; 'I' for Inactive)
ROOT
HETATM    1  C1  UNL     1      25.008   0.045  53.684  1.00  0.00     0.045 C 
HETATM    2  C2  UNL     1      23.935   0.953  53.147  1.00  0.00    -0.064 C 
HETATM    3  C3  UNL     1      22.699   0.505  53.213  1.00  0.00    -0.003 A 
HETATM    4  C4  UNL     1      22.695  -0.821  53.833  1.00  0.00     0.012 A 
HETATM    5  C5  UNL     1      21.697  -1.662  54.075  1.00  0.00    -0.004 A 
HETATM    6  C6  UNL     1      20.338  -1.261  53.681  1.00  0.00     0.177 A 
HETATM    7  N1  UNL     1      20.391   0.039  53.078  1.00  0.00    -0.283 NA
HETATM    8  C7  UNL     1      21.359   0.829  52.855  1.00  0.00     0.091 A 
HETATM    9  C8  UNL     1      20.590   1.868  52.175  1.00  0.00     0.093 C 
HETATM   10  C9  UNL     1      19.371   2.335  52.338  1.00  0.00     0.084 C 
HETATM   11  S1  UNL     1      18.337   3.540  51.616  1.00  0.00    -0.103 SA
HETATM   12  C10 UNL     1      18.551   3.650  49.829  1.00  0.00    -0.010 C 
HETATM   13  C11 UNL     1      19.758   4.206  49.761  1.00  0.00     0.024 C 
HETATM   14  C12 UNL     1      20.492   3.605  48.580  1.00  0.00    -0.035 C 
HETATM   15  C13 UNL     1      19.606   2.756  48.041  1.00  0.00    -0.008 C 
HETATM   16  C14 UNL     1      18.301   3.513  48.344  1.00  0.00     0.045 C 
HETATM   17  C15 UNL     1      18.329   4.892  47.769  1.00  0.00     0.020 C 
HETATM   18  C16 UNL     1      21.829   4.187  48.664  1.00  0.00     0.149 C 
HETATM   19  C17 UNL     1      22.958   3.636  47.856  1.00  0.00     0.089 C 
HETATM   20  C18 UNL     1      24.026   3.768  48.965  1.00  0.00     0.038 C 
HETATM   21  N2  UNL     1      23.328   2.796  49.464  1.00  0.00    -0.180 NA
HETATM   22  N3  UNL     1      22.275   3.553  49.994  1.00  0.00    -0.254 N 
HETATM   23  C19 UNL     1      21.774   3.659  51.322  1.00  0.00     0.230 C 
HETATM   24  N4  UNL     1      21.308   2.475  51.126  1.00  0.00    -0.240 NA
HETATM   25  C20 UNL     1      24.987   3.804  50.085  1.00  0.00     0.083 C 
HETATM   26  C21 UNL     1      25.681   2.564  50.379  1.00  0.00    -0.024 C 
HETATM   27  C22 UNL     1      25.511   1.944  51.546  1.00  0.00    -0.022 C 
HETATM   28  C23 UNL     1      24.743   2.123  52.790  1.00  0.00     0.033 C 
HETATM   29  C24 UNL     1      25.619   2.536  53.941  1.00  0.00     0.019 C 
ENDROOT
TORSDOF 0
ENDMDL
MODEL 8
REMARK VINA RESULT:      -8.4      3.291      6.763
REMARK  0 active torsions:
REMARK  status: ('A' for Active; 'I' for Inactive)
ROOT
HETATM    1  C1  UNL     1      24.937   2.547  53.459  1.00  0.00     0.045 C 
HETATM    2  C2  UNL     1      23.758   2.199  52.591  1.00  0.00    -0.064 C 
HETATM    3  C3  UNL     1      23.135   3.206  52.017  1.00  0.00    -0.003 A 
HETATM    4  C4  UNL     1      23.792   4.461  52.387  1.00  0.00     0.012 A 
HETATM    5  C5  UNL     1      23.499   5.718  52.079  1.00  0.00    -0.004 A 
HETATM    6  C6  UNL     1      22.330   5.970  51.224  1.00  0.00     0.177 A 
HETATM    7  N1  UNL     1      21.717   4.717  50.890  1.00  0.00    -0.283 NA
HETATM    8  C7  UNL     1      22.014   3.522  51.196  1.00  0.00     0.091 A 
HETATM    9  C8  UNL     1      20.885   2.879  50.528  1.00  0.00     0.093 C 
HETATM   10  C9  UNL     1      20.232   3.141  49.416  1.00  0.00     0.084 C 
HETATM   11  S1  UNL     1      18.892   2.482  48.515  1.00  0.00    -0.103 SA
HETATM   12  C10 UNL     1      17.584   1.852  49.585  1.00  0.00    -0.010 C 
HETATM   13  C11 UNL     1      18.176   0.770  50.082  1.00  0.00     0.024 C 
HETATM   14  C12 UNL     1      17.749   0.617  51.528  1.00  0.00    -0.035 C 
HETATM   15  C13 UNL     1      16.902   1.637  51.730  1.00  0.00    -0.008 C 
HETATM   16  C14 UNL     1      16.273   1.733  50.329  1.00  0.00     0.045 C 
HETATM   17  C15 UNL     1      15.658   0.434  49.920  1.00  0.00     0.020 C 
HETATM   18  C16 UNL     1      18.536  -0.516  52.009  1.00  0.00     0.149 C 
HETATM   19  C17 UNL     1      18.632  -0.818  53.469  1.00  0.00     0.089 C 
HETATM   20  C18 UNL     1      20.132  -1.195  53.452  1.00  0.00     0.038 C 
HETATM   21  N2  UNL     1      20.237   0.083  53.261  1.00  0.00    -0.180 NA
HETATM   22  N3  UNL     1      19.938   0.109  51.893  1.00  0.00    -0.254 N 
HETATM   23  C19 UNL     1      20.683   0.592  50.780  1.00  0.00     0.230 C 
HETATM   24  N4  UNL     1      20.400   1.762  51.237  1.00  0.00    -0.240 NA
HETATM   25  C20 UNL     1      21.587  -1.436  53.415  1.00  0.00     0.083 C 
HETATM   26  C21 UNL     1      22.390  -0.682  54.360  1.00  0.00    -0.024 C 
HETATM   27  C22 UNL     1      23.295   0.200  53.939  1.00  0.00    -0.022 C 
HETATM   28  C23 UNL     1      23.806   0.736  52.665  1.00  0.00     0.033 C 
HETATM   29  C24 UNL     1      25.188   0.232  52.352  1.00  0.00     0.019 C 
ENDROOT
TORSDOF 0
ENDMDL
MODEL 9
REMARK VINA RESULT:      -8.4      2.922      6.298
REMARK  0 active torsions:
REMARK  status: ('A' for Active; 'I' for Inactive)
ROOT
HETATM    1  C1  UNL     1      16.700   1.540  49.266  1.00  0.00     0.045 C 
HETATM    2  C2  UNL     1      17.909   1.996  50.038  1.00  0.00    -0.064 C 
HETATM    3  C3  UNL     1      18.787   2.721  49.379  1.00  0.00    -0.003 A 
HETATM    4  C4  UNL     1      18.327   2.909  48.001  1.00  0.00     0.012 A 
HETATM    5  C5  UNL     1      18.892   3.535  46.976  1.00  0.00    -0.004 A 
HETATM    6  C6  UNL     1      20.201   4.171  47.184  1.00  0.00     0.177 A 
HETATM    7  N1  UNL     1      20.612   3.960  48.542  1.00  0.00    -0.283 NA
HETATM    8  C7  UNL     1      20.056   3.356  49.509  1.00  0.00     0.091 A 
HETATM    9  C8  UNL     1      21.131   3.544  50.481  1.00  0.00     0.093 C 
HETATM   10  C9  UNL     1      21.978   4.525  50.704  1.00  0.00     0.084 C 
HETATM   11  S1  UNL     1      23.290   4.881  51.797  1.00  0.00    -0.103 SA
HETATM   12  C10 UNL     1      24.285   3.425  52.177  1.00  0.00    -0.010 C 
HETATM   13  C11 UNL     1      23.435   2.740  52.937  1.00  0.00     0.024 C 
HETATM   14  C12 UNL     1      23.608   1.267  52.633  1.00  0.00    -0.035 C 
HETATM   15  C13 UNL     1      24.591   1.233  51.721  1.00  0.00    -0.008 C 
HETATM   16  C14 UNL     1      25.427   2.434  52.195  1.00  0.00     0.045 C 
HETATM   17  C15 UNL     1      25.843   2.277  53.621  1.00  0.00     0.020 C 
HETATM   18  C16 UNL     1      22.562   0.619  53.421  1.00  0.00     0.149 C 
HETATM   19  C17 UNL     1      22.196  -0.809  53.184  1.00  0.00     0.089 C 
HETATM   20  C18 UNL     1      20.672  -0.611  53.352  1.00  0.00     0.038 C 
HETATM   21  N2  UNL     1      20.836  -0.007  52.216  1.00  0.00    -0.180 NA
HETATM   22  N3  UNL     1      21.334   1.208  52.703  1.00  0.00    -0.254 N 
HETATM   23  C19 UNL     1      20.864   2.543  52.546  1.00  0.00     0.230 C 
HETATM   24  N4  UNL     1      21.289   2.434  51.336  1.00  0.00    -0.240 NA
HETATM   25  C20 UNL     1      19.219  -0.360  53.406  1.00  0.00     0.083 C 
HETATM   26  C21 UNL     1      18.440  -0.834  52.277  1.00  0.00    -0.024 C 
HETATM   27  C22 UNL     1      17.787   0.019  51.489  1.00  0.00    -0.022 C 
HETATM   28  C23 UNL     1      17.579   1.472  51.367  1.00  0.00     0.033 C 
HETATM   29  C24 UNL     1      16.189   1.880  51.770  1.00  0.00     0.019 C 
ENDROOT
TORSDOF 0
ENDMDL
