MODEL 1
REMARK VINA RESULT:      -8.7      0.000      0.000
REMARK  6 active torsions:
REMARK  status: ('A' for Active; 'I' for Inactive)
REMARK    1  A    between atoms: O1_1  and  C1_2 
REMARK    2  A    between atoms: C6_8  and  C7_9 
REMARK    3  A    between atoms: C7_9  and  N1_10 
REMARK    4  A    between atoms: N1_10  and  C8_11 
REMARK    5  A    between atoms: C10_16  and  N4_17 
REMARK    6  A    between atoms: N4_17  and  C11_18 
ROOT
HETATM    1  C8  UNL     1      27.037   0.886  54.121  1.00  0.00     0.147 C 
HETATM    2  N2  UNL     1      28.079   0.657  54.878  1.00  0.00    -0.256 NA
HETATM    3  C9  UNL     1      29.322   1.351  54.606  1.00  0.00     0.268 C 
HETATM    4  N3  UNL     1      29.313   1.734  53.209  1.00  0.00    -0.183 NA
HETATM    5  O2  UNL     1      28.263   2.553  52.958  1.00  0.00    -0.270 OA
HETATM    6  C10 UNL     1      27.059   1.852  52.969  1.00  0.00     0.314 C 
HETATM    7  H10 UNL     1      30.164   2.215  52.902  1.00  0.00     0.155 HD
ENDROOT
BRANCH   1   8
HETATM    8  N1  UNL     1      25.897   0.140  54.504  1.00  0.00    -0.370 N 
HETATM    9  H7  UNL     1      25.542   0.372  55.488  1.00  0.00     0.161 HD
BRANCH   8  10
HETATM   10  C7  UNL     1      25.171  -0.851  53.752  1.00  0.00     0.162 C 
BRANCH  10  11
HETATM   11  C6  UNL     1      23.702  -0.776  53.862  1.00  0.00    -0.006 A 
HETATM   12  C1  UNL     1      22.848  -1.099  54.878  1.00  0.00     0.073 A 
HETATM   13  C2  UNL     1      21.483  -1.005  54.852  1.00  0.00     0.039 A 
HETATM   14  C3  UNL     1      20.890  -0.537  53.684  1.00  0.00     0.026 A 
HETATM   15  C4  UNL     1      21.699  -0.194  52.628  1.00  0.00     0.034 A 
HETATM   16 CL1  UNL     1      20.820   0.379  51.225  1.00  0.00    -0.084 Cl
HETATM   17  C5  UNL     1      23.075  -0.304  52.697  1.00  0.00     0.035 A 
BRANCH  12  18
HETATM   18  O1  UNL     1      23.417  -1.562  56.039  1.00  0.00    -0.360 OA
HETATM   19  H1  UNL     1      22.922  -2.251  56.583  1.00  0.00     0.217 HD
ENDBRANCH  12  18
ENDBRANCH  10  11
ENDBRANCH   8  10
ENDBRANCH   1   8
BRANCH   6  20
HETATM   20  N4  UNL     1      25.953   2.759  52.986  1.00  0.00    -0.356 N 
HETATM   21  H12 UNL     1      25.830   3.439  53.787  1.00  0.00     0.162 HD
BRANCH  20  22
HETATM   22  C11 UNL     1      24.900   2.931  52.046  1.00  0.00     0.032 A 
HETATM   23  C12 UNL     1      24.987   2.840  50.661  1.00  0.00     0.032 A 
HETATM   24  C13 UNL     1      23.902   3.028  49.872  1.00  0.00     0.046 A 
HETATM   25  C14 UNL     1      22.649   3.318  50.356  1.00  0.00     0.138 A 
HETATM   26  F1  UNL     1      21.608   3.494  49.521  1.00  0.00    -0.204 F 
HETATM   27  C15 UNL     1      22.544   3.411  51.733  1.00  0.00     0.074 A 
HETATM   28 CL2  UNL     1      20.923   3.787  52.335  1.00  0.00    -0.081 Cl
HETATM   29  C16 UNL     1      23.655   3.220  52.564  1.00  0.00     0.056 A 
ENDBRANCH  20  22
ENDBRANCH   6  20
TORSDOF 6
ENDMDL
MODEL 2
REMARK VINA RESULT:      -8.3      2.067      4.504
REMARK  6 active torsions:
REMARK  status: ('A' for Active; 'I' for Inactive)
REMARK    1  A    between atoms: O1_1  and  C1_2 
REMARK    2  A    between atoms: C6_8  and  C7_9 
REMARK    3  A    between atoms: C7_9  and  N1_10 
REMARK    4  A    between atoms: N1_10  and  C8_11 
REMARK    5  A    between atoms: C10_16  and  N4_17 
REMARK    6  A    between atoms: N4_17  and  C11_18 
ROOT
HETATM    1  C8  UNL     1      26.687   1.778  53.860  1.00  0.00     0.147 C 
HETATM    2  N2  UNL     1      27.900   2.244  53.717  1.00  0.00    -0.256 NA
HETATM    3  C9  UNL     1      29.023   1.468  54.201  1.00  0.00     0.268 C 
HETATM    4  N3  UNL     1      28.533   0.593  55.247  1.00  0.00    -0.183 NA
HETATM    5  O2  UNL     1      27.578  -0.233  54.754  1.00  0.00    -0.270 OA
HETATM    6  C10 UNL     1      26.391   0.454  54.508  1.00  0.00     0.314 C 
HETATM    7  H10 UNL     1      29.256   0.012  55.680  1.00  0.00     0.155 HD
ENDROOT
BRANCH   1   8
HETATM    8  N1  UNL     1      25.693   2.641  53.341  1.00  0.00    -0.370 N 
HETATM    9  H7  UNL     1      25.125   3.147  54.096  1.00  0.00     0.161 HD
BRANCH   8  10
HETATM   10  C7  UNL     1      25.370   2.924  51.966  1.00  0.00     0.162 C 
BRANCH  10  11
HETATM   11  C6  UNL     1      24.035   3.509  51.739  1.00  0.00    -0.006 A 
HETATM   12  C1  UNL     1      23.343   4.481  52.403  1.00  0.00     0.073 A 
HETATM   13  C2  UNL     1      22.084   4.928  52.106  1.00  0.00     0.039 A 
HETATM   14  C3  UNL     1      21.430   4.346  51.026  1.00  0.00     0.026 A 
HETATM   15  C4  UNL     1      22.078   3.363  50.318  1.00  0.00     0.034 A 
HETATM   16 CL1  UNL     1      21.139   2.720  48.986  1.00  0.00    -0.084 Cl
HETATM   17  C5  UNL     1      23.351   2.942  50.652  1.00  0.00     0.035 A 
BRANCH  12  18
HETATM   18  O1  UNL     1      23.974   5.068  53.472  1.00  0.00    -0.360 OA
HETATM   19  H1  UNL     1      24.954   4.886  53.620  1.00  0.00     0.217 HD
ENDBRANCH  12  18
ENDBRANCH  10  11
ENDBRANCH   8  10
ENDBRANCH   1   8
BRANCH   6  20
HETATM   20  N4  UNL     1      25.499  -0.354  53.734  1.00  0.00    -0.356 N 
HETATM   21  H12 UNL     1      25.862  -0.921  52.917  1.00  0.00     0.162 HD
BRANCH  20  22
HETATM   22  C11 UNL     1      24.098  -0.552  53.870  1.00  0.00     0.032 A 
HETATM   23  C12 UNL     1      23.432  -1.129  54.947  1.00  0.00     0.032 A 
HETATM   24  C13 UNL     1      22.084  -1.262  54.953  1.00  0.00     0.046 A 
HETATM   25  C14 UNL     1      21.273  -0.850  53.923  1.00  0.00     0.138 A 
HETATM   26  F1  UNL     1      19.938  -1.010  53.988  1.00  0.00    -0.204 F 
HETATM   27  C15 UNL     1      21.920  -0.274  52.843  1.00  0.00     0.074 A 
HETATM   28 CL2  UNL     1      20.856   0.247  51.527  1.00  0.00    -0.081 Cl
HETATM   29  C16 UNL     1      23.312  -0.128  52.820  1.00  0.00     0.056 A 
ENDBRANCH  20  22
ENDBRANCH   6  20
TORSDOF 6
ENDMDL
MODEL 3
REMARK VINA RESULT:      -8.2      2.325      5.329
REMARK  6 active torsions:
REMARK  status: ('A' for Active; 'I' for Inactive)
REMARK    1  A    between atoms: O1_1  and  C1_2 
REMARK    2  A    between atoms: C6_8  and  C7_9 
REMARK    3  A    between atoms: C7_9  and  N1_10 
REMARK    4  A    between atoms: N1_10  and  C8_11 
REMARK    5  A    between atoms: C10_16  and  N4_17 
REMARK    6  A    between atoms: N4_17  and  C11_18 
ROOT
HETATM    1  C8  UNL     1      27.365   1.851  53.012  1.00  0.00     0.147 C 
HETATM    2  N2  UNL     1      28.672   1.862  53.047  1.00  0.00    -0.256 NA
HETATM    3  C9  UNL     1      29.367   0.998  53.980  1.00  0.00     0.268 C 
HETATM    4  N3  UNL     1      28.459   0.712  55.072  1.00  0.00    -0.183 NA
HETATM    5  O2  UNL     1      27.351   0.088  54.604  1.00  0.00    -0.270 OA
HETATM    6  C10 UNL     1      26.532   0.970  53.902  1.00  0.00     0.314 C 
HETATM    7  H10 UNL     1      28.862   0.123  55.807  1.00  0.00     0.155 HD
ENDROOT
BRANCH   1   8
HETATM    8  N1  UNL     1      26.825   2.741  52.055  1.00  0.00    -0.370 N 
HETATM    9  H7  UNL     1      26.570   3.702  52.457  1.00  0.00     0.161 HD
BRANCH   8  10
HETATM   10  C7  UNL     1      26.594   2.527  50.650  1.00  0.00     0.162 C 
BRANCH  10  11
HETATM   11  C6  UNL     1      26.047   3.684  49.916  1.00  0.00    -0.006 A 
HETATM   12  C1  UNL     1      26.652   4.766  49.344  1.00  0.00     0.073 A 
HETATM   13  C2  UNL     1      26.026   5.800  48.701  1.00  0.00     0.039 A 
HETATM   14  C3  UNL     1      24.638   5.761  48.615  1.00  0.00     0.026 A 
HETATM   15  C4  UNL     1      23.974   4.695  49.172  1.00  0.00     0.034 A 
HETATM   16 CL1  UNL     1      22.234   4.776  48.989  1.00  0.00    -0.084 Cl
HETATM   17  C5  UNL     1      24.647   3.671  49.811  1.00  0.00     0.035 A 
BRANCH  12  18
HETATM   18  O1  UNL     1      28.022   4.820  49.418  1.00  0.00    -0.360 OA
HETATM   19  H1  UNL     1      28.450   5.246  50.225  1.00  0.00     0.217 HD
ENDBRANCH  12  18
ENDBRANCH  10  11
ENDBRANCH   8  10
ENDBRANCH   1   8
BRANCH   6  20
HETATM   20  N4  UNL     1      25.526   0.251  53.183  1.00  0.00    -0.356 N 
HETATM   21  H12 UNL     1      25.789  -0.571  52.570  1.00  0.00     0.162 HD
BRANCH  20  22
HETATM   22  C11 UNL     1      24.119   0.452  53.135  1.00  0.00     0.032 A 
HETATM   23  C12 UNL     1      23.444   1.544  52.599  1.00  0.00     0.032 A 
HETATM   24  C13 UNL     1      22.092   1.615  52.617  1.00  0.00     0.046 A 
HETATM   25  C14 UNL     1      21.284   0.641  53.153  1.00  0.00     0.138 A 
HETATM   26  F1  UNL     1      19.944   0.769  53.141  1.00  0.00    -0.204 F 
HETATM   27  C15 UNL     1      21.940  -0.453  53.691  1.00  0.00     0.074 A 
HETATM   28 CL2  UNL     1      20.881  -1.695  54.378  1.00  0.00    -0.081 Cl
HETATM   29  C16 UNL     1      23.337  -0.544  53.681  1.00  0.00     0.056 A 
ENDBRANCH  20  22
ENDBRANCH   6  20
TORSDOF 6
ENDMDL
MODEL 4
REMARK VINA RESULT:      -8.0      2.900      5.575
REMARK  6 active torsions:
REMARK  status: ('A' for Active; 'I' for Inactive)
REMARK    1  A    between atoms: O1_1  and  C1_2 
REMARK    2  A    between atoms: C6_8  and  C7_9 
REMARK    3  A    between atoms: C7_9  and  N1_10 
REMARK    4  A    between atoms: N1_10  and  C8_11 
REMARK    5  A    between atoms: C10_16  and  N4_17 
REMARK    6  A    between atoms: N4_17  and  C11_18 
ROOT
HETATM    1  C8  UNL     1      27.198   1.658  53.136  1.00  0.00     0.147 C 
HETATM    2  N2  UNL     1      28.502   1.750  53.096  1.00  0.00    -0.256 NA
HETATM    3  C9  UNL     1      29.302   0.908  53.961  1.00  0.00     0.268 C 
HETATM    4  N3  UNL     1      28.480   0.537  55.095  1.00  0.00    -0.183 NA
HETATM    5  O2  UNL     1      27.385  -0.143  54.673  1.00  0.00    -0.270 OA
HETATM    6  C10 UNL     1      26.474   0.704  54.046  1.00  0.00     0.314 C 
HETATM    7  H10 UNL     1      28.960  -0.044  55.788  1.00  0.00     0.155 HD
ENDROOT
BRANCH   1   8
HETATM    8  N1  UNL     1      26.549   2.538  52.238  1.00  0.00    -0.370 N 
HETATM    9  H7  UNL     1      26.069   3.367  52.720  1.00  0.00     0.161 HD
BRANCH   8  10
HETATM   10  C7  UNL     1      26.467   2.465  50.802  1.00  0.00     0.162 C 
BRANCH  10  11
HETATM   11  C6  UNL     1      26.033   3.705  50.132  1.00  0.00    -0.006 A 
HETATM   12  C1  UNL     1      24.813   4.312  50.042  1.00  0.00     0.073 A 
HETATM   13  C2  UNL     1      24.528   5.466  49.363  1.00  0.00     0.039 A 
HETATM   14  C3  UNL     1      25.571   6.094  48.691  1.00  0.00     0.026 A 
HETATM   15  C4  UNL     1      26.822   5.530  48.746  1.00  0.00     0.034 A 
HETATM   16 CL1  UNL     1      28.038   6.425  47.857  1.00  0.00    -0.084 Cl
HETATM   17  C5  UNL     1      27.067   4.364  49.445  1.00  0.00     0.035 A 
BRANCH  12  18
HETATM   18  O1  UNL     1      23.771   3.706  50.701  1.00  0.00    -0.360 OA
HETATM   19  H1  UNL     1      23.970   2.950  51.335  1.00  0.00     0.217 HD
ENDBRANCH  12  18
ENDBRANCH  10  11
ENDBRANCH   8  10
ENDBRANCH   1   8
BRANCH   6  20
HETATM   20  N4  UNL     1      25.473  -0.058  53.364  1.00  0.00    -0.356 N 
HETATM   21  H12 UNL     1      25.741  -0.713  52.577  1.00  0.00     0.162 HD
BRANCH  20  22
HETATM   22  C11 UNL     1      24.066  -0.102  53.565  1.00  0.00     0.032 A 
HETATM   23  C12 UNL     1      23.374  -0.879  54.488  1.00  0.00     0.032 A 
HETATM   24  C13 UNL     1      22.023  -0.830  54.579  1.00  0.00     0.046 A 
HETATM   25  C14 UNL     1      21.234  -0.028  53.788  1.00  0.00     0.138 A 
HETATM   26  F1  UNL     1      19.896  -0.023  53.926  1.00  0.00    -0.204 F 
HETATM   27  C15 UNL     1      21.908   0.752  52.864  1.00  0.00     0.074 A 
HETATM   28 CL2  UNL     1      20.874   1.775  51.856  1.00  0.00    -0.081 Cl
HETATM   29  C16 UNL     1      23.304   0.714  52.757  1.00  0.00     0.056 A 
ENDBRANCH  20  22
ENDBRANCH   6  20
TORSDOF 6
ENDMDL
MODEL 5
REMARK VINA RESULT:      -7.9      3.424      5.283
REMARK  6 active torsions:
REMARK  status: ('A' for Active; 'I' for Inactive)
REMARK    1  A    between atoms: O1_1  and  C1_2 
REMARK    2  A    between atoms: C6_8  and  C7_9 
REMARK    3  A    between atoms: C7_9  and  N1_10 
REMARK    4  A    between atoms: N1_10  and  C8_11 
REMARK    5  A    between atoms: C10_16  and  N4_17 
REMARK    6  A    between atoms: N4_17  and  C11_18 
ROOT
HETATM    1  C8  UNL     1      24.192   3.039  51.070  1.00  0.00     0.147 C 
HETATM    2  N2  UNL     1      23.911   3.778  50.028  1.00  0.00    -0.256 NA
HETATM    3  C9  UNL     1      24.983   4.453  49.325  1.00  0.00     0.268 C 
HETATM    4  N3  UNL     1      26.080   4.622  50.256  1.00  0.00    -0.183 NA
HETATM    5  O2  UNL     1      26.506   3.413  50.697  1.00  0.00    -0.270 OA
HETATM    6  C10 UNL     1      25.593   2.845  51.582  1.00  0.00     0.314 C 
HETATM    7  H10 UNL     1      26.888   5.114  49.865  1.00  0.00     0.155 HD
ENDROOT
BRANCH   1   8
HETATM    8  N1  UNL     1      23.049   2.442  51.654  1.00  0.00    -0.370 N 
HETATM    9  H7  UNL     1      22.652   2.994  52.482  1.00  0.00     0.161 HD
BRANCH   8  10
HETATM   10  C7  UNL     1      22.370   1.229  51.277  1.00  0.00     0.162 C 
BRANCH  10  11
HETATM   11  C6  UNL     1      21.918   0.384  52.399  1.00  0.00    -0.006 A 
HETATM   12  C1  UNL     1      22.586  -0.145  53.465  1.00  0.00     0.073 A 
HETATM   13  C2  UNL     1      22.054  -0.944  54.442  1.00  0.00     0.039 A 
HETATM   14  C3  UNL     1      20.702  -1.257  54.354  1.00  0.00     0.026 A 
HETATM   15  C4  UNL     1      19.977  -0.751  53.301  1.00  0.00     0.034 A 
HETATM   16 CL1  UNL     1      18.291  -1.225  53.316  1.00  0.00    -0.084 Cl
HETATM   17  C5  UNL     1      20.555   0.053  52.338  1.00  0.00     0.035 A 
BRANCH  12  18
HETATM   18  O1  UNL     1      23.922   0.155  53.569  1.00  0.00    -0.360 OA
HETATM   19  H1  UNL     1      24.493   0.129  52.740  1.00  0.00     0.217 HD
ENDBRANCH  12  18
ENDBRANCH  10  11
ENDBRANCH   8  10
ENDBRANCH   1   8
BRANCH   6  20
HETATM   20  N4  UNL     1      25.911   1.470  51.814  1.00  0.00    -0.356 N 
HETATM   21  H12 UNL     1      25.252   0.706  51.496  1.00  0.00     0.162 HD
BRANCH  20  22
HETATM   22  C11 UNL     1      27.046   0.891  52.446  1.00  0.00     0.032 A 
HETATM   23  C12 UNL     1      28.080   1.560  53.092  1.00  0.00     0.032 A 
HETATM   24  C13 UNL     1      29.111   0.886  53.656  1.00  0.00     0.046 A 
HETATM   25  C14 UNL     1      29.227  -0.483  53.641  1.00  0.00     0.138 A 
HETATM   26  F1  UNL     1      30.276  -1.095  54.220  1.00  0.00    -0.204 F 
HETATM   27  C15 UNL     1      28.206  -1.164  53.002  1.00  0.00     0.074 A 
HETATM   28 CL2  UNL     1      28.375  -2.926  52.992  1.00  0.00    -0.081 Cl
HETATM   29  C16 UNL     1      27.132  -0.485  52.413  1.00  0.00     0.056 A 
ENDBRANCH  20  22
ENDBRANCH   6  20
TORSDOF 6
ENDMDL
MODEL 6
REMARK VINA RESULT:      -7.9      3.329      5.903
REMARK  6 active torsions:
REMARK  status: ('A' for Active; 'I' for Inactive)
REMARK    1  A    between atoms: O1_1  and  C1_2 
REMARK    2  A    between atoms: C6_8  and  C7_9 
REMARK    3  A    between atoms: C7_9  and  N1_10 
REMARK    4  A    between atoms: N1_10  and  C8_11 
REMARK    5  A    between atoms: C10_16  and  N4_17 
REMARK    6  A    between atoms: N4_17  and  C11_18 
ROOT
HETATM    1  C8  UNL     1      24.385   3.361  50.708  1.00  0.00     0.147 C 
HETATM    2  N2  UNL     1      24.587   4.368  49.900  1.00  0.00    -0.256 NA
HETATM    3  C9  UNL     1      23.599   4.677  48.886  1.00  0.00     0.268 C 
HETATM    4  N3  UNL     1      22.858   3.463  48.612  1.00  0.00    -0.183 NA
HETATM    5  O2  UNL     1      22.243   3.030  49.740  1.00  0.00    -0.270 OA
HETATM    6  C10 UNL     1      23.158   2.494  50.643  1.00  0.00     0.314 C 
HETATM    7  H10 UNL     1      22.143   3.563  47.886  1.00  0.00     0.155 HD
ENDROOT
BRANCH   1   8
HETATM    8  N1  UNL     1      25.430   3.179  51.644  1.00  0.00    -0.370 N 
HETATM    9  H7  UNL     1      25.168   3.465  52.643  1.00  0.00     0.161 HD
BRANCH   8  10
HETATM   10  C7  UNL     1      26.758   2.663  51.428  1.00  0.00     0.162 C 
BRANCH  10  11
HETATM   11  C6  UNL     1      27.179   1.597  52.358  1.00  0.00    -0.006 A 
HETATM   12  C1  UNL     1      27.847   1.640  53.548  1.00  0.00     0.073 A 
HETATM   13  C2  UNL     1      28.205   0.566  54.317  1.00  0.00     0.039 A 
HETATM   14  C3  UNL     1      27.862  -0.701  53.856  1.00  0.00     0.026 A 
HETATM   15  C4  UNL     1      27.187  -0.807  52.664  1.00  0.00     0.034 A 
HETATM   16 CL1  UNL     1      26.821  -2.458  52.207  1.00  0.00    -0.084 Cl
HETATM   17  C5  UNL     1      26.844   0.305  51.919  1.00  0.00     0.035 A 
BRANCH  12  18
HETATM   18  O1  UNL     1      28.192   2.883  54.019  1.00  0.00    -0.360 OA
HETATM   19  H1  UNL     1      27.650   3.288  54.765  1.00  0.00     0.217 HD
ENDBRANCH  12  18
ENDBRANCH  10  11
ENDBRANCH   8  10
ENDBRANCH   1   8
BRANCH   6  20
HETATM   20  N4  UNL     1      22.546   2.305  51.922  1.00  0.00    -0.356 N 
HETATM   21  H12 UNL     1      22.174   3.134  52.466  1.00  0.00     0.162 HD
BRANCH  20  22
HETATM   22  C11 UNL     1      22.324   1.110  52.660  1.00  0.00     0.032 A 
HETATM   23  C12 UNL     1      21.154   0.361  52.713  1.00  0.00     0.032 A 
HETATM   24  C13 UNL     1      21.071  -0.765  53.461  1.00  0.00     0.046 A 
HETATM   25  C14 UNL     1      22.109  -1.258  54.215  1.00  0.00     0.138 A 
HETATM   26  F1  UNL     1      21.965  -2.384  54.938  1.00  0.00    -0.204 F 
HETATM   27  C15 UNL     1      23.282  -0.524  54.174  1.00  0.00     0.074 A 
HETATM   28 CL2  UNL     1      24.604  -1.174  55.154  1.00  0.00    -0.081 Cl
HETATM   29  C16 UNL     1      23.385   0.643  53.406  1.00  0.00     0.056 A 
ENDBRANCH  20  22
ENDBRANCH   6  20
TORSDOF 6
ENDMDL
MODEL 7
REMARK VINA RESULT:      -7.9      1.583      2.043
REMARK  6 active torsions:
REMARK  status: ('A' for Active; 'I' for Inactive)
REMARK    1  A    between atoms: O1_1  and  C1_2 
REMARK    2  A    between atoms: C6_8  and  C7_9 
REMARK    3  A    between atoms: C7_9  and  N1_10 
REMARK    4  A    between atoms: N1_10  and  C8_11 
REMARK    5  A    between atoms: C10_16  and  N4_17 
REMARK    6  A    between atoms: N4_17  and  C11_18 
ROOT
HETATM    1  C8  UNL     1      25.728   0.559  53.604  1.00  0.00     0.147 C 
HETATM    2  N2  UNL     1      26.442  -0.245  54.348  1.00  0.00    -0.256 NA
HETATM    3  C9  UNL     1      27.681   0.233  54.927  1.00  0.00     0.268 C 
HETATM    4  N3  UNL     1      28.156   1.327  54.105  1.00  0.00    -0.183 NA
HETATM    5  O2  UNL     1      27.240   2.326  54.085  1.00  0.00    -0.270 OA
HETATM    6  C10 UNL     1      26.130   1.980  53.318  1.00  0.00     0.314 C 
HETATM    7  H10 UNL     1      29.047   1.726  54.414  1.00  0.00     0.155 HD
ENDROOT
BRANCH   1   8
HETATM    8  N1  UNL     1      24.547  -0.042  53.108  1.00  0.00    -0.370 N 
HETATM    9  H7  UNL     1      24.421   0.069  52.049  1.00  0.00     0.161 HD
BRANCH   8  10
HETATM   10  C7  UNL     1      23.533  -0.770  53.826  1.00  0.00     0.162 C 
BRANCH  10  11
HETATM   11  C6  UNL     1      22.149  -0.538  53.371  1.00  0.00    -0.006 A 
HETATM   12  C1  UNL     1      20.945  -0.921  53.889  1.00  0.00     0.073 A 
HETATM   13  C2  UNL     1      19.712  -0.661  53.356  1.00  0.00     0.039 A 
HETATM   14  C3  UNL     1      19.661   0.064  52.170  1.00  0.00     0.026 A 
HETATM   15  C4  UNL     1      20.842   0.478  51.602  1.00  0.00     0.034 A 
HETATM   16 CL1  UNL     1      20.629   1.379  50.115  1.00  0.00    -0.084 Cl
HETATM   17  C5  UNL     1      22.066   0.194  52.175  1.00  0.00     0.035 A 
BRANCH  12  18
HETATM   18  O1  UNL     1      20.976  -1.636  55.062  1.00  0.00    -0.360 OA
HETATM   19  H1  UNL     1      21.727  -2.290  55.214  1.00  0.00     0.217 HD
ENDBRANCH  12  18
ENDBRANCH  10  11
ENDBRANCH   8  10
ENDBRANCH   1   8
BRANCH   6  20
HETATM   20  N4  UNL     1      25.065   2.910  53.535  1.00  0.00    -0.356 N 
HETATM   21  H12 UNL     1      24.853   3.265  54.510  1.00  0.00     0.162 HD
BRANCH  20  22
HETATM   22  C11 UNL     1      24.162   3.496  52.605  1.00  0.00     0.032 A 
HETATM   23  C12 UNL     1      23.216   4.482  52.862  1.00  0.00     0.032 A 
HETATM   24  C13 UNL     1      22.410   4.958  51.882  1.00  0.00     0.046 A 
HETATM   25  C14 UNL     1      22.454   4.521  50.579  1.00  0.00     0.138 A 
HETATM   26  F1  UNL     1      21.627   5.034  49.650  1.00  0.00    -0.204 F 
HETATM   27  C15 UNL     1      23.391   3.540  50.307  1.00  0.00     0.074 A 
HETATM   28 CL2  UNL     1      23.430   2.991  48.625  1.00  0.00    -0.081 Cl
HETATM   29  C16 UNL     1      24.232   3.036  51.307  1.00  0.00     0.056 A 
ENDBRANCH  20  22
ENDBRANCH   6  20
TORSDOF 6
ENDMDL
MODEL 8
REMARK VINA RESULT:      -7.8      4.217      6.154
REMARK  6 active torsions:
REMARK  status: ('A' for Active; 'I' for Inactive)
REMARK    1  A    between atoms: O1_1  and  C1_2 
REMARK    2  A    between atoms: C6_8  and  C7_9 
REMARK    3  A    between atoms: C7_9  and  N1_10 
REMARK    4  A    between atoms: N1_10  and  C8_11 
REMARK    5  A    between atoms: C10_16  and  N4_17 
REMARK    6  A    between atoms: N4_17  and  C11_18 
ROOT
HETATM    1  C8  UNL     1      24.348   3.386  51.929  1.00  0.00     0.147 C 
HETATM    2  N2  UNL     1      23.414   2.770  52.605  1.00  0.00    -0.256 NA
HETATM    3  C9  UNL     1      22.029   3.151  52.414  1.00  0.00     0.268 C 
HETATM    4  N3  UNL     1      22.013   4.517  51.930  1.00  0.00    -0.183 NA
HETATM    5  O2  UNL     1      22.681   4.601  50.754  1.00  0.00    -0.270 OA
HETATM    6  C10 UNL     1      24.056   4.483  50.943  1.00  0.00     0.314 C 
HETATM    7  H10 UNL     1      21.074   4.897  51.784  1.00  0.00     0.155 HD
ENDROOT
BRANCH   1   8
HETATM    8  N1  UNL     1      25.649   2.909  52.217  1.00  0.00    -0.370 N 
HETATM    9  H7  UNL     1      26.186   3.519  52.916  1.00  0.00     0.161 HD
BRANCH   8  10
HETATM   10  C7  UNL     1      26.316   1.737  51.709  1.00  0.00     0.162 C 
BRANCH  10  11
HETATM   11  C6  UNL     1      27.262   1.096  52.642  1.00  0.00    -0.006 A 
HETATM   12  C1  UNL     1      28.027   1.603  53.653  1.00  0.00     0.073 A 
HETATM   13  C2  UNL     1      28.895   0.901  54.444  1.00  0.00     0.039 A 
HETATM   14  C3  UNL     1      29.023  -0.464  54.210  1.00  0.00     0.026 A 
HETATM   15  C4  UNL     1      28.276  -1.031  53.205  1.00  0.00     0.034 A 
HETATM   16 CL1  UNL     1      28.537  -2.754  53.021  1.00  0.00    -0.084 Cl
HETATM   17  C5  UNL     1      27.410  -0.285  52.430  1.00  0.00     0.035 A 
BRANCH  12  18
HETATM   18  O1  UNL     1      27.912   2.949  53.900  1.00  0.00    -0.360 OA
HETATM   19  H1  UNL     1      28.447   3.354  54.651  1.00  0.00     0.217 HD
ENDBRANCH  12  18
ENDBRANCH  10  11
ENDBRANCH   8  10
ENDBRANCH   1   8
BRANCH   6  20
HETATM   20  N4  UNL     1      24.718   4.291  49.690  1.00  0.00    -0.356 N 
HETATM   21  H12 UNL     1      24.348   3.585  48.991  1.00  0.00     0.162 HD
BRANCH  20  22
HETATM   22  C11 UNL     1      25.876   4.925  49.162  1.00  0.00     0.032 A 
HETATM   23  C12 UNL     1      27.151   4.383  49.045  1.00  0.00     0.032 A 
HETATM   24  C13 UNL     1      28.176   5.098  48.523  1.00  0.00     0.046 A 
HETATM   25  C14 UNL     1      28.052   6.390  48.072  1.00  0.00     0.138 A 
HETATM   26  F1  UNL     1      29.109   7.049  47.562  1.00  0.00    -0.204 F 
HETATM   27  C15 UNL     1      26.789   6.946  48.181  1.00  0.00     0.074 A 
HETATM   28 CL2  UNL     1      26.652   8.611  47.597  1.00  0.00    -0.081 Cl
HETATM   29  C16 UNL     1      25.718   6.221  48.719  1.00  0.00     0.056 A 
ENDBRANCH  20  22
ENDBRANCH   6  20
TORSDOF 6
ENDMDL
MODEL 9
REMARK VINA RESULT:      -7.8      3.657      5.275
REMARK  6 active torsions:
REMARK  status: ('A' for Active; 'I' for Inactive)
REMARK    1  A    between atoms: O1_1  and  C1_2 
REMARK    2  A    between atoms: C6_8  and  C7_9 
REMARK    3  A    between atoms: C7_9  and  N1_10 
REMARK    4  A    between atoms: N1_10  and  C8_11 
REMARK    5  A    between atoms: C10_16  and  N4_17 
REMARK    6  A    between atoms: N4_17  and  C11_18 
ROOT
HETATM    1  C8  UNL     1      23.506   3.447  51.537  1.00  0.00     0.147 C 
HETATM    2  N2  UNL     1      22.937   4.350  50.783  1.00  0.00    -0.256 NA
HETATM    3  C9  UNL     1      23.760   5.201  49.947  1.00  0.00     0.268 C 
HETATM    4  N3  UNL     1      25.081   5.253  50.541  1.00  0.00    -0.183 NA
HETATM    5  O2  UNL     1      25.614   4.009  50.599  1.00  0.00    -0.270 OA
HETATM    6  C10 UNL     1      24.995   3.238  51.580  1.00  0.00     0.314 C 
HETATM    7  H10 UNL     1      25.741   5.853  50.038  1.00  0.00     0.155 HD
ENDROOT
BRANCH   1   8
HETATM    8  N1  UNL     1      22.582   2.691  52.296  1.00  0.00    -0.370 N 
HETATM    9  H7  UNL     1      22.450   3.053  53.297  1.00  0.00     0.161 HD
BRANCH   8  10
HETATM   10  C7  UNL     1      21.813   1.540  51.899  1.00  0.00     0.162 C 
BRANCH  10  11
HETATM   11  C6  UNL     1      21.797   0.427  52.866  1.00  0.00    -0.006 A 
HETATM   12  C1  UNL     1      20.797  -0.407  53.278  1.00  0.00     0.073 A 
HETATM   13  C2  UNL     1      20.903  -1.402  54.212  1.00  0.00     0.039 A 
HETATM   14  C3  UNL     1      22.143  -1.597  54.811  1.00  0.00     0.026 A 
HETATM   15  C4  UNL     1      23.189  -0.788  54.435  1.00  0.00     0.034 A 
HETATM   16 CL1  UNL     1      24.688  -1.144  55.268  1.00  0.00    -0.084 Cl
HETATM   17  C5  UNL     1      23.038   0.205  53.486  1.00  0.00     0.035 A 
BRANCH  12  18
HETATM   18  O1  UNL     1      19.566  -0.230  52.696  1.00  0.00    -0.360 OA
HETATM   19  H1  UNL     1      19.514   0.211  51.793  1.00  0.00     0.217 HD
ENDBRANCH  12  18
ENDBRANCH  10  11
ENDBRANCH   8  10
ENDBRANCH   1   8
BRANCH   6  20
HETATM   20  N4  UNL     1      25.364   1.862  51.441  1.00  0.00    -0.356 N 
HETATM   21  H12 UNL     1      24.870   1.243  50.738  1.00  0.00     0.162 HD
BRANCH  20  22
HETATM   22  C11 UNL     1      26.356   1.110  52.128  1.00  0.00     0.032 A 
HETATM   23  C12 UNL     1      26.494  -0.273  52.152  1.00  0.00     0.032 A 
HETATM   24  C13 UNL     1      27.488  -0.871  52.852  1.00  0.00     0.046 A 
HETATM   25  C14 UNL     1      28.427  -0.182  53.582  1.00  0.00     0.138 A 
HETATM   26  F1  UNL     1      29.393  -0.833  54.256  1.00  0.00    -0.204 F 
HETATM   27  C15 UNL     1      28.305   1.197  53.568  1.00  0.00     0.074 A 
HETATM   28 CL2  UNL     1      29.523   2.064  54.516  1.00  0.00    -0.081 Cl
HETATM   29  C16 UNL     1      27.283   1.831  52.851  1.00  0.00     0.056 A 
ENDBRANCH  20  22
ENDBRANCH   6  20
TORSDOF 6
ENDMDL
