MODEL 1
REMARK VINA RESULT:      -8.1      0.000      0.000
REMARK  3 active torsions:
REMARK  status: ('A' for Active; 'I' for Inactive)
REMARK       I    between atoms: N1_1  and  C1_2 
REMARK       I    between atoms: C1_2  and  N2_4 
REMARK    1  A    between atoms: N2_4  and  C2_5 
REMARK    2  A    between atoms: C7_12  and  N5_13 
REMARK    3  A    between atoms: N5_13  and  C8_14 
ROOT
HETATM    1  C2  UNL     1      22.219   0.652  51.629  1.00  0.00     0.037 A 
HETATM    2  C3  UNL     1      21.640   0.871  50.387  1.00  0.00     0.032 A 
HETATM    3  C4  UNL     1      22.221   1.780  49.545  1.00  0.00     0.035 A 
HETATM    4  C5  UNL     1      23.357   2.446  49.950  1.00  0.00     0.072 A 
HETATM    5  N3  UNL     1      23.904   3.334  49.072  1.00  0.00    -0.241 NA
HETATM    6  C6  UNL     1      25.027   4.000  49.433  1.00  0.00     0.236 A 
HETATM    7  N4  UNL     1      25.656   3.852  50.611  1.00  0.00    -0.224 NA
HETATM    8  C7  UNL     1      25.127   2.980  51.487  1.00  0.00     0.142 A 
HETATM    9  C14 UNL     1      23.967   2.263  51.170  1.00  0.00     0.041 A 
HETATM   10  C15 UNL     1      23.357   1.328  52.018  1.00  0.00     0.047 A 
ENDROOT
BRANCH   8  11
HETATM   11  N5  UNL     1      25.677   2.685  52.753  1.00  0.00    -0.340 N 
HETATM   12  H7  UNL     1      25.300   3.173  53.593  1.00  0.00     0.167 HD
BRANCH  11  13
HETATM   13  C8  UNL     1      26.742   1.763  52.973  1.00  0.00     0.033 A 
HETATM   14  C9  UNL     1      26.655   0.404  52.771  1.00  0.00     0.031 A 
HETATM   15  C10 UNL     1      27.674  -0.489  53.006  1.00  0.00     0.026 A 
HETATM   16  C11 UNL     1      28.886   0.011  53.482  1.00  0.00     0.034 A 
HETATM   17 CL1  UNL     1      30.188  -1.131  53.788  1.00  0.00    -0.084 Cl
HETATM   18  C12 UNL     1      29.021   1.364  53.698  1.00  0.00     0.026 A 
HETATM   19  C13 UNL     1      27.961   2.206  53.443  1.00  0.00     0.031 A 
ENDBRANCH  11  13
ENDBRANCH   8  11
BRANCH   1  20
HETATM   20  N2  UNL     1      21.790  -0.241  52.649  1.00  0.00    -0.309 N 
HETATM   21  C1  UNL     1      20.827   0.401  53.485  1.00  0.00     0.318 C 
HETATM   22  N1  UNL     1      20.223  -0.247  54.596  1.00  0.00    -0.352 N 
HETATM   23  O1  UNL     1      20.373   1.566  53.403  1.00  0.00    -0.247 OA
HETATM   24  H1  UNL     1      20.886  -0.840  55.139  1.00  0.00     0.160 HD
HETATM   25  H2  UNL     1      19.252  -0.204  54.926  1.00  0.00     0.160 HD
HETATM   26  H3  UNL     1      22.072  -1.228  52.847  1.00  0.00     0.170 HD
ENDBRANCH   1  20
TORSDOF 3
ENDMDL
MODEL 2
REMARK VINA RESULT:      -8.1      2.561      4.168
REMARK  3 active torsions:
REMARK  status: ('A' for Active; 'I' for Inactive)
REMARK       I    between atoms: N1_1  and  C1_2 
REMARK       I    between atoms: C1_2  and  N2_4 
REMARK    1  A    between atoms: N2_4  and  C2_5 
REMARK    2  A    between atoms: C7_12  and  N5_13 
REMARK    3  A    between atoms: N5_13  and  C8_14 
ROOT
HETATM    1  C2  UNL     1      20.487   0.987  51.734  1.00  0.00     0.037 A 
HETATM    2  C3  UNL     1      19.416   0.265  52.243  1.00  0.00     0.032 A 
HETATM    3  C4  UNL     1      19.647  -0.620  53.260  1.00  0.00     0.035 A 
HETATM    4  C5  UNL     1      20.927  -0.768  53.749  1.00  0.00     0.072 A 
HETATM    5  N3  UNL     1      21.105  -1.654  54.770  1.00  0.00    -0.241 NA
HETATM    6  C6  UNL     1      22.347  -1.818  55.281  1.00  0.00     0.236 A 
HETATM    7  N4  UNL     1      23.441  -1.164  54.854  1.00  0.00    -0.224 NA
HETATM    8  C7  UNL     1      23.281  -0.287  53.848  1.00  0.00     0.142 A 
HETATM    9  C14 UNL     1      22.019  -0.075  53.278  1.00  0.00     0.041 A 
HETATM   10  C15 UNL     1      21.762   0.826  52.236  1.00  0.00     0.047 A 
ENDROOT
BRANCH   8  11
HETATM   11  N5  UNL     1      24.316   0.502  53.302  1.00  0.00    -0.340 N 
HETATM   12  H7  UNL     1      24.067   1.379  52.796  1.00  0.00     0.167 HD
BRANCH  11  13
HETATM   13  C8  UNL     1      25.702   0.177  53.377  1.00  0.00     0.033 A 
HETATM   14  C9  UNL     1      26.313  -0.817  52.647  1.00  0.00     0.031 A 
HETATM   15  C10 UNL     1      27.645  -1.147  52.735  1.00  0.00     0.026 A 
HETATM   16  C11 UNL     1      28.440  -0.427  53.628  1.00  0.00     0.034 A 
HETATM   17 CL1  UNL     1      30.142  -0.852  53.746  1.00  0.00    -0.084 Cl
HETATM   18  C12 UNL     1      27.872   0.577  54.379  1.00  0.00     0.026 A 
HETATM   19  C13 UNL     1      26.531   0.859  54.243  1.00  0.00     0.031 A 
ENDBRANCH  11  13
ENDBRANCH   8  11
BRANCH   1  20
HETATM   20  N2  UNL     1      20.474   1.954  50.691  1.00  0.00    -0.309 N 
HETATM   21  C1  UNL     1      20.059   3.219  51.205  1.00  0.00     0.318 C 
HETATM   22  N1  UNL     1      19.945   4.378  50.390  1.00  0.00    -0.352 N 
HETATM   23  O1  UNL     1      19.738   3.520  52.379  1.00  0.00    -0.247 OA
HETATM   24  H1  UNL     1      19.546   4.183  49.448  1.00  0.00     0.160 HD
HETATM   25  H2  UNL     1      20.193   5.351  50.604  1.00  0.00     0.160 HD
HETATM   26  H3  UNL     1      20.711   1.859  49.678  1.00  0.00     0.170 HD
ENDBRANCH   1  20
TORSDOF 3
ENDMDL
MODEL 3
REMARK VINA RESULT:      -8.1      2.112      4.268
REMARK  3 active torsions:
REMARK  status: ('A' for Active; 'I' for Inactive)
REMARK       I    between atoms: N1_1  and  C1_2 
REMARK       I    between atoms: C1_2  and  N2_4 
REMARK    1  A    between atoms: N2_4  and  C2_5 
REMARK    2  A    between atoms: C7_12  and  N5_13 
REMARK    3  A    between atoms: N5_13  and  C8_14 
ROOT
HETATM    1  C2  UNL     1      24.725   4.383  49.986  1.00  0.00     0.037 A 
HETATM    2  C3  UNL     1      23.803   4.314  48.952  1.00  0.00     0.032 A 
HETATM    3  C4  UNL     1      22.850   3.332  48.987  1.00  0.00     0.035 A 
HETATM    4  C5  UNL     1      22.832   2.446  50.042  1.00  0.00     0.072 A 
HETATM    5  N3  UNL     1      21.859   1.492  50.037  1.00  0.00    -0.241 NA
HETATM    6  C6  UNL     1      21.805   0.610  51.063  1.00  0.00     0.236 A 
HETATM    7  N4  UNL     1      22.654   0.599  52.105  1.00  0.00    -0.224 NA
HETATM    8  C7  UNL     1      23.621   1.534  52.123  1.00  0.00     0.142 A 
HETATM    9  C14 UNL     1      23.726   2.473  51.089  1.00  0.00     0.041 A 
HETATM   10  C15 UNL     1      24.693   3.486  51.035  1.00  0.00     0.047 A 
ENDROOT
BRANCH   8  11
HETATM   11  N5  UNL     1      24.572   1.682  53.154  1.00  0.00    -0.340 N 
HETATM   12  H7  UNL     1      24.379   2.357  53.925  1.00  0.00     0.167 HD
BRANCH  11  13
HETATM   13  C8  UNL     1      25.809   0.977  53.217  1.00  0.00     0.033 A 
HETATM   14  C9  UNL     1      26.016  -0.288  52.713  1.00  0.00     0.031 A 
HETATM   15  C10 UNL     1      27.203  -0.978  52.793  1.00  0.00     0.026 A 
HETATM   16  C11 UNL     1      28.278  -0.359  53.430  1.00  0.00     0.034 A 
HETATM   17 CL1  UNL     1      29.794  -1.243  53.539  1.00  0.00    -0.084 Cl
HETATM   18  C12 UNL     1      28.119   0.906  53.950  1.00  0.00     0.026 A 
HETATM   19  C13 UNL     1      26.904   1.545  53.835  1.00  0.00     0.031 A 
ENDBRANCH  11  13
ENDBRANCH   8  11
BRANCH   1  20
HETATM   20  N2  UNL     1      25.787   5.314  50.153  1.00  0.00    -0.309 N 
HETATM   21  C1  UNL     1      25.267   6.571  50.586  1.00  0.00     0.318 C 
HETATM   22  N1  UNL     1      26.096   7.700  50.830  1.00  0.00    -0.352 N 
HETATM   23  O1  UNL     1      24.077   6.890  50.811  1.00  0.00    -0.247 OA
HETATM   24  H1  UNL     1      26.864   7.807  50.135  1.00  0.00     0.160 HD
HETATM   25  H2  UNL     1      26.035   8.403  51.576  1.00  0.00     0.160 HD
HETATM   26  H3  UNL     1      26.815   5.201  50.007  1.00  0.00     0.170 HD
ENDBRANCH   1  20
TORSDOF 3
ENDMDL
MODEL 4
REMARK VINA RESULT:      -8.0      3.372      5.635
REMARK  3 active torsions:
REMARK  status: ('A' for Active; 'I' for Inactive)
REMARK       I    between atoms: N1_1  and  C1_2 
REMARK       I    between atoms: C1_2  and  N2_4 
REMARK    1  A    between atoms: N2_4  and  C2_5 
REMARK    2  A    between atoms: C7_12  and  N5_13 
REMARK    3  A    between atoms: N5_13  and  C8_14 
ROOT
HETATM    1  C2  UNL     1      25.591   1.711  53.499  1.00  0.00     0.037 A 
HETATM    2  C3  UNL     1      24.933   0.492  53.412  1.00  0.00     0.032 A 
HETATM    3  C4  UNL     1      23.907   0.364  52.516  1.00  0.00     0.035 A 
HETATM    4  C5  UNL     1      23.559   1.440  51.729  1.00  0.00     0.072 A 
HETATM    5  N3  UNL     1      22.537   1.261  50.845  1.00  0.00    -0.241 NA
HETATM    6  C6  UNL     1      22.174   2.294  50.049  1.00  0.00     0.236 A 
HETATM    7  N4  UNL     1      22.752   3.507  50.063  1.00  0.00    -0.224 NA
HETATM    8  C7  UNL     1      23.761   3.699  50.931  1.00  0.00     0.142 A 
HETATM    9  C14 UNL     1      24.180   2.668  51.780  1.00  0.00     0.041 A 
HETATM   10  C15 UNL     1      25.229   2.778  52.704  1.00  0.00     0.047 A 
ENDROOT
BRANCH   8  11
HETATM   11  N5  UNL     1      24.494   4.899  51.053  1.00  0.00    -0.340 N 
HETATM   12  H7  UNL     1      24.273   5.547  51.839  1.00  0.00     0.167 HD
BRANCH  11  13
HETATM   13  C8  UNL     1      25.523   5.309  50.155  1.00  0.00     0.033 A 
HETATM   14  C9  UNL     1      26.405   4.456  49.532  1.00  0.00     0.031 A 
HETATM   15  C10 UNL     1      27.412   4.853  48.685  1.00  0.00     0.026 A 
HETATM   16  C11 UNL     1      27.557   6.217  48.434  1.00  0.00     0.034 A 
HETATM   17 CL1  UNL     1      28.849   6.726  47.356  1.00  0.00    -0.084 Cl
HETATM   18  C12 UNL     1      26.698   7.110  49.034  1.00  0.00     0.026 A 
HETATM   19  C13 UNL     1      25.708   6.647  49.873  1.00  0.00     0.031 A 
ENDBRANCH  11  13
ENDBRANCH   8  11
BRANCH   1  20
HETATM   20  N2  UNL     1      26.677   2.061  54.348  1.00  0.00    -0.309 N 
HETATM   21  C1  UNL     1      27.895   2.061  53.605  1.00  0.00     0.318 C 
HETATM   22  N1  UNL     1      29.152   2.369  54.194  1.00  0.00    -0.352 N 
HETATM   23  O1  UNL     1      28.071   1.806  52.391  1.00  0.00    -0.247 OA
HETATM   24  H1  UNL     1      29.270   1.969  55.149  1.00  0.00     0.160 HD
HETATM   25  H2  UNL     1      29.934   2.912  53.811  1.00  0.00     0.160 HD
HETATM   26  H3  UNL     1      26.690   2.297  55.366  1.00  0.00     0.170 HD
ENDBRANCH   1  20
TORSDOF 3
ENDMDL
MODEL 5
REMARK VINA RESULT:      -7.9      3.370      5.983
REMARK  3 active torsions:
REMARK  status: ('A' for Active; 'I' for Inactive)
REMARK       I    between atoms: N1_1  and  C1_2 
REMARK       I    between atoms: C1_2  and  N2_4 
REMARK    1  A    between atoms: N2_4  and  C2_5 
REMARK    2  A    between atoms: C7_12  and  N5_13 
REMARK    3  A    between atoms: N5_13  and  C8_14 
ROOT
HETATM    1  C2  UNL     1      25.039  -0.826  54.217  1.00  0.00     0.037 A 
HETATM    2  C3  UNL     1      24.330  -1.368  55.280  1.00  0.00     0.032 A 
HETATM    3  C4  UNL     1      22.977  -1.171  55.333  1.00  0.00     0.035 A 
HETATM    4  C5  UNL     1      22.360  -0.447  54.337  1.00  0.00     0.072 A 
HETATM    5  N3  UNL     1      21.010  -0.286  54.428  1.00  0.00    -0.241 NA
HETATM    6  C6  UNL     1      20.369   0.413  53.462  1.00  0.00     0.236 A 
HETATM    7  N4  UNL     1      20.971   0.972  52.398  1.00  0.00    -0.224 NA
HETATM    8  C7  UNL     1      22.303   0.823  52.295  1.00  0.00     0.142 A 
HETATM    9  C14 UNL     1      23.020   0.111  53.264  1.00  0.00     0.041 A 
HETATM   10  C15 UNL     1      24.405  -0.102  53.228  1.00  0.00     0.047 A 
ENDROOT
BRANCH   8  11
HETATM   11  N5  UNL     1      23.083   1.319  51.229  1.00  0.00    -0.340 N 
HETATM   12  H7  UNL     1      23.377   0.665  50.472  1.00  0.00     0.167 HD
BRANCH  11  13
HETATM   13  C8  UNL     1      23.524   2.670  51.114  1.00  0.00     0.033 A 
HETATM   14  C9  UNL     1      23.269   3.658  52.038  1.00  0.00     0.031 A 
HETATM   15  C10 UNL     1      23.673   4.967  51.916  1.00  0.00     0.026 A 
HETATM   16  C11 UNL     1      24.393   5.326  50.777  1.00  0.00     0.034 A 
HETATM   17 CL1  UNL     1      24.905   7.000  50.618  1.00  0.00    -0.084 Cl
HETATM   18  C12 UNL     1      24.673   4.372  49.825  1.00  0.00     0.026 A 
HETATM   19  C13 UNL     1      24.240   3.077  50.007  1.00  0.00     0.031 A 
ENDBRANCH  11  13
ENDBRANCH   8  11
BRANCH   1  20
HETATM   20  N2  UNL     1      26.436  -0.910  53.962  1.00  0.00    -0.309 N 
HETATM   21  C1  UNL     1      27.112   0.176  54.594  1.00  0.00     0.318 C 
HETATM   22  N1  UNL     1      28.519   0.357  54.508  1.00  0.00    -0.352 N 
HETATM   23  O1  UNL     1      26.629   1.103  55.285  1.00  0.00    -0.247 OA
HETATM   24  H1  UNL     1      28.907   0.144  53.565  1.00  0.00     0.160 HD
HETATM   25  H2  UNL     1      29.181   0.665  55.230  1.00  0.00     0.160 HD
HETATM   26  H3  UNL     1      26.982  -1.612  53.413  1.00  0.00     0.170 HD
ENDBRANCH   1  20
TORSDOF 3
ENDMDL
MODEL 6
REMARK VINA RESULT:      -7.9      3.241      5.221
REMARK  3 active torsions:
REMARK  status: ('A' for Active; 'I' for Inactive)
REMARK       I    between atoms: N1_1  and  C1_2 
REMARK       I    between atoms: C1_2  and  N2_4 
REMARK    1  A    between atoms: N2_4  and  C2_5 
REMARK    2  A    between atoms: C7_12  and  N5_13 
REMARK    3  A    between atoms: N5_13  and  C8_14 
ROOT
HETATM    1  C2  UNL     1      24.328  -0.463  53.547  1.00  0.00     0.037 A 
HETATM    2  C3  UNL     1      24.940  -0.764  54.756  1.00  0.00     0.032 A 
HETATM    3  C4  UNL     1      26.142  -0.176  55.046  1.00  0.00     0.035 A 
HETATM    4  C5  UNL     1      26.705   0.692  54.137  1.00  0.00     0.072 A 
HETATM    5  N3  UNL     1      27.898   1.260  54.476  1.00  0.00    -0.241 NA
HETATM    6  C6  UNL     1      28.477   2.126  53.611  1.00  0.00     0.236 A 
HETATM    7  N4  UNL     1      27.959   2.477  52.421  1.00  0.00    -0.224 NA
HETATM    8  C7  UNL     1      26.783   1.924  52.073  1.00  0.00     0.142 A 
HETATM    9  C14 UNL     1      26.138   1.021  52.927  1.00  0.00     0.041 A 
HETATM   10  C15 UNL     1      24.907   0.409  52.648  1.00  0.00     0.047 A 
ENDROOT
BRANCH   8  11
HETATM   11  N5  UNL     1      26.090   2.206  50.877  1.00  0.00    -0.340 N 
HETATM   12  H7  UNL     1      25.562   1.439  50.407  1.00  0.00     0.167 HD
BRANCH  11  13
HETATM   13  C8  UNL     1      26.068   3.481  50.240  1.00  0.00     0.033 A 
HETATM   14  C9  UNL     1      26.998   3.913  49.321  1.00  0.00     0.031 A 
HETATM   15  C10 UNL     1      26.991   5.151  48.724  1.00  0.00     0.026 A 
HETATM   16  C11 UNL     1      25.972   6.039  49.069  1.00  0.00     0.034 A 
HETATM   17 CL1  UNL     1      25.966   7.625  48.310  1.00  0.00    -0.084 Cl
HETATM   18  C12 UNL     1      25.019   5.651  49.983  1.00  0.00     0.026 A 
HETATM   19  C13 UNL     1      25.081   4.396  50.546  1.00  0.00     0.031 A 
ENDBRANCH  11  13
ENDBRANCH   8  11
BRANCH   1  20
HETATM   20  N2  UNL     1      23.088  -0.950  53.048  1.00  0.00    -0.309 N 
HETATM   21  C1  UNL     1      22.084  -0.849  54.058  1.00  0.00     0.318 C 
HETATM   22  N1  UNL     1      20.742  -1.266  53.848  1.00  0.00    -0.352 N 
HETATM   23  O1  UNL     1      22.191  -0.410  55.227  1.00  0.00    -0.247 OA
HETATM   24  H1  UNL     1      20.665  -2.149  53.299  1.00  0.00     0.160 HD
HETATM   25  H2  UNL     1      19.868  -0.829  54.161  1.00  0.00     0.160 HD
HETATM   26  H3  UNL     1      22.843  -1.342  52.111  1.00  0.00     0.170 HD
ENDBRANCH   1  20
TORSDOF 3
ENDMDL
MODEL 7
REMARK VINA RESULT:      -7.8      3.257      5.102
REMARK  3 active torsions:
REMARK  status: ('A' for Active; 'I' for Inactive)
REMARK       I    between atoms: N1_1  and  C1_2 
REMARK       I    between atoms: C1_2  and  N2_4 
REMARK    1  A    between atoms: N2_4  and  C2_5 
REMARK    2  A    between atoms: C7_12  and  N5_13 
REMARK    3  A    between atoms: N5_13  and  C8_14 
ROOT
HETATM    1  C2  UNL     1      23.487   6.375  51.414  1.00  0.00     0.037 A 
HETATM    2  C3  UNL     1      22.320   6.700  50.736  1.00  0.00     0.032 A 
HETATM    3  C4  UNL     1      21.358   5.737  50.589  1.00  0.00     0.035 A 
HETATM    4  C5  UNL     1      21.573   4.482  51.115  1.00  0.00     0.072 A 
HETATM    5  N3  UNL     1      20.582   3.561  50.951  1.00  0.00    -0.241 NA
HETATM    6  C6  UNL     1      20.754   2.319  51.462  1.00  0.00     0.236 A 
HETATM    7  N4  UNL     1      21.847   1.915  52.132  1.00  0.00    -0.224 NA
HETATM    8  C7  UNL     1      22.834   2.813  52.301  1.00  0.00     0.142 A 
HETATM    9  C14 UNL     1      22.712   4.112  51.793  1.00  0.00     0.041 A 
HETATM   10  C15 UNL     1      23.685   5.112  51.934  1.00  0.00     0.047 A 
ENDROOT
BRANCH   8  11
HETATM   11  N5  UNL     1      24.032   2.563  53.003  1.00  0.00    -0.340 N 
HETATM   12  H7  UNL     1      24.411   3.302  53.632  1.00  0.00     0.167 HD
BRANCH  11  13
HETATM   13  C8  UNL     1      24.787   1.358  52.904  1.00  0.00     0.033 A 
HETATM   14  C9  UNL     1      24.557   0.225  53.651  1.00  0.00     0.031 A 
HETATM   15  C10 UNL     1      25.300  -0.929  53.573  1.00  0.00     0.026 A 
HETATM   16  C11 UNL     1      26.366  -0.962  52.674  1.00  0.00     0.034 A 
HETATM   17 CL1  UNL     1      27.320  -2.435  52.578  1.00  0.00    -0.084 Cl
HETATM   18  C12 UNL     1      26.635   0.148  51.905  1.00  0.00     0.026 A 
HETATM   19  C13 UNL     1      25.852   1.274  52.030  1.00  0.00     0.031 A 
ENDBRANCH  11  13
ENDBRANCH   8  11
BRANCH   1  20
HETATM   20  N2  UNL     1      24.604   7.212  51.685  1.00  0.00    -0.309 N 
HETATM   21  C1  UNL     1      25.433   7.307  50.527  1.00  0.00     0.318 C 
HETATM   22  N1  UNL     1      26.629   8.074  50.501  1.00  0.00    -0.352 N 
HETATM   23  O1  UNL     1      25.274   6.771  49.405  1.00  0.00    -0.247 OA
HETATM   24  H1  UNL     1      27.183   8.005  51.381  1.00  0.00     0.160 HD
HETATM   25  H2  UNL     1      27.007   8.665  49.752  1.00  0.00     0.160 HD
HETATM   26  H3  UNL     1      24.871   7.723  52.557  1.00  0.00     0.170 HD
ENDBRANCH   1  20
TORSDOF 3
ENDMDL
MODEL 8
REMARK VINA RESULT:      -7.7      3.580      6.091
REMARK  3 active torsions:
REMARK  status: ('A' for Active; 'I' for Inactive)
REMARK       I    between atoms: N1_1  and  C1_2 
REMARK       I    between atoms: C1_2  and  N2_4 
REMARK    1  A    between atoms: N2_4  and  C2_5 
REMARK    2  A    between atoms: C7_12  and  N5_13 
REMARK    3  A    between atoms: N5_13  and  C8_14 
ROOT
HETATM    1  C2  UNL     1      25.964   6.999  49.110  1.00  0.00     0.037 A 
HETATM    2  C3  UNL     1      25.230   7.392  48.000  1.00  0.00     0.032 A 
HETATM    3  C4  UNL     1      24.022   6.793  47.768  1.00  0.00     0.035 A 
HETATM    4  C5  UNL     1      23.570   5.825  48.637  1.00  0.00     0.072 A 
HETATM    5  N3  UNL     1      22.356   5.266  48.370  1.00  0.00    -0.241 NA
HETATM    6  C6  UNL     1      21.876   4.317  49.208  1.00  0.00     0.236 A 
HETATM    7  N4  UNL     1      22.514   3.875  50.305  1.00  0.00    -0.224 NA
HETATM    8  C7  UNL     1      23.713   4.417  50.581  1.00  0.00     0.142 A 
HETATM    9  C14 UNL     1      24.261   5.402  49.750  1.00  0.00     0.041 A 
HETATM   10  C15 UNL     1      25.496   6.027  49.970  1.00  0.00     0.047 A 
ENDROOT
BRANCH   8  11
HETATM   11  N5  UNL     1      24.499   4.089  51.706  1.00  0.00    -0.340 N 
HETATM   12  H7  UNL     1      24.720   4.834  52.402  1.00  0.00     0.167 HD
BRANCH  11  13
HETATM   13  C8  UNL     1      25.040   2.795  51.962  1.00  0.00     0.033 A 
HETATM   14  C9  UNL     1      26.239   2.335  51.466  1.00  0.00     0.031 A 
HETATM   15  C10 UNL     1      26.749   1.078  51.692  1.00  0.00     0.026 A 
HETATM   16  C11 UNL     1      26.004   0.201  52.480  1.00  0.00     0.034 A 
HETATM   17 CL1  UNL     1      26.654  -1.408  52.765  1.00  0.00    -0.084 Cl
HETATM   18  C12 UNL     1      24.799   0.617  52.999  1.00  0.00     0.026 A 
HETATM   19  C13 UNL     1      24.343   1.889  52.736  1.00  0.00     0.031 A 
ENDBRANCH  11  13
ENDBRANCH   8  11
BRANCH   1  20
HETATM   20  N2  UNL     1      27.229   7.486  49.541  1.00  0.00    -0.309 N 
HETATM   21  C1  UNL     1      27.084   8.793  50.096  1.00  0.00     0.318 C 
HETATM   22  N1  UNL     1      28.184   9.536  50.605  1.00  0.00    -0.352 N 
HETATM   23  O1  UNL     1      26.043   9.478  50.224  1.00  0.00    -0.247 OA
HETATM   24  H1  UNL     1      29.047   9.443  50.029  1.00  0.00     0.160 HD
HETATM   25  H2  UNL     1      28.235  10.135  51.437  1.00  0.00     0.160 HD
HETATM   26  H3  UNL     1      28.174   7.041  49.502  1.00  0.00     0.170 HD
ENDBRANCH   1  20
TORSDOF 3
ENDMDL
MODEL 9
REMARK VINA RESULT:      -7.6      4.166      6.882
REMARK  3 active torsions:
REMARK  status: ('A' for Active; 'I' for Inactive)
REMARK       I    between atoms: N1_1  and  C1_2 
REMARK       I    between atoms: C1_2  and  N2_4 
REMARK    1  A    between atoms: N2_4  and  C2_5 
REMARK    2  A    between atoms: C7_12  and  N5_13 
REMARK    3  A    between atoms: N5_13  and  C8_14 
ROOT
HETATM    1  C2  UNL     1      25.459   0.243  53.669  1.00  0.00     0.037 A 
HETATM    2  C3  UNL     1      26.107   1.398  54.085  1.00  0.00     0.032 A 
HETATM    3  C4  UNL     1      25.547   2.609  53.782  1.00  0.00     0.035 A 
HETATM    4  C5  UNL     1      24.363   2.648  53.080  1.00  0.00     0.072 A 
HETATM    5  N3  UNL     1      23.839   3.878  52.811  1.00  0.00    -0.241 NA
HETATM    6  C6  UNL     1      22.671   3.954  52.130  1.00  0.00     0.236 A 
HETATM    7  N4  UNL     1      21.975   2.894  51.688  1.00  0.00    -0.224 NA
HETATM    8  C7  UNL     1      22.480   1.674  51.945  1.00  0.00     0.142 A 
HETATM    9  C14 UNL     1      23.684   1.532  52.645  1.00  0.00     0.041 A 
HETATM   10  C15 UNL     1      24.274   0.301  52.965  1.00  0.00     0.047 A 
ENDROOT
BRANCH   8  11
HETATM   11  N5  UNL     1      21.862   0.459  51.579  1.00  0.00    -0.340 N 
HETATM   12  H7  UNL     1      22.416  -0.250  51.053  1.00  0.00     0.167 HD
BRANCH  11  13
HETATM   13  C8  UNL     1      20.505   0.127  51.866  1.00  0.00     0.033 A 
HETATM   14  C9  UNL     1      20.074  -0.472  53.028  1.00  0.00     0.031 A 
HETATM   15  C10 UNL     1      18.770  -0.814  53.296  1.00  0.00     0.026 A 
HETATM   16  C11 UNL     1      17.808  -0.538  52.324  1.00  0.00     0.034 A 
HETATM   17 CL1  UNL     1      16.141  -0.980  52.663  1.00  0.00    -0.084 Cl
HETATM   18  C12 UNL     1      18.191   0.061  51.145  1.00  0.00     0.026 A 
HETATM   19  C13 UNL     1      19.516   0.380  50.938  1.00  0.00     0.031 A 
ENDBRANCH  11  13
ENDBRANCH   8  11
BRANCH   1  20
HETATM   20  N2  UNL     1      25.856  -1.107  53.875  1.00  0.00    -0.309 N 
HETATM   21  C1  UNL     1      26.916  -1.445  52.982  1.00  0.00     0.318 C 
HETATM   22  N1  UNL     1      27.515  -2.734  52.955  1.00  0.00    -0.352 N 
HETATM   23  O1  UNL     1      27.472  -0.725  52.119  1.00  0.00    -0.247 OA
HETATM   24  H1  UNL     1      26.829  -3.510  53.068  1.00  0.00     0.160 HD
HETATM   25  H2  UNL     1      28.502  -2.991  52.838  1.00  0.00     0.160 HD
HETATM   26  H3  UNL     1      25.495  -1.823  54.545  1.00  0.00     0.170 HD
ENDBRANCH   1  20
TORSDOF 3
ENDMDL
