MODEL 1
REMARK VINA RESULT:      -8.0      0.000      0.000
REMARK  4 active torsions:
REMARK  status: ('A' for Active; 'I' for Inactive)
REMARK    1  A    between atoms: C2_2  and  C3_4 
REMARK    2  A    between atoms: C7_9  and  C8_10 
REMARK    3  A    between atoms: C19_24  and  N5_25 
REMARK    4  A    between atoms: N5_25  and  C20_26 
ROOT
HETATM    1  C20 UNL     1      20.648  -0.197  53.259  1.00  0.00     0.189 C 
HETATM    2  C21 UNL     1      21.398  -0.820  54.367  1.00  0.00     0.250 C 
HETATM    3  O2  UNL     1      21.879  -1.468  55.277  1.00  0.00    -0.305 OA
ENDROOT
BRANCH   1   4
HETATM    4  N5  UNL     1      21.376   1.011  52.849  1.00  0.00    -0.382 N 
HETATM    5  H24 UNL     1      20.877   1.945  52.833  1.00  0.00     0.160 HD
BRANCH   4   6
HETATM    6  C19 UNL     1      22.691   1.253  52.444  1.00  0.00     0.053 C 
HETATM    7  C11 UNL     1      22.383   2.529  51.848  1.00  0.00     0.065 C 
HETATM    8  C10 UNL     1      22.147   3.625  52.817  1.00  0.00     0.108 C 
HETATM    9  N3  UNL     1      22.420   2.253  50.553  1.00  0.00    -0.263 NA
HETATM   10  C9  UNL     1      23.146   4.745  52.583  1.00  0.00     0.091 C 
HETATM   11  N2  UNL     1      23.781   5.285  51.614  1.00  0.00    -0.289 NA
HETATM   12  C8  UNL     1      23.561   5.280  50.203  1.00  0.00     0.195 C 
HETATM   13  C13 UNL     1      24.082   3.965  49.660  1.00  0.00    -0.014 C 
HETATM   14  C12 UNL     1      23.225   2.912  49.525  1.00  0.00     0.124 C 
HETATM   15  C14 UNL     1      25.490   4.303  49.437  1.00  0.00     0.152 C 
HETATM   16  N4  UNL     1      26.492   3.333  49.644  1.00  0.00    -0.414 N 
HETATM   17  C15 UNL     1      26.774   2.866  50.947  1.00  0.00     0.141 C 
HETATM   18  H18 UNL     1      27.309   3.404  48.997  1.00  0.00     0.153 HD
HETATM   19  C16 UNL     1      25.814   1.946  51.563  1.00  0.00    -0.008 C 
HETATM   20  C17 UNL     1      25.051   1.047  52.128  1.00  0.00    -0.000 C 
HETATM   21  C18 UNL     1      23.793   0.580  52.586  1.00  0.00     0.031 C 
BRANCH  12  22
HETATM   22  C7  UNL     1      24.103   6.460  49.499  1.00  0.00     0.073 C 
HETATM   23  C6  UNL     1      23.740   6.770  48.265  1.00  0.00     0.037 C 
HETATM   24  C5  UNL     1      23.958   7.767  47.176  1.00  0.00     0.299 C 
HETATM   25  N1  UNL     1      25.321   7.716  46.698  1.00  0.00     0.087 N 
HETATM   26  C4  UNL     1      26.221   8.443  47.583  1.00  0.00     0.284 C 
HETATM   27  H7  UNL     1      25.365   8.191  45.766  1.00  0.00     0.316 HD
HETATM   28  C3  UNL     1      26.788   7.474  48.578  1.00  0.00     0.107 C 
HETATM   29  C22 UNL     1      26.287   7.881  49.954  1.00  0.00     0.189 C 
HETATM   30  O3  UNL     1      25.033   7.230  50.230  1.00  0.00    -0.352 OA
BRANCH  28  31
HETATM   31  C2  UNL     1      28.243   7.283  48.502  1.00  0.00     0.131 C 
HETATM   32  C1  UNL     1      28.765   5.955  48.093  1.00  0.00     0.091 C 
HETATM   33  O1  UNL     1      29.041   8.196  48.770  1.00  0.00    -0.298 OA
ENDBRANCH  28  31
ENDBRANCH  12  22
ENDBRANCH   4   6
ENDBRANCH   1   4
TORSDOF 4
ENDMDL
MODEL 2
REMARK VINA RESULT:      -8.0      2.695      4.304
REMARK  4 active torsions:
REMARK  status: ('A' for Active; 'I' for Inactive)
REMARK    1  A    between atoms: C2_2  and  C3_4 
REMARK    2  A    between atoms: C7_9  and  C8_10 
REMARK    3  A    between atoms: C19_24  and  N5_25 
REMARK    4  A    between atoms: N5_25  and  C20_26 
ROOT
HETATM    1  C20 UNL     1      28.385   0.117  55.036  1.00  0.00     0.189 C 
HETATM    2  C21 UNL     1      29.194  -0.501  53.968  1.00  0.00     0.250 C 
HETATM    3  O2  UNL     1      29.949  -1.105  53.230  1.00  0.00    -0.305 OA
ENDROOT
BRANCH   1   4
HETATM    4  N5  UNL     1      27.426   1.030  54.401  1.00  0.00    -0.382 N 
HETATM    5  H24 UNL     1      27.666   2.056  54.298  1.00  0.00     0.160 HD
BRANCH   4   6
HETATM    6  C19 UNL     1      26.158   0.857  53.838  1.00  0.00     0.053 C 
HETATM    7  C11 UNL     1      26.169   2.132  53.167  1.00  0.00     0.065 C 
HETATM    8  C10 UNL     1      27.038   2.194  51.967  1.00  0.00     0.108 C 
HETATM    9  N3  UNL     1      25.341   2.851  53.910  1.00  0.00    -0.263 NA
HETATM   10  C9  UNL     1      26.207   2.545  50.746  1.00  0.00     0.091 C 
HETATM   11  N2  UNL     1      25.173   3.236  50.446  1.00  0.00    -0.289 NA
HETATM   12  C8  UNL     1      24.507   4.303  51.120  1.00  0.00     0.195 C 
HETATM   13  C13 UNL     1      23.644   3.696  52.208  1.00  0.00    -0.014 C 
HETATM   14  C12 UNL     1      24.148   3.574  53.470  1.00  0.00     0.124 C 
HETATM   15  C14 UNL     1      22.420   3.411  51.455  1.00  0.00     0.152 C 
HETATM   16  N4  UNL     1      21.654   2.267  51.757  1.00  0.00    -0.414 N 
HETATM   17  C15 UNL     1      22.162   0.977  51.487  1.00  0.00     0.141 C 
HETATM   18  H18 UNL     1      20.624   2.386  51.635  1.00  0.00     0.153 HD
HETATM   19  C16 UNL     1      23.208   0.459  52.374  1.00  0.00    -0.008 C 
HETATM   20  C17 UNL     1      24.070  -0.101  53.183  1.00  0.00    -0.000 C 
HETATM   21  C18 UNL     1      25.301  -0.118  53.884  1.00  0.00     0.031 C 
BRANCH  12  22
HETATM   22  C7  UNL     1      23.766   5.217  50.228  1.00  0.00     0.073 C 
HETATM   23  C6  UNL     1      23.457   4.887  48.984  1.00  0.00     0.037 C 
HETATM   24  C5  UNL     1      22.776   5.391  47.754  1.00  0.00     0.299 C 
HETATM   25  N1  UNL     1      23.472   6.537  47.214  1.00  0.00     0.087 N 
HETATM   26  C4  UNL     1      23.127   7.754  47.936  1.00  0.00     0.284 C 
HETATM   27  H7  UNL     1      23.163   6.676  46.223  1.00  0.00     0.316 HD
HETATM   28  C3  UNL     1      24.139   7.957  49.026  1.00  0.00     0.107 C 
HETATM   29  C22 UNL     1      23.413   7.836  50.356  1.00  0.00     0.189 C 
HETATM   30  O3  UNL     1      23.412   6.463  50.790  1.00  0.00    -0.352 OA
BRANCH  28  31
HETATM   31  C2  UNL     1      24.957   9.170  48.899  1.00  0.00     0.131 C 
HETATM   32  C1  UNL     1      24.792  10.016  47.690  1.00  0.00     0.091 C 
HETATM   33  O1  UNL     1      25.779   9.503  49.769  1.00  0.00    -0.298 OA
ENDBRANCH  28  31
ENDBRANCH  12  22
ENDBRANCH   4   6
ENDBRANCH   1   4
TORSDOF 4
ENDMDL
MODEL 3
REMARK VINA RESULT:      -8.0      3.308      5.410
REMARK  4 active torsions:
REMARK  status: ('A' for Active; 'I' for Inactive)
REMARK    1  A    between atoms: C2_2  and  C3_4 
REMARK    2  A    between atoms: C7_9  and  C8_10 
REMARK    3  A    between atoms: C19_24  and  N5_25 
REMARK    4  A    between atoms: N5_25  and  C20_26 
ROOT
HETATM    1  C20 UNL     1      28.457   0.177  54.993  1.00  0.00     0.189 C 
HETATM    2  C21 UNL     1      29.148  -0.535  53.901  1.00  0.00     0.250 C 
HETATM    3  O2  UNL     1      29.817  -1.208  53.141  1.00  0.00    -0.305 OA
ENDROOT
BRANCH   1   4
HETATM    4  N5  UNL     1      27.455   1.064  54.386  1.00  0.00    -0.382 N 
HETATM    5  H24 UNL     1      27.655   2.101  54.301  1.00  0.00     0.160 HD
BRANCH   4   6
HETATM    6  C19 UNL     1      26.189   0.853  53.835  1.00  0.00     0.053 C 
HETATM    7  C11 UNL     1      26.167   2.116  53.140  1.00  0.00     0.065 C 
HETATM    8  C10 UNL     1      27.028   2.176  51.935  1.00  0.00     0.108 C 
HETATM    9  N3  UNL     1      25.328   2.830  53.876  1.00  0.00    -0.263 NA
HETATM   10  C9  UNL     1      26.182   2.486  50.712  1.00  0.00     0.091 C 
HETATM   11  N2  UNL     1      25.131   3.148  50.407  1.00  0.00    -0.289 NA
HETATM   12  C8  UNL     1      24.446   4.213  51.066  1.00  0.00     0.195 C 
HETATM   13  C13 UNL     1      23.603   3.606  52.169  1.00  0.00    -0.014 C 
HETATM   14  C12 UNL     1      24.117   3.518  53.430  1.00  0.00     0.124 C 
HETATM   15  C14 UNL     1      22.381   3.281  51.429  1.00  0.00     0.152 C 
HETATM   16  N4  UNL     1      21.643   2.126  51.756  1.00  0.00    -0.414 N 
HETATM   17  C15 UNL     1      22.178   0.842  51.506  1.00  0.00     0.141 C 
HETATM   18  H18 UNL     1      20.609   2.220  51.638  1.00  0.00     0.153 HD
HETATM   19  C16 UNL     1      23.240   0.363  52.395  1.00  0.00    -0.008 C 
HETATM   20  C17 UNL     1      24.118  -0.162  53.210  1.00  0.00    -0.000 C 
HETATM   21  C18 UNL     1      25.354  -0.140  53.903  1.00  0.00     0.031 C 
BRANCH  12  22
HETATM   22  C7  UNL     1      23.680   5.094  50.162  1.00  0.00     0.073 C 
HETATM   23  C6  UNL     1      23.096   6.202  50.588  1.00  0.00     0.037 C 
HETATM   24  C5  UNL     1      22.269   7.360  50.137  1.00  0.00     0.299 C 
HETATM   25  N1  UNL     1      20.968   6.919  49.688  1.00  0.00     0.087 N 
HETATM   26  C4  UNL     1      21.026   6.396  48.330  1.00  0.00     0.284 C 
HETATM   27  H7  UNL     1      20.326   7.746  49.666  1.00  0.00     0.316 HD
HETATM   28  C3  UNL     1      21.236   4.912  48.405  1.00  0.00     0.107 C 
HETATM   29  C22 UNL     1      22.595   4.609  47.798  1.00  0.00     0.189 C 
HETATM   30  O3  UNL     1      23.612   4.673  48.816  1.00  0.00    -0.352 OA
BRANCH  28  31
HETATM   31  C2  UNL     1      20.141   4.099  47.861  1.00  0.00     0.131 C 
HETATM   32  C1  UNL     1      20.238   2.621  47.954  1.00  0.00     0.091 C 
HETATM   33  O1  UNL     1      19.143   4.613  47.328  1.00  0.00    -0.298 OA
ENDBRANCH  28  31
ENDBRANCH  12  22
ENDBRANCH   4   6
ENDBRANCH   1   4
TORSDOF 4
ENDMDL
MODEL 4
REMARK VINA RESULT:      -7.8      3.790      6.182
REMARK  4 active torsions:
REMARK  status: ('A' for Active; 'I' for Inactive)
REMARK    1  A    between atoms: C2_2  and  C3_4 
REMARK    2  A    between atoms: C7_9  and  C8_10 
REMARK    3  A    between atoms: C19_24  and  N5_25 
REMARK    4  A    between atoms: N5_25  and  C20_26 
ROOT
HETATM    1  C20 UNL     1      15.449   0.848  50.200  1.00  0.00     0.189 C 
HETATM    2  C21 UNL     1      15.497  -0.484  49.567  1.00  0.00     0.250 C 
HETATM    3  O2  UNL     1      15.346  -1.560  49.021  1.00  0.00    -0.305 OA
ENDROOT
BRANCH   1   4
HETATM    4  N5  UNL     1      16.817   1.202  50.602  1.00  0.00    -0.382 N 
HETATM    5  H24 UNL     1      17.258   2.093  50.236  1.00  0.00     0.160 HD
BRANCH   4   6
HETATM    6  C19 UNL     1      17.765   0.599  51.433  1.00  0.00     0.053 C 
HETATM    7  C11 UNL     1      18.833   1.476  51.025  1.00  0.00     0.065 C 
HETATM    8  C10 UNL     1      18.756   2.848  51.582  1.00  0.00     0.108 C 
HETATM    9  N3  UNL     1      19.559   0.693  50.241  1.00  0.00    -0.263 NA
HETATM   10  C9  UNL     1      20.003   3.144  52.397  1.00  0.00     0.091 C 
HETATM   11  N2  UNL     1      21.247   2.851  52.401  1.00  0.00    -0.289 NA
HETATM   12  C8  UNL     1      22.115   2.349  51.385  1.00  0.00     0.195 C 
HETATM   13  C13 UNL     1      21.881   0.856  51.275  1.00  0.00    -0.014 C 
HETATM   14  C12 UNL     1      20.984   0.387  50.361  1.00  0.00     0.124 C 
HETATM   15  C14 UNL     1      22.801   0.361  52.302  1.00  0.00     0.152 C 
HETATM   16  N4  UNL     1      22.461  -0.771  53.070  1.00  0.00    -0.414 N 
HETATM   17  C15 UNL     1      21.400  -0.709  54.000  1.00  0.00     0.141 C 
HETATM   18  H18 UNL     1      23.269  -1.376  53.339  1.00  0.00     0.153 HD
HETATM   19  C16 UNL     1      20.032  -0.708  53.473  1.00  0.00    -0.008 C 
HETATM   20  C17 UNL     1      18.790  -0.803  53.074  1.00  0.00    -0.000 C 
HETATM   21  C18 UNL     1      17.691  -0.378  52.286  1.00  0.00     0.031 C 
BRANCH  12  22
HETATM   22  C7  UNL     1      23.536   2.706  51.569  1.00  0.00     0.073 C 
HETATM   23  C6  UNL     1      24.374   2.806  50.549  1.00  0.00     0.037 C 
HETATM   24  C5  UNL     1      25.793   3.111  50.200  1.00  0.00     0.299 C 
HETATM   25  N1  UNL     1      26.684   2.119  50.758  1.00  0.00     0.087 N 
HETATM   26  C4  UNL     1      26.946   2.375  52.168  1.00  0.00     0.284 C 
HETATM   27  H7  UNL     1      27.605   2.184  50.263  1.00  0.00     0.316 HD
HETATM   28  C3  UNL     1      25.956   1.593  52.981  1.00  0.00     0.107 C 
HETATM   29  C22 UNL     1      25.076   2.589  53.717  1.00  0.00     0.189 C 
HETATM   30  O3  UNL     1      23.940   2.933  52.903  1.00  0.00    -0.352 OA
BRANCH  28  31
HETATM   31  C2  UNL     1      26.539   0.556  53.842  1.00  0.00     0.131 C 
HETATM   32  C1  UNL     1      26.649  -0.827  53.315  1.00  0.00     0.091 C 
HETATM   33  O1  UNL     1      26.939   0.805  54.991  1.00  0.00    -0.298 OA
ENDBRANCH  28  31
ENDBRANCH  12  22
ENDBRANCH   4   6
ENDBRANCH   1   4
TORSDOF 4
ENDMDL
MODEL 5
REMARK VINA RESULT:      -7.7      2.144      3.287
REMARK  4 active torsions:
REMARK  status: ('A' for Active; 'I' for Inactive)
REMARK    1  A    between atoms: C2_2  and  C3_4 
REMARK    2  A    between atoms: C7_9  and  C8_10 
REMARK    3  A    between atoms: C19_24  and  N5_25 
REMARK    4  A    between atoms: N5_25  and  C20_26 
ROOT
HETATM    1  C20 UNL     1      25.982  -0.371  53.705  1.00  0.00     0.189 C 
HETATM    2  C21 UNL     1      27.179  -0.074  54.515  1.00  0.00     0.250 C 
HETATM    3  O2  UNL     1      28.201  -0.019  55.171  1.00  0.00    -0.305 OA
ENDROOT
BRANCH   1   4
HETATM    4  N5  UNL     1      25.273   0.894  53.473  1.00  0.00    -0.382 N 
HETATM    5  H24 UNL     1      25.503   1.742  54.064  1.00  0.00     0.160 HD
BRANCH   4   6
HETATM    6  C19 UNL     1      24.283   1.293  52.571  1.00  0.00     0.053 C 
HETATM    7  C11 UNL     1      24.935   2.536  52.243  1.00  0.00     0.065 C 
HETATM    8  C10 UNL     1      26.122   2.401  51.365  1.00  0.00     0.108 C 
HETATM    9  N3  UNL     1      24.193   3.424  52.888  1.00  0.00    -0.263 NA
HETATM   10  C9  UNL     1      25.908   3.189  50.085  1.00  0.00     0.091 C 
HETATM   11  N2  UNL     1      25.321   4.255  49.693  1.00  0.00    -0.289 NA
HETATM   12  C8  UNL     1      24.860   5.408  50.397  1.00  0.00     0.195 C 
HETATM   13  C13 UNL     1      23.536   5.055  51.045  1.00  0.00    -0.014 C 
HETATM   14  C12 UNL     1      23.523   4.598  52.330  1.00  0.00     0.124 C 
HETATM   15  C14 UNL     1      22.611   5.356  49.950  1.00  0.00     0.152 C 
HETATM   16  N4  UNL     1      21.457   4.569  49.763  1.00  0.00    -0.414 N 
HETATM   17  C15 UNL     1      21.570   3.225  49.343  1.00  0.00     0.141 C 
HETATM   18  H18 UNL     1      20.625   5.090  49.404  1.00  0.00     0.153 HD
HETATM   19  C16 UNL     1      22.030   2.242  50.327  1.00  0.00    -0.008 C 
HETATM   20  C17 UNL     1      22.338   1.301  51.182  1.00  0.00    -0.000 C 
HETATM   21  C18 UNL     1      23.189   0.726  52.160  1.00  0.00     0.031 C 
BRANCH  12  22
HETATM   22  C7  UNL     1      24.802   6.637  49.580  1.00  0.00     0.073 C 
HETATM   23  C6  UNL     1      24.673   6.599  48.263  1.00  0.00     0.037 C 
HETATM   24  C5  UNL     1      24.569   7.468  47.054  1.00  0.00     0.299 C 
HETATM   25  N1  UNL     1      25.789   8.217  46.852  1.00  0.00     0.087 N 
HETATM   26  C4  UNL     1      25.842   9.385  47.721  1.00  0.00     0.284 C 
HETATM   27  H7  UNL     1      25.802   8.572  45.867  1.00  0.00     0.316 HD
HETATM   28  C3  UNL     1      26.568   9.005  48.978  1.00  0.00     0.107 C 
HETATM   29  C22 UNL     1      25.579   9.105  50.128  1.00  0.00     0.189 C 
HETATM   30  O3  UNL     1      24.896   7.849  50.297  1.00  0.00    -0.352 OA
BRANCH  28  31
HETATM   31  C2  UNL     1      27.830   9.719  49.209  1.00  0.00     0.131 C 
HETATM   32  C1  UNL     1      29.102   8.956  49.135  1.00  0.00     0.091 C 
HETATM   33  O1  UNL     1      27.861  10.934  49.462  1.00  0.00    -0.298 OA
ENDBRANCH  28  31
ENDBRANCH  12  22
ENDBRANCH   4   6
ENDBRANCH   1   4
TORSDOF 4
ENDMDL
MODEL 6
REMARK VINA RESULT:      -7.7      7.120     10.177
REMARK  4 active torsions:
REMARK  status: ('A' for Active; 'I' for Inactive)
REMARK    1  A    between atoms: C2_2  and  C3_4 
REMARK    2  A    between atoms: C7_9  and  C8_10 
REMARK    3  A    between atoms: C19_24  and  N5_25 
REMARK    4  A    between atoms: N5_25  and  C20_26 
ROOT
HETATM    1  C20 UNL     1      35.050   4.166  45.341  1.00  0.00     0.189 C 
HETATM    2  C21 UNL     1      34.577   4.494  43.982  1.00  0.00     0.250 C 
HETATM    3  O2  UNL     1      34.296   4.615  42.806  1.00  0.00    -0.305 OA
ENDROOT
BRANCH   1   4
HETATM    4  N5  UNL     1      34.420   5.110  46.274  1.00  0.00    -0.382 N 
HETATM    5  H24 UNL     1      34.993   5.893  46.697  1.00  0.00     0.160 HD
BRANCH   4   6
HETATM    6  C19 UNL     1      33.125   5.243  46.782  1.00  0.00     0.053 C 
HETATM    7  C11 UNL     1      33.139   6.683  46.724  1.00  0.00     0.065 C 
HETATM    8  C10 UNL     1      33.001   7.251  45.361  1.00  0.00     0.108 C 
HETATM    9  N3  UNL     1      33.281   7.017  47.998  1.00  0.00    -0.263 NA
HETATM   10  C9  UNL     1      31.768   8.135  45.293  1.00  0.00     0.091 C 
HETATM   11  N2  UNL     1      31.096   8.915  46.051  1.00  0.00    -0.289 NA
HETATM   12  C8  UNL     1      31.425   9.587  47.267  1.00  0.00     0.195 C 
HETATM   13  C13 UNL     1      31.310   8.581  48.395  1.00  0.00    -0.014 C 
HETATM   14  C12 UNL     1      32.419   7.893  48.791  1.00  0.00     0.124 C 
HETATM   15  C14 UNL     1      29.886   8.699  48.718  1.00  0.00     0.152 C 
HETATM   16  N4  UNL     1      29.158   7.563  49.125  1.00  0.00    -0.414 N 
HETATM   17  C15 UNL     1      28.900   6.515  48.212  1.00  0.00     0.141 C 
HETATM   18  H18 UNL     1      28.406   7.753  49.825  1.00  0.00     0.153 HD
HETATM   19  C16 UNL     1      30.013   5.626  47.866  1.00  0.00    -0.008 C 
HETATM   20  C17 UNL     1      30.934   4.739  47.592  1.00  0.00    -0.000 C 
HETATM   21  C18 UNL     1      32.228   4.375  47.142  1.00  0.00     0.031 C 
BRANCH  12  22
HETATM   22  C7  UNL     1      30.655  10.824  47.505  1.00  0.00     0.073 C 
HETATM   23  C6  UNL     1      30.900  11.617  48.536  1.00  0.00     0.037 C 
HETATM   24  C5  UNL     1      30.460  12.883  49.193  1.00  0.00     0.299 C 
HETATM   25  N1  UNL     1      29.106  12.765  49.683  1.00  0.00     0.087 N 
HETATM   26  C4  UNL     1      28.137  12.953  48.611  1.00  0.00     0.284 C 
HETATM   27  H7  UNL     1      28.936  13.528  50.380  1.00  0.00     0.316 HD
HETATM   28  C3  UNL     1      27.794  11.606  48.045  1.00  0.00     0.107 C 
HETATM   29  C22 UNL     1      28.282  11.573  46.607  1.00  0.00     0.189 C 
HETATM   30  O3  UNL     1      29.641  11.101  46.562  1.00  0.00    -0.352 OA
BRANCH  28  31
HETATM   31  C2  UNL     1      26.392  11.199  48.212  1.00  0.00     0.131 C 
HETATM   32  C1  UNL     1      26.092   9.765  48.453  1.00  0.00     0.091 C 
HETATM   33  O1  UNL     1      25.459  12.017  48.158  1.00  0.00    -0.298 OA
ENDBRANCH  28  31
ENDBRANCH  12  22
ENDBRANCH   4   6
ENDBRANCH   1   4
TORSDOF 4
ENDMDL
MODEL 7
REMARK VINA RESULT:      -7.7      3.331      8.539
REMARK  4 active torsions:
REMARK  status: ('A' for Active; 'I' for Inactive)
REMARK    1  A    between atoms: C2_2  and  C3_4 
REMARK    2  A    between atoms: C7_9  and  C8_10 
REMARK    3  A    between atoms: C19_24  and  N5_25 
REMARK    4  A    between atoms: N5_25  and  C20_26 
ROOT
HETATM    1  C20 UNL     1      26.705   3.827  49.596  1.00  0.00     0.189 C 
HETATM    2  C21 UNL     1      26.838   5.131  48.918  1.00  0.00     0.250 C 
HETATM    3  O2  UNL     1      27.090   6.122  48.261  1.00  0.00    -0.305 OA
ENDROOT
BRANCH   1   4
HETATM    4  N5  UNL     1      25.601   3.934  50.560  1.00  0.00    -0.382 N 
HETATM    5  H24 UNL     1      25.197   4.885  50.793  1.00  0.00     0.160 HD
BRANCH   4   6
HETATM    6  C19 UNL     1      24.881   2.999  51.308  1.00  0.00     0.053 C 
HETATM    7  C11 UNL     1      23.616   3.336  50.706  1.00  0.00     0.065 C 
HETATM    8  C10 UNL     1      23.435   2.837  49.322  1.00  0.00     0.108 C 
HETATM    9  N3  UNL     1      23.019   4.024  51.668  1.00  0.00    -0.263 NA
HETATM   10  C9  UNL     1      22.225   1.921  49.259  1.00  0.00     0.091 C 
HETATM   11  N2  UNL     1      21.080   1.792  49.814  1.00  0.00    -0.289 NA
HETATM   12  C8  UNL     1      20.264   2.706  50.545  1.00  0.00     0.195 C 
HETATM   13  C13 UNL     1      20.811   2.787  51.956  1.00  0.00    -0.014 C 
HETATM   14  C12 UNL     1      21.711   3.762  52.269  1.00  0.00     0.124 C 
HETATM   15  C14 UNL     1      20.110   1.663  52.583  1.00  0.00     0.152 C 
HETATM   16  N4  UNL     1      20.753   0.891  53.571  1.00  0.00    -0.414 N 
HETATM   17  C15 UNL     1      21.848   0.065  53.231  1.00  0.00     0.141 C 
HETATM   18  H18 UNL     1      20.123   0.528  54.321  1.00  0.00     0.153 HD
HETATM   19  C16 UNL     1      23.133   0.715  52.962  1.00  0.00    -0.008 C 
HETATM   20  C17 UNL     1      24.329   1.223  52.808  1.00  0.00    -0.000 C 
HETATM   21  C18 UNL     1      25.238   2.123  52.199  1.00  0.00     0.031 C 
BRANCH  12  22
HETATM   22  C7  UNL     1      18.819   2.405  50.494  1.00  0.00     0.073 C 
HETATM   23  C6  UNL     1      17.907   3.257  50.936  1.00  0.00     0.037 C 
HETATM   24  C5  UNL     1      16.436   3.441  51.107  1.00  0.00     0.299 C 
HETATM   25  N1  UNL     1      15.902   2.476  52.042  1.00  0.00     0.087 N 
HETATM   26  C4  UNL     1      15.694   1.182  51.407  1.00  0.00     0.284 C 
HETATM   27  H7  UNL     1      14.962   2.810  52.363  1.00  0.00     0.316 HD
HETATM   28  C3  UNL     1      16.924   0.349  51.621  1.00  0.00     0.107 C 
HETATM   29  C22 UNL     1      17.550   0.095  50.260  1.00  0.00     0.189 C 
HETATM   30  O3  UNL     1      18.478   1.150  49.944  1.00  0.00    -0.352 OA
BRANCH  28  31
HETATM   31  C2  UNL     1      16.722  -0.864  52.424  1.00  0.00     0.131 C 
HETATM   32  C1  UNL     1      17.867  -1.400  53.202  1.00  0.00     0.091 C 
HETATM   33  O1  UNL     1      15.627  -1.448  52.469  1.00  0.00    -0.298 OA
ENDBRANCH  28  31
ENDBRANCH  12  22
ENDBRANCH   4   6
ENDBRANCH   1   4
TORSDOF 4
ENDMDL
MODEL 8
REMARK VINA RESULT:      -7.4      2.156      8.282
REMARK  4 active torsions:
REMARK  status: ('A' for Active; 'I' for Inactive)
REMARK    1  A    between atoms: C2_2  and  C3_4 
REMARK    2  A    between atoms: C7_9  and  C8_10 
REMARK    3  A    between atoms: C19_24  and  N5_25 
REMARK    4  A    between atoms: N5_25  and  C20_26 
ROOT
HETATM    1  C20 UNL     1      26.927   8.590  48.040  1.00  0.00     0.189 C 
HETATM    2  C21 UNL     1      26.956   9.854  48.799  1.00  0.00     0.250 C 
HETATM    3  O2  UNL     1      27.091  10.962  49.281  1.00  0.00    -0.305 OA
ENDROOT
BRANCH   1   4
HETATM    4  N5  UNL     1      26.096   7.637  48.788  1.00  0.00    -0.382 N 
HETATM    5  H24 UNL     1      26.314   7.434  49.804  1.00  0.00     0.160 HD
BRANCH   4   6
HETATM    6  C19 UNL     1      24.977   6.867  48.458  1.00  0.00     0.053 C 
HETATM    7  C11 UNL     1      25.027   6.087  49.668  1.00  0.00     0.065 C 
HETATM    8  C10 UNL     1      24.568   6.800  50.885  1.00  0.00     0.108 C 
HETATM    9  N3  UNL     1      25.499   4.926  49.238  1.00  0.00    -0.263 NA
HETATM   10  C9  UNL     1      23.391   6.065  51.500  1.00  0.00     0.091 C 
HETATM   11  N2  UNL     1      22.960   4.868  51.631  1.00  0.00    -0.289 NA
HETATM   12  C8  UNL     1      23.610   3.601  51.532  1.00  0.00     0.195 C 
HETATM   13  C13 UNL     1      23.749   3.267  50.060  1.00  0.00    -0.014 C 
HETATM   14  C12 UNL     1      24.898   3.604  49.405  1.00  0.00     0.124 C 
HETATM   15  C14 UNL     1      22.459   2.622  49.805  1.00  0.00     0.152 C 
HETATM   16  N4  UNL     1      21.818   2.791  48.561  1.00  0.00    -0.414 N 
HETATM   17  C15 UNL     1      21.300   4.053  48.190  1.00  0.00     0.141 C 
HETATM   18  H18 UNL     1      21.275   1.961  48.233  1.00  0.00     0.153 HD
HETATM   19  C16 UNL     1      22.257   5.089  47.791  1.00  0.00    -0.008 C 
HETATM   20  C17 UNL     1      23.047   6.024  47.330  1.00  0.00    -0.000 C 
HETATM   21  C18 UNL     1      24.171   6.880  47.439  1.00  0.00     0.031 C 
BRANCH  12  22
HETATM   22  C7  UNL     1      22.969   2.526  52.317  1.00  0.00     0.073 C 
HETATM   23  C6  UNL     1      23.588   1.387  52.585  1.00  0.00     0.037 C 
HETATM   24  C5  UNL     1      23.417   0.076  53.278  1.00  0.00     0.299 C 
HETATM   25  N1  UNL     1      22.376  -0.706  52.651  1.00  0.00     0.087 N 
HETATM   26  C4  UNL     1      21.055  -0.273  53.085  1.00  0.00     0.284 C 
HETATM   27  H7  UNL     1      22.482  -1.703  52.952  1.00  0.00     0.316 HD
HETATM   28  C3  UNL     1      20.547   0.745  52.106  1.00  0.00     0.107 C 
HETATM   29  C22 UNL     1      20.418   2.067  52.843  1.00  0.00     0.189 C 
HETATM   30  O3  UNL     1      21.656   2.796  52.760  1.00  0.00    -0.352 OA
BRANCH  28  31
HETATM   31  C2  UNL     1      19.341   0.350  51.366  1.00  0.00     0.131 C 
HETATM   32  C1  UNL     1      19.052   1.014  50.070  1.00  0.00     0.091 C 
HETATM   33  O1  UNL     1      18.562  -0.518  51.794  1.00  0.00    -0.298 OA
ENDBRANCH  28  31
ENDBRANCH  12  22
ENDBRANCH   4   6
ENDBRANCH   1   4
TORSDOF 4
ENDMDL
MODEL 9
REMARK VINA RESULT:      -7.3      4.086      7.506
REMARK  4 active torsions:
REMARK  status: ('A' for Active; 'I' for Inactive)
REMARK    1  A    between atoms: C2_2  and  C3_4 
REMARK    2  A    between atoms: C7_9  and  C8_10 
REMARK    3  A    between atoms: C19_24  and  N5_25 
REMARK    4  A    between atoms: N5_25  and  C20_26 
ROOT
HETATM    1  C20 UNL     1      27.118   2.054  52.479  1.00  0.00     0.189 C 
HETATM    2  C21 UNL     1      26.914   1.517  53.838  1.00  0.00     0.250 C 
HETATM    3  O2  UNL     1      26.911   0.981  54.929  1.00  0.00    -0.305 OA
ENDROOT
BRANCH   1   4
HETATM    4  N5  UNL     1      25.998   2.958  52.181  1.00  0.00    -0.382 N 
HETATM    5  H24 UNL     1      25.724   3.703  52.883  1.00  0.00     0.160 HD
BRANCH   4   6
HETATM    6  C19 UNL     1      25.131   3.094  51.094  1.00  0.00     0.053 C 
HETATM    7  C11 UNL     1      23.950   2.801  51.866  1.00  0.00     0.065 C 
HETATM    8  C10 UNL     1      23.506   3.898  52.759  1.00  0.00     0.108 C 
HETATM    9  N3  UNL     1      23.657   1.569  51.480  1.00  0.00    -0.263 NA
HETATM   10  C9  UNL     1      22.095   4.322  52.392  1.00  0.00     0.091 C 
HETATM   11  N2  UNL     1      21.018   3.805  51.936  1.00  0.00    -0.289 NA
HETATM   12  C8  UNL     1      20.553   2.457  51.881  1.00  0.00     0.195 C 
HETATM   13  C13 UNL     1      21.237   1.780  50.711  1.00  0.00    -0.014 C 
HETATM   14  C12 UNL     1      22.393   1.086  50.924  1.00  0.00     0.124 C 
HETATM   15  C14 UNL     1      20.326   2.136  49.621  1.00  0.00     0.152 C 
HETATM   16  N4  UNL     1      20.833   2.390  48.331  1.00  0.00    -0.414 N 
HETATM   17  C15 UNL     1      21.627   3.533  48.088  1.00  0.00     0.141 C 
HETATM   18  H18 UNL     1      20.206   2.096  47.549  1.00  0.00     0.153 HD
HETATM   19  C16 UNL     1      23.007   3.520  48.582  1.00  0.00    -0.008 C 
HETATM   20  C17 UNL     1      24.273   3.533  48.908  1.00  0.00    -0.000 C 
HETATM   21  C18 UNL     1      25.326   3.403  49.847  1.00  0.00     0.031 C 
BRANCH  12  22
HETATM   22  C7  UNL     1      19.082   2.322  51.856  1.00  0.00     0.073 C 
HETATM   23  C6  UNL     1      18.486   1.145  51.760  1.00  0.00     0.037 C 
HETATM   24  C5  UNL     1      17.144   0.493  51.697  1.00  0.00     0.299 C 
HETATM   25  N1  UNL     1      16.439   0.881  50.497  1.00  0.00     0.087 N 
HETATM   26  C4  UNL     1      15.825   2.194  50.645  1.00  0.00     0.284 C 
HETATM   27  H7  UNL     1      15.661   0.200  50.333  1.00  0.00     0.316 HD
HETATM   28  C3  UNL     1      16.785   3.224  50.125  1.00  0.00     0.107 C 
HETATM   29  C22 UNL     1      17.201   4.097  51.297  1.00  0.00     0.189 C 
HETATM   30  O3  UNL     1      18.359   3.532  51.941  1.00  0.00    -0.352 OA
BRANCH  28  31
HETATM   31  C2  UNL     1      16.317   3.977  48.954  1.00  0.00     0.131 C 
HETATM   32  C1  UNL     1      15.004   4.665  49.028  1.00  0.00     0.091 C 
HETATM   33  O1  UNL     1      16.987   4.051  47.911  1.00  0.00    -0.298 OA
ENDBRANCH  28  31
ENDBRANCH  12  22
ENDBRANCH   4   6
ENDBRANCH   1   4
TORSDOF 4
ENDMDL
