MODEL 1
REMARK VINA RESULT:      -8.5      0.000      0.000
REMARK  7 active torsions:
REMARK  status: ('A' for Active; 'I' for Inactive)
REMARK    1  A    between atoms: C1_2  and  C2_3 
REMARK       I    between atoms: C1_2  and  N1_11 
REMARK    2  A    between atoms: C2_3  and  O2_4 
REMARK    3  A    between atoms: O2_4  and  C3_5 
REMARK    4  A    between atoms: N1_11  and  C9_12 
REMARK    5  A    between atoms: C9_12  and  C10_13 
REMARK    6  A    between atoms: C14_17  and  N2_18 
REMARK    7  A    between atoms: N2_18  and  C15_19 
ROOT
HETATM    1  C10 UNL     1      25.476   1.232  53.283  1.00  0.00     0.102 A 
HETATM    2  C11 UNL     1      24.419   2.310  53.405  1.00  0.00     0.006 A 
HETATM    3  C12 UNL     1      24.302   2.536  52.113  1.00  0.00    -0.013 A 
HETATM    4  C13 UNL     1      25.341   1.484  51.867  1.00  0.00     0.113 A 
HETATM    5  C14 UNL     1      26.546   2.199  51.308  1.00  0.00     0.116 A 
HETATM    6  N3  UNL     1      27.629   2.577  51.938  1.00  0.00    -0.228 NA
HETATM    7  C21 UNL     1      27.633   2.259  53.325  1.00  0.00     0.230 A 
HETATM    8  N4  UNL     1      26.707   1.670  53.944  1.00  0.00    -0.265 NA
ENDROOT
BRANCH   1   9
HETATM    9  C9  UNL     1      25.033  -0.058  53.928  1.00  0.00     0.161 C 
BRANCH   9  10
HETATM   10  N1  UNL     1      23.682  -0.422  53.921  1.00  0.00    -0.356 N 
HETATM   11  C1  UNL     1      22.592  -1.055  54.554  1.00  0.00     0.241 C 
HETATM   12  O1  UNL     1      22.790  -1.575  55.675  1.00  0.00    -0.271 OA
HETATM   13  H8  UNL     1      23.161  -0.098  53.029  1.00  0.00     0.162 HD
BRANCH  11  14
HETATM   14  C2  UNL     1      21.190  -1.272  54.209  1.00  0.00     0.278 C 
BRANCH  14  15
HETATM   15  O2  UNL     1      20.453  -0.073  54.086  1.00  0.00    -0.342 OA
BRANCH  15  16
HETATM   16  C3  UNL     1      20.614   0.671  52.900  1.00  0.00     0.069 A 
HETATM   17  C4  UNL     1      20.961   0.033  51.714  1.00  0.00     0.037 A 
HETATM   18  C5  UNL     1      21.128   0.724  50.530  1.00  0.00     0.003 A 
HETATM   19  C6  UNL     1      20.930   2.070  50.605  1.00  0.00     0.000 A 
HETATM   20  C7  UNL     1      20.586   2.795  51.727  1.00  0.00     0.003 A 
HETATM   21  C8  UNL     1      20.435   2.042  52.874  1.00  0.00     0.037 A 
ENDBRANCH  15  16
ENDBRANCH  14  15
ENDBRANCH  11  14
ENDBRANCH   9  10
ENDBRANCH   1   9
BRANCH   5  22
HETATM   22  N2  UNL     1      26.537   2.522  49.902  1.00  0.00    -0.344 N 
HETATM   23  H14 UNL     1      26.568   1.741  49.189  1.00  0.00     0.167 HD
BRANCH  22  24
HETATM   24  C15 UNL     1      26.488   3.879  49.421  1.00  0.00     0.034 A 
HETATM   25  C16 UNL     1      25.295   4.574  49.472  1.00  0.00     0.029 A 
HETATM   26  C17 UNL     1      25.091   5.861  49.055  1.00  0.00     0.004 A 
HETATM   27  C18 UNL     1      26.218   6.472  48.545  1.00  0.00     0.019 A 
HETATM   28  C19 UNL     1      27.445   5.860  48.455  1.00  0.00     0.013 A 
HETATM   29 BR1  UNL     1      28.990   6.720  47.748  1.00  0.00    -0.051 Br
HETATM   30  C20 UNL     1      27.574   4.547  48.901  1.00  0.00     0.048 A 
ENDBRANCH  22  24
ENDBRANCH   5  22
TORSDOF 7
ENDMDL
MODEL 2
REMARK VINA RESULT:      -8.2      3.216      7.340
REMARK  7 active torsions:
REMARK  status: ('A' for Active; 'I' for Inactive)
REMARK    1  A    between atoms: C1_2  and  C2_3 
REMARK       I    between atoms: C1_2  and  N1_11 
REMARK    2  A    between atoms: C2_3  and  O2_4 
REMARK    3  A    between atoms: O2_4  and  C3_5 
REMARK    4  A    between atoms: N1_11  and  C9_12 
REMARK    5  A    between atoms: C9_12  and  C10_13 
REMARK    6  A    between atoms: C14_17  and  N2_18 
REMARK    7  A    between atoms: N2_18  and  C15_19 
ROOT
HETATM    1  C10 UNL     1      26.986   0.773  53.475  1.00  0.00     0.102 A 
HETATM    2  C11 UNL     1      27.700  -0.322  52.708  1.00  0.00     0.006 A 
HETATM    3  C12 UNL     1      26.614  -0.865  52.200  1.00  0.00    -0.013 A 
HETATM    4  C13 UNL     1      25.799   0.172  52.912  1.00  0.00     0.113 A 
HETATM    5  C14 UNL     1      24.994  -0.563  53.955  1.00  0.00     0.116 A 
HETATM    6  N3  UNL     1      25.247  -0.690  55.233  1.00  0.00    -0.228 NA
HETATM    7  C21 UNL     1      26.442  -0.042  55.654  1.00  0.00     0.230 A 
HETATM    8  N4  UNL     1      27.225   0.607  54.910  1.00  0.00    -0.265 NA
ENDROOT
BRANCH   1   9
HETATM    9  C9  UNL     1      27.476   2.143  53.075  1.00  0.00     0.161 C 
BRANCH   9  10
HETATM   10  N1  UNL     1      27.117   2.686  51.837  1.00  0.00    -0.356 N 
HETATM   11  C1  UNL     1      26.125   3.213  50.984  1.00  0.00     0.241 C 
HETATM   12  O1  UNL     1      24.958   3.299  51.429  1.00  0.00    -0.271 OA
HETATM   13  H8  UNL     1      27.952   2.771  51.153  1.00  0.00     0.162 HD
BRANCH  11  14
HETATM   14  C2  UNL     1      26.112   3.719  49.614  1.00  0.00     0.278 C 
BRANCH  14  15
HETATM   15  O2  UNL     1      27.405   3.905  49.076  1.00  0.00    -0.342 OA
BRANCH  15  16
HETATM   16  C3  UNL     1      27.720   5.179  48.564  1.00  0.00     0.069 A 
HETATM   17  C4  UNL     1      26.735   6.154  48.456  1.00  0.00     0.037 A 
HETATM   18  C5  UNL     1      27.002   7.415  47.960  1.00  0.00     0.003 A 
HETATM   19  C6  UNL     1      28.293   7.637  47.585  1.00  0.00     0.000 A 
HETATM   20  C7  UNL     1      29.339   6.740  47.651  1.00  0.00     0.003 A 
HETATM   21  C8  UNL     1      29.002   5.500  48.156  1.00  0.00     0.037 A 
ENDBRANCH  15  16
ENDBRANCH  14  15
ENDBRANCH  11  14
ENDBRANCH   9  10
ENDBRANCH   1   9
BRANCH   5  22
HETATM   22  N2  UNL     1      23.785  -1.219  53.524  1.00  0.00    -0.344 N 
HETATM   23  H14 UNL     1      23.781  -2.269  53.391  1.00  0.00     0.167 HD
BRANCH  22  24
HETATM   24  C15 UNL     1      22.566  -0.498  53.261  1.00  0.00     0.034 A 
HETATM   25  C16 UNL     1      21.711  -0.206  54.307  1.00  0.00     0.029 A 
HETATM   26  C17 UNL     1      20.523   0.467  54.216  1.00  0.00     0.004 A 
HETATM   27  C18 UNL     1      20.200   0.868  52.936  1.00  0.00     0.019 A 
HETATM   28  C19 UNL     1      20.988   0.623  51.837  1.00  0.00     0.013 A 
HETATM   29 BR1  UNL     1      20.525   1.184  50.077  1.00  0.00    -0.051 Br
HETATM   30  C20 UNL     1      22.184  -0.069  52.009  1.00  0.00     0.048 A 
ENDBRANCH  22  24
ENDBRANCH   5  22
TORSDOF 7
ENDMDL
MODEL 3
REMARK VINA RESULT:      -8.0      2.241      4.471
REMARK  7 active torsions:
REMARK  status: ('A' for Active; 'I' for Inactive)
REMARK    1  A    between atoms: C1_2  and  C2_3 
REMARK       I    between atoms: C1_2  and  N1_11 
REMARK    2  A    between atoms: C2_3  and  O2_4 
REMARK    3  A    between atoms: O2_4  and  C3_5 
REMARK    4  A    between atoms: N1_11  and  C9_12 
REMARK    5  A    between atoms: C9_12  and  C10_13 
REMARK    6  A    between atoms: C14_17  and  N2_18 
REMARK    7  A    between atoms: N2_18  and  C15_19 
ROOT
HETATM    1  C10 UNL     1      21.465   1.282  52.460  1.00  0.00     0.102 A 
HETATM    2  C11 UNL     1      22.076   0.840  51.146  1.00  0.00     0.006 A 
HETATM    3  C12 UNL     1      23.037   1.740  51.131  1.00  0.00    -0.013 A 
HETATM    4  C13 UNL     1      22.524   2.265  52.437  1.00  0.00     0.113 A 
HETATM    5  C14 UNL     1      21.995   3.651  52.160  1.00  0.00     0.116 A 
HETATM    6  N3  UNL     1      20.757   4.021  51.962  1.00  0.00    -0.228 NA
HETATM    7  C21 UNL     1      19.817   2.955  52.019  1.00  0.00     0.230 A 
HETATM    8  N4  UNL     1      20.094   1.745  52.236  1.00  0.00    -0.265 NA
ENDROOT
BRANCH   1   9
HETATM    9  C9  UNL     1      21.420   0.153  53.460  1.00  0.00     0.161 C 
BRANCH   9  10
HETATM   10  N1  UNL     1      22.570  -0.205  54.171  1.00  0.00    -0.356 N 
HETATM   11  C1  UNL     1      23.219  -1.076  55.071  1.00  0.00     0.241 C 
HETATM   12  O1  UNL     1      22.565  -2.044  55.520  1.00  0.00    -0.271 OA
HETATM   13  H8  UNL     1      23.402   0.466  53.998  1.00  0.00     0.162 HD
BRANCH  11  14
HETATM   14  C2  UNL     1      24.556  -1.140  55.654  1.00  0.00     0.278 C 
BRANCH  14  15
HETATM   15  O2  UNL     1      25.570  -1.377  54.699  1.00  0.00    -0.342 OA
BRANCH  15  16
HETATM   16  C3  UNL     1      25.986  -0.288  53.908  1.00  0.00     0.069 A 
HETATM   17  C4  UNL     1      26.133  -0.436  52.533  1.00  0.00     0.037 A 
HETATM   18  C5  UNL     1      26.538   0.605  51.721  1.00  0.00     0.003 A 
HETATM   19  C6  UNL     1      26.783   1.784  52.359  1.00  0.00     0.000 A 
HETATM   20  C7  UNL     1      26.668   2.033  53.711  1.00  0.00     0.003 A 
HETATM   21  C8  UNL     1      26.259   0.949  54.462  1.00  0.00     0.037 A 
ENDBRANCH  15  16
ENDBRANCH  14  15
ENDBRANCH  11  14
ENDBRANCH   9  10
ENDBRANCH   1   9
BRANCH   5  22
HETATM   22  N2  UNL     1      22.952   4.729  52.100  1.00  0.00    -0.344 N 
HETATM   23  H14 UNL     1      23.200   5.254  52.985  1.00  0.00     0.167 HD
BRANCH  22  24
HETATM   24  C15 UNL     1      23.591   5.127  50.873  1.00  0.00     0.034 A 
HETATM   25  C16 UNL     1      22.893   5.900  49.964  1.00  0.00     0.029 A 
HETATM   26  C17 UNL     1      23.361   6.355  48.762  1.00  0.00     0.004 A 
HETATM   27  C18 UNL     1      24.657   5.973  48.482  1.00  0.00     0.019 A 
HETATM   28  C19 UNL     1      25.426   5.206  49.324  1.00  0.00     0.013 A 
HETATM   29 BR1  UNL     1      27.215   4.689  48.921  1.00  0.00    -0.051 Br
HETATM   30  C20 UNL     1      24.880   4.782  50.532  1.00  0.00     0.048 A 
ENDBRANCH  22  24
ENDBRANCH   5  22
TORSDOF 7
ENDMDL
MODEL 4
REMARK VINA RESULT:      -7.9      2.975      5.137
REMARK  7 active torsions:
REMARK  status: ('A' for Active; 'I' for Inactive)
REMARK    1  A    between atoms: C1_2  and  C2_3 
REMARK       I    between atoms: C1_2  and  N1_11 
REMARK    2  A    between atoms: C2_3  and  O2_4 
REMARK    3  A    between atoms: O2_4  and  C3_5 
REMARK    4  A    between atoms: N1_11  and  C9_12 
REMARK    5  A    between atoms: C9_12  and  C10_13 
REMARK    6  A    between atoms: C14_17  and  N2_18 
REMARK    7  A    between atoms: N2_18  and  C15_19 
ROOT
HETATM    1  C10 UNL     1      22.864   4.404  50.351  1.00  0.00     0.102 A 
HETATM    2  C11 UNL     1      22.574   3.806  48.989  1.00  0.00     0.006 A 
HETATM    3  C12 UNL     1      23.402   2.789  49.106  1.00  0.00    -0.013 A 
HETATM    4  C13 UNL     1      23.770   3.284  50.471  1.00  0.00     0.113 A 
HETATM    5  C14 UNL     1      25.212   3.720  50.393  1.00  0.00     0.116 A 
HETATM    6  N3  UNL     1      25.686   4.930  50.245  1.00  0.00    -0.228 NA
HETATM    7  C21 UNL     1      24.685   5.937  50.148  1.00  0.00     0.230 A 
HETATM    8  N4  UNL     1      23.442   5.740  50.192  1.00  0.00    -0.265 NA
ENDROOT
BRANCH   1   9
HETATM    9  C9  UNL     1      21.610   4.532  51.181  1.00  0.00     0.161 C 
BRANCH   9  10
HETATM   10  N1  UNL     1      20.792   3.419  51.400  1.00  0.00    -0.356 N 
HETATM   11  C1  UNL     1      19.534   2.888  51.751  1.00  0.00     0.241 C 
HETATM   12  O1  UNL     1      18.611   3.694  52.008  1.00  0.00    -0.271 OA
HETATM   13  H8  UNL     1      21.306   2.479  51.247  1.00  0.00     0.162 HD
BRANCH  11  14
HETATM   14  C2  UNL     1      18.996   1.539  51.904  1.00  0.00     0.278 C 
BRANCH  14  15
HETATM   15  O2  UNL     1      19.895   0.530  51.493  1.00  0.00    -0.342 OA
BRANCH  15  16
HETATM   16  C3  UNL     1      20.819   0.056  52.445  1.00  0.00     0.069 A 
HETATM   17  C4  UNL     1      22.185   0.219  52.239  1.00  0.00     0.037 A 
HETATM   18  C5  UNL     1      23.123  -0.231  53.147  1.00  0.00     0.003 A 
HETATM   19  C6  UNL     1      22.620  -0.845  54.255  1.00  0.00     0.000 A 
HETATM   20  C7  UNL     1      21.290  -1.056  54.551  1.00  0.00     0.003 A 
HETATM   21  C8  UNL     1      20.407  -0.581  53.602  1.00  0.00     0.037 A 
ENDBRANCH  15  16
ENDBRANCH  14  15
ENDBRANCH  11  14
ENDBRANCH   9  10
ENDBRANCH   1   9
BRANCH   5  22
HETATM   22  N2  UNL     1      26.223   2.696  50.490  1.00  0.00    -0.344 N 
HETATM   23  H14 UNL     1      26.906   2.562  49.693  1.00  0.00     0.167 HD
BRANCH  22  24
HETATM   24  C15 UNL     1      26.344   1.836  51.639  1.00  0.00     0.034 A 
HETATM   25  C16 UNL     1      26.186   2.369  52.904  1.00  0.00     0.029 A 
HETATM   26  C17 UNL     1      26.272   1.684  54.086  1.00  0.00     0.004 A 
HETATM   27  C18 UNL     1      26.544   0.340  53.939  1.00  0.00     0.019 A 
HETATM   28  C19 UNL     1      26.716  -0.276  52.722  1.00  0.00     0.013 A 
HETATM   29 BR1  UNL     1      27.091  -2.134  52.538  1.00  0.00    -0.051 Br
HETATM   30  C20 UNL     1      26.613   0.488  51.563  1.00  0.00     0.048 A 
ENDBRANCH  22  24
ENDBRANCH   5  22
TORSDOF 7
ENDMDL
MODEL 5
REMARK VINA RESULT:      -7.8      4.961      8.879
REMARK  7 active torsions:
REMARK  status: ('A' for Active; 'I' for Inactive)
REMARK    1  A    between atoms: C1_2  and  C2_3 
REMARK       I    between atoms: C1_2  and  N1_11 
REMARK    2  A    between atoms: C2_3  and  O2_4 
REMARK    3  A    between atoms: O2_4  and  C3_5 
REMARK    4  A    between atoms: N1_11  and  C9_12 
REMARK    5  A    between atoms: C9_12  and  C10_13 
REMARK    6  A    between atoms: C14_17  and  N2_18 
REMARK    7  A    between atoms: N2_18  and  C15_19 
ROOT
HETATM    1  C10 UNL     1      25.326   5.437  49.977  1.00  0.00     0.102 A 
HETATM    2  C11 UNL     1      24.020   5.051  49.312  1.00  0.00     0.006 A 
HETATM    3  C12 UNL     1      23.727   4.073  50.144  1.00  0.00    -0.013 A 
HETATM    4  C13 UNL     1      24.996   4.363  50.885  1.00  0.00     0.113 A 
HETATM    5  C14 UNL     1      25.890   3.165  50.685  1.00  0.00     0.116 A 
HETATM    6  N3  UNL     1      26.872   3.020  49.833  1.00  0.00    -0.228 NA
HETATM    7  C21 UNL     1      27.093   4.156  49.005  1.00  0.00     0.230 A 
HETATM    8  N4  UNL     1      26.435   5.230  49.044  1.00  0.00    -0.265 NA
ENDROOT
BRANCH   1   9
HETATM    9  C9  UNL     1      25.331   6.887  50.394  1.00  0.00     0.161 C 
BRANCH   9  10
HETATM   10  N1  UNL     1      26.467   7.676  50.188  1.00  0.00    -0.356 N 
HETATM   11  C1  UNL     1      27.038   8.945  49.958  1.00  0.00     0.241 C 
HETATM   12  O1  UNL     1      26.267   9.929  49.894  1.00  0.00    -0.271 OA
HETATM   13  H8  UNL     1      27.387   7.105  50.191  1.00  0.00     0.162 HD
BRANCH  11  14
HETATM   14  C2  UNL     1      28.399   9.438  49.761  1.00  0.00     0.278 C 
BRANCH  14  15
HETATM   15  O2  UNL     1      28.972   9.019  48.539  1.00  0.00    -0.342 OA
BRANCH  15  16
HETATM   16  C3  UNL     1      29.845   7.914  48.576  1.00  0.00     0.069 A 
HETATM   17  C4  UNL     1      31.061   8.003  49.244  1.00  0.00     0.037 A 
HETATM   18  C5  UNL     1      31.946   6.944  49.303  1.00  0.00     0.003 A 
HETATM   19  C6  UNL     1      31.545   5.809  48.665  1.00  0.00     0.000 A 
HETATM   20  C7  UNL     1      30.365   5.620  47.976  1.00  0.00     0.003 A 
HETATM   21  C8  UNL     1      29.528   6.718  47.957  1.00  0.00     0.037 A 
ENDBRANCH  15  16
ENDBRANCH  14  15
ENDBRANCH  11  14
ENDBRANCH   9  10
ENDBRANCH   1   9
BRANCH   5  22
HETATM   22  N2  UNL     1      25.660   2.015  51.524  1.00  0.00    -0.344 N 
HETATM   23  H14 UNL     1      24.683   1.618  51.608  1.00  0.00     0.167 HD
BRANCH  22  24
HETATM   24  C15 UNL     1      26.718   1.375  52.264  1.00  0.00     0.034 A 
HETATM   25  C16 UNL     1      27.579   2.146  53.021  1.00  0.00     0.029 A 
HETATM   26  C17 UNL     1      28.626   1.687  53.773  1.00  0.00     0.004 A 
HETATM   27  C18 UNL     1      28.789   0.318  53.733  1.00  0.00     0.019 A 
HETATM   28  C19 UNL     1      27.983  -0.527  53.009  1.00  0.00     0.013 A 
HETATM   29 BR1  UNL     1      28.223  -2.416  52.967  1.00  0.00    -0.051 Br
HETATM   30  C20 UNL     1      26.936   0.015  52.268  1.00  0.00     0.048 A 
ENDBRANCH  22  24
ENDBRANCH   5  22
TORSDOF 7
ENDMDL
MODEL 6
REMARK VINA RESULT:      -7.7      2.989      5.276
REMARK  7 active torsions:
REMARK  status: ('A' for Active; 'I' for Inactive)
REMARK    1  A    between atoms: C1_2  and  C2_3 
REMARK       I    between atoms: C1_2  and  N1_11 
REMARK    2  A    between atoms: C2_3  and  O2_4 
REMARK    3  A    between atoms: O2_4  and  C3_5 
REMARK    4  A    between atoms: N1_11  and  C9_12 
REMARK    5  A    between atoms: C9_12  and  C10_13 
REMARK    6  A    between atoms: C14_17  and  N2_18 
REMARK    7  A    between atoms: N2_18  and  C15_19 
ROOT
HETATM    1  C10 UNL     1      23.004   3.368  49.951  1.00  0.00     0.102 A 
HETATM    2  C11 UNL     1      23.681   4.444  49.127  1.00  0.00     0.006 A 
HETATM    3  C12 UNL     1      24.913   4.040  49.358  1.00  0.00    -0.013 A 
HETATM    4  C13 UNL     1      24.358   2.931  50.199  1.00  0.00     0.113 A 
HETATM    5  C14 UNL     1      24.789   3.215  51.617  1.00  0.00     0.116 A 
HETATM    6  N3  UNL     1      24.097   3.773  52.577  1.00  0.00    -0.228 NA
HETATM    7  C21 UNL     1      22.778   4.148  52.199  1.00  0.00     0.230 A 
HETATM    8  N4  UNL     1      22.268   3.984  51.058  1.00  0.00    -0.265 NA
ENDROOT
BRANCH   1   9
HETATM    9  C9  UNL     1      22.025   2.569  49.127  1.00  0.00     0.161 C 
BRANCH   9  10
HETATM   10  N1  UNL     1      21.034   1.806  49.753  1.00  0.00    -0.356 N 
HETATM   11  C1  UNL     1      19.673   1.464  49.893  1.00  0.00     0.241 C 
HETATM   12  O1  UNL     1      18.846   2.043  49.154  1.00  0.00    -0.271 OA
HETATM   13  H8  UNL     1      21.428   1.134  50.505  1.00  0.00     0.162 HD
BRANCH  11  14
HETATM   14  C2  UNL     1      18.930   0.539  50.745  1.00  0.00     0.278 C 
BRANCH  14  15
HETATM   15  O2  UNL     1      18.982   0.878  52.115  1.00  0.00    -0.342 OA
BRANCH  15  16
HETATM   16  C3  UNL     1      19.978   0.264  52.900  1.00  0.00     0.069 A 
HETATM   17  C4  UNL     1      21.196   0.900  53.110  1.00  0.00     0.037 A 
HETATM   18  C5  UNL     1      22.199   0.334  53.872  1.00  0.00     0.003 A 
HETATM   19  C6  UNL     1      21.912  -0.888  54.403  1.00  0.00     0.000 A 
HETATM   20  C7  UNL     1      20.740  -1.600  54.255  1.00  0.00     0.003 A 
HETATM   21  C8  UNL     1      19.782  -0.976  53.481  1.00  0.00     0.037 A 
ENDBRANCH  15  16
ENDBRANCH  14  15
ENDBRANCH  11  14
ENDBRANCH   9  10
ENDBRANCH   1   9
BRANCH   5  22
HETATM   22  N2  UNL     1      26.127   2.836  51.995  1.00  0.00    -0.344 N 
HETATM   23  H14 UNL     1      26.900   3.558  51.970  1.00  0.00     0.167 HD
BRANCH  22  24
HETATM   24  C15 UNL     1      26.463   1.498  52.410  1.00  0.00     0.034 A 
HETATM   25  C16 UNL     1      25.472   0.536  52.466  1.00  0.00     0.029 A 
HETATM   26  C17 UNL     1      25.633  -0.770  52.839  1.00  0.00     0.004 A 
HETATM   27  C18 UNL     1      26.928  -1.101  53.182  1.00  0.00     0.019 A 
HETATM   28  C19 UNL     1      27.976  -0.213  53.157  1.00  0.00     0.013 A 
HETATM   29 BR1  UNL     1      29.758  -0.688  53.634  1.00  0.00    -0.051 Br
HETATM   30  C20 UNL     1      27.733   1.101  52.765  1.00  0.00     0.048 A 
ENDBRANCH  22  24
ENDBRANCH   5  22
TORSDOF 7
ENDMDL
MODEL 7
REMARK VINA RESULT:      -7.7      3.263      6.056
REMARK  7 active torsions:
REMARK  status: ('A' for Active; 'I' for Inactive)
REMARK    1  A    between atoms: C1_2  and  C2_3 
REMARK       I    between atoms: C1_2  and  N1_11 
REMARK    2  A    between atoms: C2_3  and  O2_4 
REMARK    3  A    between atoms: O2_4  and  C3_5 
REMARK    4  A    between atoms: N1_11  and  C9_12 
REMARK    5  A    between atoms: C9_12  and  C10_13 
REMARK    6  A    between atoms: C14_17  and  N2_18 
REMARK    7  A    between atoms: N2_18  and  C15_19 
ROOT
HETATM    1  C10 UNL     1      25.090   3.204  50.971  1.00  0.00     0.102 A 
HETATM    2  C11 UNL     1      24.270   3.541  52.200  1.00  0.00     0.006 A 
HETATM    3  C12 UNL     1      23.290   2.700  51.947  1.00  0.00    -0.013 A 
HETATM    4  C13 UNL     1      24.010   2.283  50.701  1.00  0.00     0.113 A 
HETATM    5  C14 UNL     1      23.159   2.742  49.543  1.00  0.00     0.116 A 
HETATM    6  N3  UNL     1      23.301   3.814  48.807  1.00  0.00    -0.228 NA
HETATM    7  C21 UNL     1      24.408   4.628  49.177  1.00  0.00     0.230 A 
HETATM    8  N4  UNL     1      25.211   4.389  50.118  1.00  0.00    -0.265 NA
ENDROOT
BRANCH   1   9
HETATM    9  C9  UNL     1      26.480   2.748  51.337  1.00  0.00     0.161 C 
BRANCH   9  10
HETATM   10  N1  UNL     1      26.677   1.884  52.420  1.00  0.00    -0.356 N 
HETATM   11  C1  UNL     1      27.226   1.644  53.697  1.00  0.00     0.241 C 
HETATM   12  O1  UNL     1      27.863   2.573  54.242  1.00  0.00    -0.271 OA
HETATM   13  H8  UNL     1      26.215   0.915  52.278  1.00  0.00     0.162 HD
BRANCH  11  14
HETATM   14  C2  UNL     1      27.241   0.504  54.609  1.00  0.00     0.278 C 
BRANCH  14  15
HETATM   15  O2  UNL     1      26.629  -0.650  54.070  1.00  0.00    -0.342 OA
BRANCH  15  16
HETATM   16  C3  UNL     1      25.240  -0.795  54.254  1.00  0.00     0.069 A 
HETATM   17  C4  UNL     1      24.365  -0.564  53.198  1.00  0.00     0.037 A 
HETATM   18  C5  UNL     1      22.997  -0.695  53.336  1.00  0.00     0.003 A 
HETATM   19  C6  UNL     1      22.566  -1.066  54.574  1.00  0.00     0.000 A 
HETATM   20  C7  UNL     1      23.348  -1.318  55.681  1.00  0.00     0.003 A 
HETATM   21  C8  UNL     1      24.705  -1.168  55.473  1.00  0.00     0.037 A 
ENDBRANCH  15  16
ENDBRANCH  14  15
ENDBRANCH  11  14
ENDBRANCH   9  10
ENDBRANCH   1   9
BRANCH   5  22
HETATM   22  N2  UNL     1      22.036   1.915  49.173  1.00  0.00    -0.344 N 
HETATM   23  H14 UNL     1      22.039   1.422  48.237  1.00  0.00     0.167 HD
BRANCH  22  24
HETATM   24  C15 UNL     1      20.896   1.731  50.034  1.00  0.00     0.034 A 
HETATM   25  C16 UNL     1      20.741   0.535  50.708  1.00  0.00     0.029 A 
HETATM   26  C17 UNL     1      19.717   0.211  51.556  1.00  0.00     0.004 A 
HETATM   27  C18 UNL     1      18.779   1.211  51.712  1.00  0.00     0.019 A 
HETATM   28  C19 UNL     1      18.850   2.431  51.083  1.00  0.00     0.013 A 
HETATM   29 BR1  UNL     1      17.546   3.800  51.312  1.00  0.00    -0.051 Br
HETATM   30  C20 UNL     1      19.925   2.686  50.235  1.00  0.00     0.048 A 
ENDBRANCH  22  24
ENDBRANCH   5  22
TORSDOF 7
ENDMDL
MODEL 8
REMARK VINA RESULT:      -7.4      2.701      5.189
REMARK  7 active torsions:
REMARK  status: ('A' for Active; 'I' for Inactive)
REMARK    1  A    between atoms: C1_2  and  C2_3 
REMARK       I    between atoms: C1_2  and  N1_11 
REMARK    2  A    between atoms: C2_3  and  O2_4 
REMARK    3  A    between atoms: O2_4  and  C3_5 
REMARK    4  A    between atoms: N1_11  and  C9_12 
REMARK    5  A    between atoms: C9_12  and  C10_13 
REMARK    6  A    between atoms: C14_17  and  N2_18 
REMARK    7  A    between atoms: N2_18  and  C15_19 
ROOT
HETATM    1  C10 UNL     1      22.443   2.155  51.343  1.00  0.00     0.102 A 
HETATM    2  C11 UNL     1      22.527   2.117  49.831  1.00  0.00     0.006 A 
HETATM    3  C12 UNL     1      23.636   2.821  49.737  1.00  0.00    -0.013 A 
HETATM    4  C13 UNL     1      23.660   2.925  51.232  1.00  0.00     0.113 A 
HETATM    5  C14 UNL     1      23.435   4.380  51.561  1.00  0.00     0.116 A 
HETATM    6  N3  UNL     1      22.323   4.967  51.921  1.00  0.00    -0.228 NA
HETATM    7  C21 UNL     1      21.205   4.090  51.999  1.00  0.00     0.230 A 
HETATM    8  N4  UNL     1      21.224   2.855  51.753  1.00  0.00    -0.265 NA
ENDROOT
BRANCH   1   9
HETATM    9  C9  UNL     1      22.406   0.767  51.933  1.00  0.00     0.161 C 
BRANCH   9  10
HETATM   10  N1  UNL     1      23.442   0.325  52.763  1.00  0.00    -0.356 N 
HETATM   11  C1  UNL     1      23.874  -0.462  53.851  1.00  0.00     0.241 C 
HETATM   12  O1  UNL     1      23.019  -1.157  54.445  1.00  0.00    -0.271 OA
HETATM   13  H8  UNL     1      24.402   0.755  52.507  1.00  0.00     0.162 HD
BRANCH  11  14
HETATM   14  C2  UNL     1      25.158  -0.687  54.508  1.00  0.00     0.278 C 
BRANCH  14  15
HETATM   15  O2  UNL     1      26.133  -1.246  53.651  1.00  0.00    -0.342 OA
BRANCH  15  16
HETATM   16  C3  UNL     1      27.413  -0.658  53.652  1.00  0.00     0.069 A 
HETATM   17  C4  UNL     1      28.534  -1.418  53.337  1.00  0.00     0.037 A 
HETATM   18  C5  UNL     1      29.806  -0.882  53.326  1.00  0.00     0.003 A 
HETATM   19  C6  UNL     1      29.887   0.441  53.644  1.00  0.00     0.000 A 
HETATM   20  C7  UNL     1      28.841   1.279  53.970  1.00  0.00     0.003 A 
HETATM   21  C8  UNL     1      27.599   0.677  53.962  1.00  0.00     0.037 A 
ENDBRANCH  15  16
ENDBRANCH  14  15
ENDBRANCH  11  14
ENDBRANCH   9  10
ENDBRANCH   1   9
BRANCH   5  22
HETATM   22  N2  UNL     1      24.571   5.265  51.479  1.00  0.00    -0.344 N 
HETATM   23  H14 UNL     1      25.198   5.386  52.323  1.00  0.00     0.167 HD
BRANCH  22  24
HETATM   24  C15 UNL     1      24.892   6.000  50.283  1.00  0.00     0.034 A 
HETATM   25  C16 UNL     1      26.024   5.666  49.564  1.00  0.00     0.029 A 
HETATM   26  C17 UNL     1      26.460   6.269  48.415  1.00  0.00     0.004 A 
HETATM   27  C18 UNL     1      25.653   7.301  47.981  1.00  0.00     0.019 A 
HETATM   28  C19 UNL     1      24.511   7.703  48.631  1.00  0.00     0.013 A 
HETATM   29 BR1  UNL     1      23.410   9.131  48.017  1.00  0.00    -0.051 Br
HETATM   30  C20 UNL     1      24.132   7.040  49.795  1.00  0.00     0.048 A 
ENDBRANCH  22  24
ENDBRANCH   5  22
TORSDOF 7
ENDMDL
MODEL 9
REMARK VINA RESULT:      -7.4      2.790      5.308
REMARK  7 active torsions:
REMARK  status: ('A' for Active; 'I' for Inactive)
REMARK    1  A    between atoms: C1_2  and  C2_3 
REMARK       I    between atoms: C1_2  and  N1_11 
REMARK    2  A    between atoms: C2_3  and  O2_4 
REMARK    3  A    between atoms: O2_4  and  C3_5 
REMARK    4  A    between atoms: N1_11  and  C9_12 
REMARK    5  A    between atoms: C9_12  and  C10_13 
REMARK    6  A    between atoms: C14_17  and  N2_18 
REMARK    7  A    between atoms: N2_18  and  C15_19 
ROOT
HETATM    1  C10 UNL     1      21.981   3.482  51.024  1.00  0.00     0.102 A 
HETATM    2  C11 UNL     1      20.699   4.115  50.523  1.00  0.00     0.006 A 
HETATM    3  C12 UNL     1      21.229   4.671  49.453  1.00  0.00    -0.013 A 
HETATM    4  C13 UNL     1      22.554   4.094  49.847  1.00  0.00     0.113 A 
HETATM    5  C14 UNL     1      23.440   5.263  50.199  1.00  0.00     0.116 A 
HETATM    6  N3  UNL     1      23.725   5.736  51.384  1.00  0.00    -0.228 NA
HETATM    7  C21 UNL     1      23.100   5.035  52.453  1.00  0.00     0.230 A 
HETATM    8  N4  UNL     1      22.332   4.044  52.330  1.00  0.00    -0.265 NA
ENDROOT
BRANCH   1   9
HETATM    9  C9  UNL     1      21.839   1.988  51.181  1.00  0.00     0.161 C 
BRANCH   9  10
HETATM   10  N1  UNL     1      22.809   1.257  51.875  1.00  0.00    -0.356 N 
HETATM   11  C1  UNL     1      24.167   1.009  52.162  1.00  0.00     0.241 C 
HETATM   12  O1  UNL     1      25.024   1.722  51.593  1.00  0.00    -0.271 OA
HETATM   13  H8  UNL     1      22.386   0.498  52.521  1.00  0.00     0.162 HD
BRANCH  11  14
HETATM   14  C2  UNL     1      24.879   0.061  53.015  1.00  0.00     0.278 C 
BRANCH  14  15
HETATM   15  O2  UNL     1      25.936   0.652  53.744  1.00  0.00    -0.342 OA
BRANCH  15  16
HETATM   16  C3  UNL     1      27.216   0.079  53.614  1.00  0.00     0.069 A 
HETATM   17  C4  UNL     1      28.349   0.805  53.963  1.00  0.00     0.037 A 
HETATM   18  C5  UNL     1      29.622   0.281  53.852  1.00  0.00     0.003 A 
HETATM   19  C6  UNL     1      29.690  -0.995  53.377  1.00  0.00     0.000 A 
HETATM   20  C7  UNL     1      28.631  -1.797  53.004  1.00  0.00     0.003 A 
HETATM   21  C8  UNL     1      27.389  -1.210  53.141  1.00  0.00     0.037 A 
ENDBRANCH  15  16
ENDBRANCH  14  15
ENDBRANCH  11  14
ENDBRANCH   9  10
ENDBRANCH   1   9
BRANCH   5  22
HETATM   22  N2  UNL     1      24.070   5.972  49.112  1.00  0.00    -0.344 N 
HETATM   23  H14 UNL     1      23.481   6.579  48.475  1.00  0.00     0.167 HD
BRANCH  22  24
HETATM   24  C15 UNL     1      25.484   5.889  48.852  1.00  0.00     0.034 A 
HETATM   25  C16 UNL     1      26.149   4.701  49.089  1.00  0.00     0.029 A 
HETATM   26  C17 UNL     1      27.483   4.467  48.892  1.00  0.00     0.004 A 
HETATM   27  C18 UNL     1      28.179   5.557  48.413  1.00  0.00     0.019 A 
HETATM   28  C19 UNL     1      27.604   6.777  48.149  1.00  0.00     0.013 A 
HETATM   29 BR1  UNL     1      28.582   8.271  47.487  1.00  0.00    -0.051 Br
HETATM   30  C20 UNL     1      26.239   6.937  48.374  1.00  0.00     0.048 A 
ENDBRANCH  22  24
ENDBRANCH   5  22
TORSDOF 7
ENDMDL
