MODEL 1
REMARK VINA RESULT:      -8.4      0.000      0.000
REMARK  5 active torsions:
REMARK  status: ('A' for Active; 'I' for Inactive)
REMARK    1  A    between atoms: C2_3  and  N2_4 
REMARK    2  A    between atoms: C2_3  and  C13_17 
REMARK    3  A    between atoms: N2_4  and  C3_5 
REMARK    4  A    between atoms: C4_7  and  C5_8 
REMARK    5  A    between atoms: C11_15  and  C12_16 
ROOT
HETATM    1  C3  UNL     1      24.357   2.367  52.912  1.00  0.00     0.309 A 
HETATM    2  N3  UNL     1      25.553   1.903  52.379  1.00  0.00     0.059 N 
HETATM    3  C4  UNL     1      26.939   1.574  52.485  1.00  0.00     0.381 A 
HETATM    4  O1  UNL     1      26.995   2.074  54.306  1.00  0.00    -0.310 OA
HETATM    5  C11 UNL     1      26.066   2.186  53.843  1.00  0.00     0.334 A 
HETATM    6  C12 UNL     1      25.310   2.269  53.443  1.00  0.00     0.302 A 
ENDROOT
BRANCH   1   7
HETATM    7  N2  UNL     1      23.439   2.288  51.791  1.00  0.00    -0.335 N 
HETATM    8  H4  UNL     1      23.664   3.161  51.226  1.00  0.00     0.164 HD
BRANCH   7   9
HETATM    9  C2  UNL     1      22.446   1.310  51.420  1.00  0.00     0.130 C 
HETATM   10  N1  UNL     1      22.146   1.394  50.216  1.00  0.00    -0.277 NA
HETATM   11  C1  UNL     1      22.626   2.256  49.222  1.00  0.00     0.179 C 
BRANCH   9  12
HETATM   12  C13 UNL     1      21.953   0.326  52.419  1.00  0.00     0.009 A 
HETATM   13  C14 UNL     1      20.606   0.408  52.602  1.00  0.00     0.015 A 
HETATM   14  C15 UNL     1      20.061  -0.489  53.528  1.00  0.00     0.001 A 
HETATM   15  C16 UNL     1      20.858  -1.399  54.210  1.00  0.00     0.000 A 
HETATM   16  C17 UNL     1      22.233  -1.400  53.949  1.00  0.00     0.001 A 
HETATM   17  C18 UNL     1      22.816  -0.532  53.039  1.00  0.00     0.015 A 
ENDBRANCH   9  12
ENDBRANCH   7   9
ENDBRANCH   1   7
BRANCH   3  18
HETATM   18  C5  UNL     1      27.433   0.284  52.713  1.00  0.00    -0.001 A 
HETATM   19  C6  UNL     1      28.702  -0.052  53.219  1.00  0.00     0.011 A 
HETATM   20  C7  UNL     1      29.199  -1.330  53.400  1.00  0.00     0.001 A 
HETATM   21  C8  UNL     1      28.385  -2.382  53.057  1.00  0.00     0.000 A 
HETATM   22  C9  UNL     1      27.128  -2.198  52.554  1.00  0.00     0.001 A 
HETATM   23  C10 UNL     1      26.755  -0.877  52.423  1.00  0.00     0.011 A 
ENDBRANCH   3  18
TORSDOF 5
ENDMDL
MODEL 2
REMARK VINA RESULT:      -8.4      2.698      4.817
REMARK  5 active torsions:
REMARK  status: ('A' for Active; 'I' for Inactive)
REMARK    1  A    between atoms: C2_3  and  N2_4 
REMARK    2  A    between atoms: C2_3  and  C13_17 
REMARK    3  A    between atoms: N2_4  and  C3_5 
REMARK    4  A    between atoms: C4_7  and  C5_8 
REMARK    5  A    between atoms: C11_15  and  C12_16 
ROOT
HETATM    1  C3  UNL     1      24.880   2.399  52.274  1.00  0.00     0.309 A 
HETATM    2  N3  UNL     1      26.196   1.963  52.181  1.00  0.00     0.059 N 
HETATM    3  C4  UNL     1      27.425   1.524  52.763  1.00  0.00     0.381 A 
HETATM    4  O1  UNL     1      26.730   1.665  54.515  1.00  0.00    -0.310 OA
HETATM    5  C11 UNL     1      26.067   1.926  53.753  1.00  0.00     0.334 A 
HETATM    6  C12 UNL     1      25.537   2.136  53.110  1.00  0.00     0.302 A 
ENDROOT
BRANCH   1   7
HETATM    7  N2  UNL     1      24.496   2.598  50.889  1.00  0.00    -0.335 N 
HETATM    8  H4  UNL     1      24.377   1.607  50.520  1.00  0.00     0.164 HD
BRANCH   7   9
HETATM    9  C2  UNL     1      24.275   3.791  50.108  1.00  0.00     0.130 C 
HETATM   10  N1  UNL     1      23.072   4.105  50.079  1.00  0.00    -0.277 NA
HETATM   11  C1  UNL     1      21.964   3.496  50.681  1.00  0.00     0.179 C 
BRANCH   9  12
HETATM   12  C13 UNL     1      25.424   4.515  49.504  1.00  0.00     0.009 A 
HETATM   13  C14 UNL     1      25.112   5.801  49.183  1.00  0.00     0.015 A 
HETATM   14  C15 UNL     1      26.143   6.553  48.609  1.00  0.00     0.001 A 
HETATM   15  C16 UNL     1      27.401   6.007  48.388  1.00  0.00     0.000 A 
HETATM   16  C17 UNL     1      27.617   4.674  48.753  1.00  0.00     0.001 A 
HETATM   17  C18 UNL     1      26.626   3.891  49.326  1.00  0.00     0.015 A 
ENDBRANCH   9  12
ENDBRANCH   7   9
ENDBRANCH   1   7
BRANCH   3  18
HETATM   18  C5  UNL     1      27.801   0.184  52.904  1.00  0.00    -0.001 A 
HETATM   19  C6  UNL     1      29.020  -0.297  53.418  1.00  0.00     0.011 A 
HETATM   20  C7  UNL     1      29.403  -1.623  53.513  1.00  0.00     0.001 A 
HETATM   21  C8  UNL     1      28.517  -2.572  53.067  1.00  0.00     0.000 A 
HETATM   22  C9  UNL     1      27.297  -2.244  52.545  1.00  0.00     0.001 A 
HETATM   23  C10 UNL     1      27.040  -0.891  52.507  1.00  0.00     0.011 A 
ENDBRANCH   3  18
TORSDOF 5
ENDMDL
MODEL 3
REMARK VINA RESULT:      -8.3      2.143      5.422
REMARK  5 active torsions:
REMARK  status: ('A' for Active; 'I' for Inactive)
REMARK    1  A    between atoms: C2_3  and  N2_4 
REMARK    2  A    between atoms: C2_3  and  C13_17 
REMARK    3  A    between atoms: N2_4  and  C3_5 
REMARK    4  A    between atoms: C4_7  and  C5_8 
REMARK    5  A    between atoms: C11_15  and  C12_16 
ROOT
HETATM    1  C3  UNL     1      23.562   2.395  50.219  1.00  0.00     0.309 A 
HETATM    2  N3  UNL     1      22.866   2.277  51.416  1.00  0.00     0.059 N 
HETATM    3  C4  UNL     1      21.748   1.837  52.188  1.00  0.00     0.381 A 
HETATM    4  O1  UNL     1      20.924   1.046  50.682  1.00  0.00    -0.310 OA
HETATM    5  C11 UNL     1      21.841   1.510  50.495  1.00  0.00     0.334 A 
HETATM    6  C12 UNL     1      22.597   1.896  50.363  1.00  0.00     0.302 A 
ENDROOT
BRANCH   1   7
HETATM    7  N2  UNL     1      24.752   3.133  50.596  1.00  0.00    -0.335 N 
HETATM    8  H4  UNL     1      24.437   4.149  50.550  1.00  0.00     0.164 HD
BRANCH   7   9
HETATM    9  C2  UNL     1      26.075   2.706  50.979  1.00  0.00     0.130 C 
HETATM   10  N1  UNL     1      26.954   3.281  50.312  1.00  0.00    -0.277 NA
HETATM   11  C1  UNL     1      26.839   4.243  49.302  1.00  0.00     0.179 C 
BRANCH   9  12
HETATM   12  C13 UNL     1      26.258   1.738  52.092  1.00  0.00     0.009 A 
HETATM   13  C14 UNL     1      26.543   0.485  51.644  1.00  0.00     0.015 A 
HETATM   14  C15 UNL     1      26.731  -0.488  52.631  1.00  0.00     0.001 A 
HETATM   15  C16 UNL     1      26.630  -0.178  53.981  1.00  0.00     0.000 A 
HETATM   16  C17 UNL     1      26.332   1.142  54.336  1.00  0.00     0.001 A 
HETATM   17  C18 UNL     1      26.139   2.139  53.392  1.00  0.00     0.015 A 
ENDBRANCH   9  12
ENDBRANCH   7   9
ENDBRANCH   1   7
BRANCH   3  18
HETATM   18  C5  UNL     1      21.724   0.665  52.952  1.00  0.00    -0.001 A 
HETATM   19  C6  UNL     1      20.583  -0.067  53.332  1.00  0.00     0.011 A 
HETATM   20  C7  UNL     1      20.565  -1.201  54.125  1.00  0.00     0.001 A 
HETATM   21  C8  UNL     1      21.769  -1.669  54.591  1.00  0.00     0.000 A 
HETATM   22  C9  UNL     1      22.954  -1.055  54.297  1.00  0.00     0.001 A 
HETATM   23  C10 UNL     1      22.833   0.063  53.500  1.00  0.00     0.011 A 
ENDBRANCH   3  18
TORSDOF 5
ENDMDL
MODEL 4
REMARK VINA RESULT:      -8.3      2.266      5.214
REMARK  5 active torsions:
REMARK  status: ('A' for Active; 'I' for Inactive)
REMARK    1  A    between atoms: C2_3  and  N2_4 
REMARK    2  A    between atoms: C2_3  and  C13_17 
REMARK    3  A    between atoms: N2_4  and  C3_5 
REMARK    4  A    between atoms: C4_7  and  C5_8 
REMARK    5  A    between atoms: C11_15  and  C12_16 
ROOT
HETATM    1  C3  UNL     1      26.739   1.873  52.262  1.00  0.00     0.309 A 
HETATM    2  N3  UNL     1      25.623   2.608  51.881  1.00  0.00     0.059 N 
HETATM    3  C4  UNL     1      24.880   3.375  50.932  1.00  0.00     0.381 A 
HETATM    4  O1  UNL     1      26.223   3.183  49.615  1.00  0.00    -0.310 OA
HETATM    5  C11 UNL     1      26.426   2.719  50.528  1.00  0.00     0.334 A 
HETATM    6  C12 UNL     1      26.573   2.343  51.286  1.00  0.00     0.302 A 
ENDROOT
BRANCH   1   7
HETATM    7  N2  UNL     1      26.438   1.494  53.629  1.00  0.00    -0.335 N 
HETATM    8  H4  UNL     1      26.443   2.422  54.150  1.00  0.00     0.164 HD
BRANCH   7   9
HETATM    9  C2  UNL     1      26.160   0.218  54.241  1.00  0.00     0.130 C 
HETATM   10  N1  UNL     1      27.182  -0.286  54.740  1.00  0.00    -0.277 NA
HETATM   11  C1  UNL     1      28.494   0.200  54.795  1.00  0.00     0.179 C 
BRANCH   9  12
HETATM   12  C13 UNL     1      24.771  -0.313  54.271  1.00  0.00     0.009 A 
HETATM   13  C14 UNL     1      24.509  -1.008  55.412  1.00  0.00     0.015 A 
HETATM   14  C15 UNL     1      23.220  -1.540  55.519  1.00  0.00     0.001 A 
HETATM   15  C16 UNL     1      22.277  -1.361  54.516  1.00  0.00     0.000 A 
HETATM   16  C17 UNL     1      22.649  -0.630  53.382  1.00  0.00     0.001 A 
HETATM   17  C18 UNL     1      23.914  -0.084  53.233  1.00  0.00     0.015 A 
ENDBRANCH   9  12
ENDBRANCH   7   9
ENDBRANCH   1   7
BRANCH   3  18
HETATM   18  C5  UNL     1      23.861   2.862  50.122  1.00  0.00    -0.001 A 
HETATM   19  C6  UNL     1      23.482   3.331  48.850  1.00  0.00     0.011 A 
HETATM   20  C7  UNL     1      22.444   2.847  48.075  1.00  0.00     0.001 A 
HETATM   21  C8  UNL     1      21.705   1.806  48.582  1.00  0.00     0.000 A 
HETATM   22  C9  UNL     1      21.966   1.254  49.805  1.00  0.00     0.001 A 
HETATM   23  C10 UNL     1      23.025   1.828  50.474  1.00  0.00     0.011 A 
ENDBRANCH   3  18
TORSDOF 5
ENDMDL
MODEL 5
REMARK VINA RESULT:      -8.2      2.931      5.668
REMARK  5 active torsions:
REMARK  status: ('A' for Active; 'I' for Inactive)
REMARK    1  A    between atoms: C2_3  and  N2_4 
REMARK    2  A    between atoms: C2_3  and  C13_17 
REMARK    3  A    between atoms: N2_4  and  C3_5 
REMARK    4  A    between atoms: C4_7  and  C5_8 
REMARK    5  A    between atoms: C11_15  and  C12_16 
ROOT
HETATM    1  C3  UNL     1      23.757   2.365  52.771  1.00  0.00     0.309 A 
HETATM    2  N3  UNL     1      23.741   2.814  51.456  1.00  0.00     0.059 N 
HETATM    3  C4  UNL     1      23.701   3.854  50.478  1.00  0.00     0.381 A 
HETATM    4  O1  UNL     1      23.655   5.200  51.803  1.00  0.00    -0.310 OA
HETATM    5  C11 UNL     1      23.689   4.222  52.165  1.00  0.00     0.334 A 
HETATM    6  C12 UNL     1      23.719   3.409  52.442  1.00  0.00     0.302 A 
ENDROOT
BRANCH   1   7
HETATM    7  N2  UNL     1      23.809   0.922  52.631  1.00  0.00    -0.335 N 
HETATM    8  H4  UNL     1      23.335   0.748  51.694  1.00  0.00     0.164 HD
BRANCH   7   9
HETATM    9  C2  UNL     1      24.359  -0.113  53.471  1.00  0.00     0.130 C 
HETATM   10  N1  UNL     1      23.472  -0.864  53.915  1.00  0.00    -0.277 NA
HETATM   11  C1  UNL     1      22.087  -0.848  53.711  1.00  0.00     0.179 C 
BRANCH   9  12
HETATM   12  C13 UNL     1      25.829  -0.218  53.666  1.00  0.00     0.009 A 
HETATM   13  C14 UNL     1      26.423  -0.986  52.712  1.00  0.00     0.015 A 
HETATM   14  C15 UNL     1      27.809  -1.134  52.824  1.00  0.00     0.001 A 
HETATM   15  C16 UNL     1      28.521  -0.528  53.850  1.00  0.00     0.000 A 
HETATM   16  C17 UNL     1      27.815   0.241  54.781  1.00  0.00     0.001 A 
HETATM   17  C18 UNL     1      26.441   0.416  54.709  1.00  0.00     0.015 A 
ENDBRANCH   9  12
ENDBRANCH   7   9
ENDBRANCH   1   7
BRANCH   3  18
HETATM   18  C5  UNL     1      24.826   4.378  49.831  1.00  0.00    -0.001 A 
HETATM   19  C6  UNL     1      26.088   3.768  49.715  1.00  0.00     0.011 A 
HETATM   20  C7  UNL     1      27.208   4.311  49.112  1.00  0.00     0.001 A 
HETATM   21  C8  UNL     1      27.090   5.567  48.569  1.00  0.00     0.000 A 
HETATM   22  C9  UNL     1      25.920   6.273  48.611  1.00  0.00     0.001 A 
HETATM   23  C10 UNL     1      24.883   5.619  49.240  1.00  0.00     0.011 A 
ENDBRANCH   3  18
TORSDOF 5
ENDMDL
MODEL 6
REMARK VINA RESULT:      -8.1      3.252      5.975
REMARK  5 active torsions:
REMARK  status: ('A' for Active; 'I' for Inactive)
REMARK    1  A    between atoms: C2_3  and  N2_4 
REMARK    2  A    between atoms: C2_3  and  C13_17 
REMARK    3  A    between atoms: N2_4  and  C3_5 
REMARK    4  A    between atoms: C4_7  and  C5_8 
REMARK    5  A    between atoms: C11_15  and  C12_16 
ROOT
HETATM    1  C3  UNL     1      26.257   2.573  51.861  1.00  0.00     0.309 A 
HETATM    2  N3  UNL     1      25.935   1.260  52.184  1.00  0.00     0.059 N 
HETATM    3  C4  UNL     1      25.806   0.185  53.115  1.00  0.00     0.381 A 
HETATM    4  O1  UNL     1      26.401   1.258  54.551  1.00  0.00    -0.310 OA
HETATM    5  C11 UNL     1      26.360   1.738  53.625  1.00  0.00     0.334 A 
HETATM    6  C12 UNL     1      26.319   2.115  52.854  1.00  0.00     0.302 A 
ENDROOT
BRANCH   1   7
HETATM    7  N2  UNL     1      25.996   2.640  50.435  1.00  0.00    -0.335 N 
HETATM    8  H4  UNL     1      26.312   1.688  50.081  1.00  0.00     0.164 HD
BRANCH   7   9
HETATM    9  C2  UNL     1      25.430   3.673  49.602  1.00  0.00     0.130 C 
HETATM   10  N1  UNL     1      24.202   3.531  49.465  1.00  0.00    -0.277 NA
HETATM   11  C1  UNL     1      23.339   2.562  49.992  1.00  0.00     0.179 C 
BRANCH   9  12
HETATM   12  C13 UNL     1      26.290   4.764  49.073  1.00  0.00     0.009 A 
HETATM   13  C14 UNL     1      25.604   5.929  48.913  1.00  0.00     0.015 A 
HETATM   14  C15 UNL     1      26.344   7.009  48.419  1.00  0.00     0.001 A 
HETATM   15  C16 UNL     1      27.693   6.884  48.116  1.00  0.00     0.000 A 
HETATM   16  C17 UNL     1      28.304   5.640  48.316  1.00  0.00     0.001 A 
HETATM   17  C18 UNL     1      27.611   4.544  48.804  1.00  0.00     0.015 A 
ENDBRANCH   9  12
ENDBRANCH   7   9
ENDBRANCH   1   7
BRANCH   3  18
HETATM   18  C5  UNL     1      24.609  -0.181  53.743  1.00  0.00    -0.001 A 
HETATM   19  C6  UNL     1      24.475  -0.981  54.893  1.00  0.00     0.011 A 
HETATM   20  C7  UNL     1      23.287  -1.375  55.482  1.00  0.00     0.001 A 
HETATM   21  C8  UNL     1      22.118  -0.950  54.899  1.00  0.00     0.000 A 
HETATM   22  C9  UNL     1      22.104  -0.168  53.778  1.00  0.00     0.001 A 
HETATM   23  C10 UNL     1      23.354   0.153  53.292  1.00  0.00     0.011 A 
ENDBRANCH   3  18
TORSDOF 5
ENDMDL
MODEL 7
REMARK VINA RESULT:      -7.8      2.364      6.420
REMARK  5 active torsions:
REMARK  status: ('A' for Active; 'I' for Inactive)
REMARK    1  A    between atoms: C2_3  and  N2_4 
REMARK    2  A    between atoms: C2_3  and  C13_17 
REMARK    3  A    between atoms: N2_4  and  C3_5 
REMARK    4  A    between atoms: C4_7  and  C5_8 
REMARK    5  A    between atoms: C11_15  and  C12_16 
ROOT
HETATM    1  C3  UNL     1      26.435   2.388  51.300  1.00  0.00     0.309 A 
HETATM    2  N3  UNL     1      25.460   3.331  50.997  1.00  0.00     0.059 N 
HETATM    3  C4  UNL     1      24.933   4.388  50.194  1.00  0.00     0.381 A 
HETATM    4  O1  UNL     1      26.413   4.335  49.021  1.00  0.00    -0.310 OA
HETATM    5  C11 UNL     1      26.444   3.648  49.806  1.00  0.00     0.334 A 
HETATM    6  C12 UNL     1      26.450   3.090  50.459  1.00  0.00     0.302 A 
ENDROOT
BRANCH   1   7
HETATM    7  N2  UNL     1      25.917   1.743  52.492  1.00  0.00    -0.335 N 
HETATM    8  H4  UNL     1      25.508   2.550  53.051  1.00  0.00     0.164 HD
BRANCH   7   9
HETATM    9  C2  UNL     1      25.884   0.362  52.909  1.00  0.00     0.130 C 
HETATM   10  N1  UNL     1      24.718  -0.047  53.051  1.00  0.00    -0.277 NA
HETATM   11  C1  UNL     1      23.498   0.612  52.859  1.00  0.00     0.179 C 
BRANCH   9  12
HETATM   12  C13 UNL     1      27.148  -0.405  53.062  1.00  0.00     0.009 A 
HETATM   13  C14 UNL     1      27.003  -1.712  52.711  1.00  0.00     0.015 A 
HETATM   14  C15 UNL     1      28.151  -2.505  52.825  1.00  0.00     0.001 A 
HETATM   15  C16 UNL     1      29.355  -1.975  53.269  1.00  0.00     0.000 A 
HETATM   16  C17 UNL     1      29.397  -0.617  53.605  1.00  0.00     0.001 A 
HETATM   17  C18 UNL     1      28.286   0.206  53.507  1.00  0.00     0.015 A 
ENDBRANCH   9  12
ENDBRANCH   7   9
ENDBRANCH   1   7
BRANCH   3  18
HETATM   18  C5  UNL     1      23.985   4.215  49.179  1.00  0.00    -0.001 A 
HETATM   19  C6  UNL     1      23.457   5.216  48.343  1.00  0.00     0.011 A 
HETATM   20  C7  UNL     1      22.488   5.045  47.371  1.00  0.00     0.001 A 
HETATM   21  C8  UNL     1      21.984   3.779  47.193  1.00  0.00     0.000 A 
HETATM   22  C9  UNL     1      22.408   2.714  47.938  1.00  0.00     0.001 A 
HETATM   23  C10 UNL     1      23.376   3.021  48.870  1.00  0.00     0.011 A 
ENDBRANCH   3  18
TORSDOF 5
ENDMDL
MODEL 8
REMARK VINA RESULT:      -7.8      3.663      5.625
REMARK  5 active torsions:
REMARK  status: ('A' for Active; 'I' for Inactive)
REMARK    1  A    between atoms: C2_3  and  N2_4 
REMARK    2  A    between atoms: C2_3  and  C13_17 
REMARK    3  A    between atoms: N2_4  and  C3_5 
REMARK    4  A    between atoms: C4_7  and  C5_8 
REMARK    5  A    between atoms: C11_15  and  C12_16 
ROOT
HETATM    1  C3  UNL     1      23.177   4.312  51.857  1.00  0.00     0.309 A 
HETATM    2  N3  UNL     1      23.541   4.746  50.589  1.00  0.00     0.059 N 
HETATM    3  C4  UNL     1      24.057   5.730  49.690  1.00  0.00     0.381 A 
HETATM    4  O1  UNL     1      24.324   6.973  51.089  1.00  0.00    -0.310 OA
HETATM    5  C11 UNL     1      23.923   6.055  51.382  1.00  0.00     0.334 A 
HETATM    6  C12 UNL     1      23.595   5.292  51.601  1.00  0.00     0.302 A 
ENDROOT
BRANCH   1   7
HETATM    7  N2  UNL     1      22.693   2.965  51.623  1.00  0.00    -0.335 N 
HETATM    8  H4  UNL     1      22.236   3.030  50.664  1.00  0.00     0.164 HD
BRANCH   7   9
HETATM    9  C2  UNL     1      22.773   1.757  52.408  1.00  0.00     0.130 C 
HETATM   10  N1  UNL     1      21.666   1.441  52.879  1.00  0.00    -0.277 NA
HETATM   11  C1  UNL     1      20.417   2.060  52.747  1.00  0.00     0.179 C 
BRANCH   9  12
HETATM   12  C13 UNL     1      24.060   1.023  52.524  1.00  0.00     0.009 A 
HETATM   13  C14 UNL     1      25.031   1.554  51.731  1.00  0.00     0.015 A 
HETATM   14  C15 UNL     1      26.277   0.920  51.783  1.00  0.00     0.001 A 
HETATM   15  C16 UNL     1      26.494  -0.182  52.600  1.00  0.00     0.000 A 
HETATM   16  C17 UNL     1      25.428  -0.650  53.377  1.00  0.00     0.001 A 
HETATM   17  C18 UNL     1      24.177  -0.053  53.358  1.00  0.00     0.015 A 
ENDBRANCH   9  12
ENDBRANCH   7   9
ENDBRANCH   1   7
BRANCH   3  18
HETATM   18  C5  UNL     1      25.384   5.781  49.247  1.00  0.00    -0.001 A 
HETATM   19  C6  UNL     1      26.036   6.889  48.675  1.00  0.00     0.011 A 
HETATM   20  C7  UNL     1      27.334   6.918  48.198  1.00  0.00     0.001 A 
HETATM   21  C8  UNL     1      28.069   5.761  48.287  1.00  0.00     0.000 A 
HETATM   22  C9  UNL     1      27.558   4.611  48.821  1.00  0.00     0.001 A 
HETATM   23  C10 UNL     1      26.255   4.717  49.258  1.00  0.00     0.011 A 
ENDBRANCH   3  18
TORSDOF 5
ENDMDL
MODEL 9
REMARK VINA RESULT:      -7.7      2.204      4.584
REMARK  5 active torsions:
REMARK  status: ('A' for Active; 'I' for Inactive)
REMARK    1  A    between atoms: C2_3  and  N2_4 
REMARK    2  A    between atoms: C2_3  and  C13_17 
REMARK    3  A    between atoms: N2_4  and  C3_5 
REMARK    4  A    between atoms: C4_7  and  C5_8 
REMARK    5  A    between atoms: C11_15  and  C12_16 
ROOT
HETATM    1  C3  UNL     1      26.540   2.452  52.357  1.00  0.00     0.309 A 
HETATM    2  N3  UNL     1      25.828   1.260  52.319  1.00  0.00     0.059 N 
HETATM    3  C4  UNL     1      25.329   0.067  52.927  1.00  0.00     0.381 A 
HETATM    4  O1  UNL     1      26.121   0.495  54.589  1.00  0.00    -0.310 OA
HETATM    5  C11 UNL     1      26.282   1.191  53.828  1.00  0.00     0.334 A 
HETATM    6  C12 UNL     1      26.401   1.752  53.189  1.00  0.00     0.302 A 
ENDROOT
BRANCH   1   7
HETATM    7  N2  UNL     1      26.401   2.967  51.008  1.00  0.00    -0.335 N 
HETATM    8  H4  UNL     1      27.204   2.506  50.484  1.00  0.00     0.164 HD
BRANCH   7   9
HETATM    9  C2  UNL     1      25.443   3.862  50.408  1.00  0.00     0.130 C 
HETATM   10  N1  UNL     1      25.949   4.525  49.484  1.00  0.00    -0.277 NA
HETATM   11  C1  UNL     1      27.251   4.511  48.969  1.00  0.00     0.179 C 
BRANCH   9  12
HETATM   12  C13 UNL     1      24.030   3.868  50.870  1.00  0.00     0.009 A 
HETATM   13  C14 UNL     1      23.231   3.081  50.099  1.00  0.00     0.015 A 
HETATM   14  C15 UNL     1      21.883   3.030  50.470  1.00  0.00     0.001 A 
HETATM   15  C16 UNL     1      21.405   3.746  51.560  1.00  0.00     0.000 A 
HETATM   16  C17 UNL     1      22.311   4.527  52.288  1.00  0.00     0.001 A 
HETATM   17  C18 UNL     1      23.655   4.606  51.957  1.00  0.00     0.015 A 
ENDBRANCH   9  12
ENDBRANCH   7   9
ENDBRANCH   1   7
BRANCH   3  18
HETATM   18  C5  UNL     1      24.041  -0.075  53.456  1.00  0.00    -0.001 A 
HETATM   19  C6  UNL     1      22.915   0.711  53.147  1.00  0.00     0.011 A 
HETATM   20  C7  UNL     1      21.656   0.592  53.707  1.00  0.00     0.001 A 
HETATM   21  C8  UNL     1      21.472  -0.384  54.655  1.00  0.00     0.000 A 
HETATM   22  C9  UNL     1      22.481  -1.219  55.048  1.00  0.00     0.001 A 
HETATM   23  C10 UNL     1      23.684  -0.995  54.414  1.00  0.00     0.011 A 
ENDBRANCH   3  18
TORSDOF 5
ENDMDL
