MODEL 1
REMARK VINA RESULT:      -8.0      0.000      0.000
REMARK  2 active torsions:
REMARK  status: ('A' for Active; 'I' for Inactive)
REMARK    1  A    between atoms: O1_2  and  C2_3 
REMARK    2  A    between atoms: C8_12  and  N3_13 
ROOT
HETATM    1  C2  UNL     1      26.400   0.458  54.533  1.00  0.00     0.058 A 
HETATM    2  C3  UNL     1      25.664  -0.499  55.076  1.00  0.00     0.035 A 
HETATM    3  C4  UNL     1      24.492  -0.636  54.217  1.00  0.00     0.036 A 
HETATM    4  C5  UNL     1      24.544   0.227  53.187  1.00  0.00     0.067 A 
HETATM    5  O2  UNL     1      23.529   0.285  52.222  1.00  0.00    -0.294 OA
HETATM    6  C6  UNL     1      23.211   1.435  51.481  1.00  0.00     0.201 A 
HETATM    7  N1  UNL     1      22.050   1.312  50.770  1.00  0.00    -0.215 NA
HETATM    8  C7  UNL     1      21.645   2.358  50.018  1.00  0.00     0.238 A 
HETATM    9  N2  UNL     1      22.340   3.521  49.944  1.00  0.00    -0.222 NA
HETATM   10  C8  UNL     1      23.500   3.695  50.632  1.00  0.00     0.162 A 
HETATM   11  C14 UNL     1      23.932   2.630  51.408  1.00  0.00     0.128 A 
HETATM   12  N4  UNL     1      25.177   2.964  52.060  1.00  0.00    -0.382 N 
HETATM   13  C15 UNL     1      25.599   2.493  53.361  1.00  0.00     0.138 C 
HETATM   14  C16 UNL     1      25.789   1.012  53.305  1.00  0.00     0.117 A 
HETATM   15  H11 UNL     1      25.711   3.611  51.400  1.00  0.00     0.160 HD
ENDROOT
BRANCH  10  16
HETATM   16  N3  UNL     1      24.191   4.936  50.541  1.00  0.00    -0.335 N 
HETATM   17  C9  UNL     1      25.300   4.869  49.646  1.00  0.00     0.120 A 
HETATM   18  C10 UNL     1      26.087   5.914  49.441  1.00  0.00     0.087 A 
HETATM   19 CL1  UNL     1      27.451   5.858  48.352  1.00  0.00    -0.080 Cl
HETATM   20  C11 UNL     1      25.857   7.196  50.109  1.00  0.00     0.137 A 
HETATM   21  F1  UNL     1      26.585   8.316  49.979  1.00  0.00    -0.205 F 
HETATM   22  C12 UNL     1      24.809   7.206  50.921  1.00  0.00     0.037 A 
HETATM   23  C13 UNL     1      23.829   6.145  51.267  1.00  0.00     0.160 A 
ENDBRANCH  10  16
BRANCH   1  24
HETATM   24  O1  UNL     1      27.620   0.961  54.980  1.00  0.00    -0.359 OA
HETATM   25  C1  UNL     1      28.860   0.436  54.557  1.00  0.00     0.209 C 
ENDBRANCH   1  24
TORSDOF 2
ENDMDL
MODEL 2
REMARK VINA RESULT:      -7.9      3.512      6.419
REMARK  2 active torsions:
REMARK  status: ('A' for Active; 'I' for Inactive)
REMARK    1  A    between atoms: O1_2  and  C2_3 
REMARK    2  A    between atoms: C8_12  and  N3_13 
ROOT
HETATM    1  C2  UNL     1      25.149   4.760  49.338  1.00  0.00     0.058 A 
HETATM    2  C3  UNL     1      23.978   4.945  48.751  1.00  0.00     0.035 A 
HETATM    3  C4  UNL     1      23.011   4.196  49.547  1.00  0.00     0.036 A 
HETATM    4  C5  UNL     1      23.609   3.584  50.584  1.00  0.00     0.067 A 
HETATM    5  O2  UNL     1      22.885   2.802  51.495  1.00  0.00    -0.294 OA
HETATM    6  C6  UNL     1      23.432   1.735  52.226  1.00  0.00     0.201 A 
HETATM    7  N1  UNL     1      22.489   0.988  52.875  1.00  0.00    -0.215 NA
HETATM    8  C7  UNL     1      22.902  -0.067  53.611  1.00  0.00     0.238 A 
HETATM    9  N2  UNL     1      24.208  -0.413  53.729  1.00  0.00    -0.222 NA
HETATM   10  C8  UNL     1      25.186   0.296  53.103  1.00  0.00     0.162 A 
HETATM   11  C14 UNL     1      24.780   1.383  52.344  1.00  0.00     0.128 A 
HETATM   12  N4  UNL     1      25.929   2.037  51.760  1.00  0.00    -0.382 N 
HETATM   13  C15 UNL     1      25.954   2.709  50.479  1.00  0.00     0.138 C 
HETATM   14  C16 UNL     1      25.051   3.898  50.536  1.00  0.00     0.117 A 
HETATM   15  H11 UNL     1      26.735   1.927  52.452  1.00  0.00     0.160 HD
ENDROOT
BRANCH  10  16
HETATM   16  N3  UNL     1      26.543  -0.110  53.239  1.00  0.00    -0.335 N 
HETATM   17  C9  UNL     1      27.348   0.900  53.845  1.00  0.00     0.120 A 
HETATM   18  C10 UNL     1      28.646   0.726  54.038  1.00  0.00     0.087 A 
HETATM   19 CL1  UNL     1      29.654   1.947  54.776  1.00  0.00    -0.080 Cl
HETATM   20  C11 UNL     1      29.325  -0.511  53.651  1.00  0.00     0.137 A 
HETATM   21  F1  UNL     1      30.628  -0.797  53.796  1.00  0.00    -0.205 F 
HETATM   22  C12 UNL     1      28.529  -1.419  53.102  1.00  0.00     0.037 A 
HETATM   23  C13 UNL     1      27.072  -1.397  52.814  1.00  0.00     0.160 A 
ENDBRANCH  10  16
BRANCH   1  24
HETATM   24  O1  UNL     1      26.390   5.268  48.959  1.00  0.00    -0.359 OA
HETATM   25  C1  UNL     1      26.609   6.642  48.724  1.00  0.00     0.209 C 
ENDBRANCH   1  24
TORSDOF 2
ENDMDL
MODEL 3
REMARK VINA RESULT:      -7.9      1.650      2.087
REMARK  2 active torsions:
REMARK  status: ('A' for Active; 'I' for Inactive)
REMARK    1  A    between atoms: O1_2  and  C2_3 
REMARK    2  A    between atoms: C8_12  and  N3_13 
ROOT
HETATM    1  C2  UNL     1      27.793   0.433  53.857  1.00  0.00     0.058 A 
HETATM    2  C3  UNL     1      26.991  -0.167  54.722  1.00  0.00     0.035 A 
HETATM    3  C4  UNL     1      25.647  -0.049  54.167  1.00  0.00     0.036 A 
HETATM    4  C5  UNL     1      25.665   0.608  52.994  1.00  0.00     0.067 A 
HETATM    5  O2  UNL     1      24.491   0.846  52.265  1.00  0.00    -0.294 OA
HETATM    6  C6  UNL     1      24.315   1.927  51.386  1.00  0.00     0.201 A 
HETATM    7  N1  UNL     1      23.023   2.074  50.967  1.00  0.00    -0.215 NA
HETATM    8  C7  UNL     1      22.735   3.084  50.116  1.00  0.00     0.238 A 
HETATM    9  N2  UNL     1      23.675   3.953  49.665  1.00  0.00    -0.222 NA
HETATM   10  C8  UNL     1      24.975   3.851  50.053  1.00  0.00     0.162 A 
HETATM   11  C14 UNL     1      25.288   2.819  50.925  1.00  0.00     0.128 A 
HETATM   12  N4  UNL     1      26.700   2.836  51.227  1.00  0.00    -0.382 N 
HETATM   13  C15 UNL     1      27.297   2.438  52.483  1.00  0.00     0.138 C 
HETATM   14  C16 UNL     1      27.062   0.978  52.693  1.00  0.00     0.117 A 
HETATM   15  H11 UNL     1      27.201   3.191  50.354  1.00  0.00     0.160 HD
ENDROOT
BRANCH  10  16
HETATM   16  N3  UNL     1      25.926   4.793  49.571  1.00  0.00    -0.335 N 
HETATM   17  C9  UNL     1      25.555   6.136  49.876  1.00  0.00     0.120 A 
HETATM   18  C10 UNL     1      26.297   7.163  49.491  1.00  0.00     0.087 A 
HETATM   19 CL1  UNL     1      25.863   8.816  49.851  1.00  0.00    -0.080 Cl
HETATM   20  C11 UNL     1      27.541   6.979  48.745  1.00  0.00     0.137 A 
HETATM   21  F1  UNL     1      28.369   7.940  48.305  1.00  0.00    -0.205 F 
HETATM   22  C12 UNL     1      27.845   5.712  48.496  1.00  0.00     0.037 A 
HETATM   23  C13 UNL     1      27.142   4.451  48.847  1.00  0.00     0.160 A 
ENDBRANCH  10  16
BRANCH   1  24
HETATM   24  O1  UNL     1      29.176   0.589  53.933  1.00  0.00    -0.359 OA
HETATM   25  C1  UNL     1      30.078  -0.428  53.555  1.00  0.00     0.209 C 
ENDBRANCH   1  24
TORSDOF 2
ENDMDL
MODEL 4
REMARK VINA RESULT:      -7.5      2.955      4.128
REMARK  2 active torsions:
REMARK  status: ('A' for Active; 'I' for Inactive)
REMARK    1  A    between atoms: O1_2  and  C2_3 
REMARK    2  A    between atoms: C8_12  and  N3_13 
ROOT
HETATM    1  C2  UNL     1      24.844   0.101  53.195  1.00  0.00     0.058 A 
HETATM    2  C3  UNL     1      25.832  -0.721  52.880  1.00  0.00     0.035 A 
HETATM    3  C4  UNL     1      26.748   0.057  52.052  1.00  0.00     0.036 A 
HETATM    4  C5  UNL     1      26.301   1.314  51.887  1.00  0.00     0.067 A 
HETATM    5  O2  UNL     1      27.012   2.254  51.128  1.00  0.00    -0.294 OA
HETATM    6  C6  UNL     1      26.418   3.339  50.462  1.00  0.00     0.201 A 
HETATM    7  N1  UNL     1      27.275   3.982  49.612  1.00  0.00    -0.215 NA
HETATM    8  C7  UNL     1      26.811   5.043  48.917  1.00  0.00     0.238 A 
HETATM    9  N2  UNL     1      25.535   5.492  49.026  1.00  0.00    -0.222 NA
HETATM   10  C8  UNL     1      24.644   4.888  49.857  1.00  0.00     0.162 A 
HETATM   11  C14 UNL     1      25.103   3.797  50.580  1.00  0.00     0.128 A 
HETATM   12  N4  UNL     1      24.048   3.279  51.420  1.00  0.00    -0.382 N 
HETATM   13  C15 UNL     1      23.866   1.891  51.783  1.00  0.00     0.138 C 
HETATM   14  C16 UNL     1      25.025   1.450  52.616  1.00  0.00     0.117 A 
HETATM   15  H11 UNL     1      23.447   4.111  51.713  1.00  0.00     0.160 HD
ENDROOT
BRANCH  10  16
HETATM   16  N3  UNL     1      23.310   5.379  49.931  1.00  0.00    -0.335 N 
HETATM   17  C9  UNL     1      22.449   4.741  48.988  1.00  0.00     0.120 A 
HETATM   18  C10 UNL     1      21.173   5.075  48.881  1.00  0.00     0.087 A 
HETATM   19 CL1  UNL     1      20.099   4.311  47.735  1.00  0.00    -0.080 Cl
HETATM   20  C11 UNL     1      20.572   6.106  49.728  1.00  0.00     0.137 A 
HETATM   21  F1  UNL     1      19.297   6.525  49.708  1.00  0.00    -0.205 F 
HETATM   22  C12 UNL     1      21.412   6.659  50.592  1.00  0.00     0.037 A 
HETATM   23  C13 UNL     1      22.854   6.412  50.849  1.00  0.00     0.160 A 
ENDBRANCH  10  16
BRANCH   1  24
HETATM   24  O1  UNL     1      23.719  -0.167  53.973  1.00  0.00    -0.359 OA
HETATM   25  C1  UNL     1      22.650  -0.965  53.513  1.00  0.00     0.209 C 
ENDBRANCH   1  24
TORSDOF 2
ENDMDL
MODEL 5
REMARK VINA RESULT:      -7.5      2.746      3.506
REMARK  2 active torsions:
REMARK  status: ('A' for Active; 'I' for Inactive)
REMARK    1  A    between atoms: O1_2  and  C2_3 
REMARK    2  A    between atoms: C8_12  and  N3_13 
ROOT
HETATM    1  C2  UNL     1      24.958  -0.828  54.460  1.00  0.00     0.058 A 
HETATM    2  C3  UNL     1      24.481  -1.263  55.615  1.00  0.00     0.035 A 
HETATM    3  C4  UNL     1      23.033  -1.329  55.448  1.00  0.00     0.036 A 
HETATM    4  C5  UNL     1      22.671  -0.940  54.213  1.00  0.00     0.067 A 
HETATM    5  O2  UNL     1      21.328  -0.918  53.812  1.00  0.00    -0.294 OA
HETATM    6  C6  UNL     1      20.814  -0.061  52.824  1.00  0.00     0.201 A 
HETATM    7  N1  UNL     1      19.449  -0.067  52.765  1.00  0.00    -0.215 NA
HETATM    8  C7  UNL     1      18.843   0.721  51.849  1.00  0.00     0.238 A 
HETATM    9  N2  UNL     1      19.535   1.515  50.993  1.00  0.00    -0.222 NA
HETATM   10  C8  UNL     1      20.894   1.558  51.012  1.00  0.00     0.162 A 
HETATM   11  C14 UNL     1      21.532   0.754  51.944  1.00  0.00     0.128 A 
HETATM   12  N4  UNL     1      22.965   0.900  51.828  1.00  0.00    -0.382 N 
HETATM   13  C15 UNL     1      23.911   0.810  52.919  1.00  0.00     0.138 C 
HETATM   14  C16 UNL     1      23.892  -0.580  53.465  1.00  0.00     0.117 A 
HETATM   15  H11 UNL     1      23.177   1.081  50.798  1.00  0.00     0.160 HD
ENDROOT
BRANCH  10  16
HETATM   16  N3  UNL     1      21.581   2.417  50.108  1.00  0.00    -0.335 N 
HETATM   17  C9  UNL     1      21.716   3.740  50.623  1.00  0.00     0.120 A 
HETATM   18  C10 UNL     1      22.305   4.697  49.923  1.00  0.00     0.087 A 
HETATM   19 CL1  UNL     1      22.483   6.326  50.529  1.00  0.00    -0.080 Cl
HETATM   20  C11 UNL     1      22.858   4.450  48.591  1.00  0.00     0.137 A 
HETATM   21  F1  UNL     1      23.472   5.338  47.793  1.00  0.00    -0.205 F 
HETATM   22  C12 UNL     1      22.714   3.202  48.164  1.00  0.00     0.037 A 
HETATM   23  C13 UNL     1      22.092   2.016  48.806  1.00  0.00     0.160 A 
ENDBRANCH  10  16
BRANCH   1  24
HETATM   24  O1  UNL     1      26.288  -0.595  54.113  1.00  0.00    -0.359 OA
HETATM   25  C1  UNL     1      27.127   0.266  54.852  1.00  0.00     0.209 C 
ENDBRANCH   1  24
TORSDOF 2
ENDMDL
MODEL 6
REMARK VINA RESULT:      -7.4      2.745      4.492
REMARK  2 active torsions:
REMARK  status: ('A' for Active; 'I' for Inactive)
REMARK    1  A    between atoms: O1_2  and  C2_3 
REMARK    2  A    between atoms: C8_12  and  N3_13 
ROOT
HETATM    1  C2  UNL     1      20.581  -0.440  53.759  1.00  0.00     0.058 A 
HETATM    2  C3  UNL     1      20.980  -1.604  54.247  1.00  0.00     0.035 A 
HETATM    3  C4  UNL     1      22.435  -1.520  54.336  1.00  0.00     0.036 A 
HETATM    4  C5  UNL     1      22.877  -0.325  53.908  1.00  0.00     0.067 A 
HETATM    5  O2  UNL     1      24.242  -0.006  53.898  1.00  0.00    -0.294 OA
HETATM    6  C6  UNL     1      24.829   0.916  53.016  1.00  0.00     0.201 A 
HETATM    7  N1  UNL     1      26.195   0.894  53.046  1.00  0.00    -0.215 NA
HETATM    8  C7  UNL     1      26.869   1.740  52.237  1.00  0.00     0.238 A 
HETATM    9  N2  UNL     1      26.245   2.605  51.398  1.00  0.00    -0.222 NA
HETATM   10  C8  UNL     1      24.888   2.666  51.328  1.00  0.00     0.162 A 
HETATM   11  C14 UNL     1      24.181   1.805  52.154  1.00  0.00     0.128 A 
HETATM   12  N4  UNL     1      22.760   2.000  51.974  1.00  0.00    -0.382 N 
HETATM   13  C15 UNL     1      21.749   0.972  52.087  1.00  0.00     0.138 C 
HETATM   14  C16 UNL     1      21.710   0.479  53.496  1.00  0.00     0.117 A 
HETATM   15  H11 UNL     1      22.614   3.033  51.751  1.00  0.00     0.160 HD
ENDROOT
BRANCH  10  16
HETATM   16  N3  UNL     1      24.272   3.575  50.423  1.00  0.00    -0.335 N 
HETATM   17  C9  UNL     1      24.221   4.901  50.944  1.00  0.00     0.120 A 
HETATM   18  C10 UNL     1      23.663   5.891  50.264  1.00  0.00     0.087 A 
HETATM   19 CL1  UNL     1      23.587   7.523  50.881  1.00  0.00    -0.080 Cl
HETATM   20  C11 UNL     1      23.080   5.683  48.938  1.00  0.00     0.137 A 
HETATM   21  F1  UNL     1      22.491   6.605  48.161  1.00  0.00    -0.205 F 
HETATM   22  C12 UNL     1      23.162   4.435  48.497  1.00  0.00     0.037 A 
HETATM   23  C13 UNL     1      23.745   3.216  49.114  1.00  0.00     0.160 A 
ENDBRANCH  10  16
BRANCH   1  24
HETATM   24  O1  UNL     1      19.279  -0.024  53.488  1.00  0.00    -0.359 OA
HETATM   25  C1  UNL     1      18.335  -0.852  52.845  1.00  0.00     0.209 C 
ENDBRANCH   1  24
TORSDOF 2
ENDMDL
MODEL 7
REMARK VINA RESULT:      -7.2      3.566      6.297
REMARK  2 active torsions:
REMARK  status: ('A' for Active; 'I' for Inactive)
REMARK    1  A    between atoms: O1_2  and  C2_3 
REMARK    2  A    between atoms: C8_12  and  N3_13 
ROOT
HETATM    1  C2  UNL     1      18.449   0.635  51.053  1.00  0.00     0.058 A 
HETATM    2  C3  UNL     1      17.593  -0.328  51.357  1.00  0.00     0.035 A 
HETATM    3  C4  UNL     1      18.149  -1.002  52.526  1.00  0.00     0.036 A 
HETATM    4  C5  UNL     1      19.313  -0.441  52.899  1.00  0.00     0.067 A 
HETATM    5  O2  UNL     1      20.039  -0.915  54.000  1.00  0.00    -0.294 OA
HETATM    6  C6  UNL     1      21.432  -0.794  54.136  1.00  0.00     0.201 A 
HETATM    7  N1  UNL     1      21.936  -1.523  55.176  1.00  0.00    -0.215 NA
HETATM    8  C7  UNL     1      23.267  -1.482  55.402  1.00  0.00     0.238 A 
HETATM    9  N2  UNL     1      24.119  -0.750  54.640  1.00  0.00    -0.222 NA
HETATM   10  C8  UNL     1      23.668  -0.008  53.593  1.00  0.00     0.162 A 
HETATM   11  C14 UNL     1      22.304  -0.038  53.347  1.00  0.00     0.128 A 
HETATM   12  N4  UNL     1      21.985   0.807  52.219  1.00  0.00    -0.382 N 
HETATM   13  C15 UNL     1      20.920   0.574  51.268  1.00  0.00     0.138 C 
HETATM   14  C16 UNL     1      19.607   0.671  51.974  1.00  0.00     0.117 A 
HETATM   15  H11 UNL     1      22.676   1.620  52.234  1.00  0.00     0.160 HD
ENDROOT
BRANCH  10  16
HETATM   16  N3  UNL     1      24.596   0.732  52.808  1.00  0.00    -0.335 N 
HETATM   17  C9  UNL     1      24.136   2.055  52.536  1.00  0.00     0.120 A 
HETATM   18  C10 UNL     1      24.844   2.896  51.799  1.00  0.00     0.087 A 
HETATM   19 CL1  UNL     1      24.303   4.520  51.452  1.00  0.00    -0.080 Cl
HETATM   20  C11 UNL     1      26.140   2.522  51.232  1.00  0.00     0.137 A 
HETATM   21  F1  UNL     1      26.941   3.286  50.473  1.00  0.00    -0.205 F 
HETATM   22  C12 UNL     1      26.525   1.286  51.522  1.00  0.00     0.037 A 
HETATM   23  C13 UNL     1      25.870   0.220  52.323  1.00  0.00     0.160 A 
ENDBRANCH  10  16
BRANCH   1  24
HETATM   24  O1  UNL     1      18.369   1.560  50.014  1.00  0.00    -0.359 OA
HETATM   25  C1  UNL     1      18.144   2.935  50.237  1.00  0.00     0.209 C 
ENDBRANCH   1  24
TORSDOF 2
ENDMDL
MODEL 8
REMARK VINA RESULT:      -7.1      2.499      3.346
REMARK  2 active torsions:
REMARK  status: ('A' for Active; 'I' for Inactive)
REMARK    1  A    between atoms: O1_2  and  C2_3 
REMARK    2  A    between atoms: C8_12  and  N3_13 
ROOT
HETATM    1  C2  UNL     1      23.075  -0.551  53.636  1.00  0.00     0.058 A 
HETATM    2  C3  UNL     1      22.327  -0.916  54.665  1.00  0.00     0.035 A 
HETATM    3  C4  UNL     1      21.021  -0.304  54.444  1.00  0.00     0.036 A 
HETATM    4  C5  UNL     1      21.006   0.406  53.302  1.00  0.00     0.067 A 
HETATM    5  O2  UNL     1      19.859   1.088  52.873  1.00  0.00    -0.294 OA
HETATM    6  C6  UNL     1      19.881   2.236  52.064  1.00  0.00     0.201 A 
HETATM    7  N1  UNL     1      18.663   2.846  51.963  1.00  0.00    -0.215 NA
HETATM    8  C7  UNL     1      18.565   3.962  51.208  1.00  0.00     0.238 A 
HETATM    9  N2  UNL     1      19.624   4.498  50.549  1.00  0.00    -0.222 NA
HETATM   10  C8  UNL     1      20.858   3.929  50.617  1.00  0.00     0.162 A 
HETATM   11  C14 UNL     1      20.976   2.782  51.387  1.00  0.00     0.128 A 
HETATM   12  N4  UNL     1      22.335   2.295  51.346  1.00  0.00    -0.382 N 
HETATM   13  C15 UNL     1      23.018   1.613  52.424  1.00  0.00     0.138 C 
HETATM   14  C16 UNL     1      22.341   0.306  52.679  1.00  0.00     0.117 A 
HETATM   15  H11 UNL     1      22.722   2.532  50.380  1.00  0.00     0.160 HD
ENDROOT
BRANCH  10  16
HETATM   16  N3  UNL     1      21.946   4.531  49.926  1.00  0.00    -0.335 N 
HETATM   17  C9  UNL     1      22.611   5.512  50.720  1.00  0.00     0.120 A 
HETATM   18  C10 UNL     1      23.636   6.205  50.249  1.00  0.00     0.087 A 
HETATM   19 CL1  UNL     1      24.466   7.411  51.201  1.00  0.00    -0.080 Cl
HETATM   20  C11 UNL     1      24.150   5.997  48.895  1.00  0.00     0.137 A 
HETATM   21  F1  UNL     1      25.177   6.638  48.314  1.00  0.00    -0.205 F 
HETATM   22  C12 UNL     1      23.503   5.069  48.203  1.00  0.00     0.037 A 
HETATM   23  C13 UNL     1      22.351   4.204  48.566  1.00  0.00     0.160 A 
ENDBRANCH  10  16
BRANCH   1  24
HETATM   24  O1  UNL     1      24.406  -0.879  53.382  1.00  0.00    -0.359 OA
HETATM   25  C1  UNL     1      25.461  -0.482  54.231  1.00  0.00     0.209 C 
ENDBRANCH   1  24
TORSDOF 2
ENDMDL
MODEL 9
REMARK VINA RESULT:      -7.0      4.362      6.294
REMARK  2 active torsions:
REMARK  status: ('A' for Active; 'I' for Inactive)
REMARK    1  A    between atoms: O1_2  and  C2_3 
REMARK    2  A    between atoms: C8_12  and  N3_13 
ROOT
HETATM    1  C2  UNL     1      25.859   2.583  50.933  1.00  0.00     0.058 A 
HETATM    2  C3  UNL     1      26.869   2.400  51.767  1.00  0.00     0.035 A 
HETATM    3  C4  UNL     1      26.430   1.370  52.704  1.00  0.00     0.036 A 
HETATM    4  C5  UNL     1      25.182   0.959  52.419  1.00  0.00     0.067 A 
HETATM    5  O2  UNL     1      24.540  -0.028  53.181  1.00  0.00    -0.294 OA
HETATM    6  C6  UNL     1      23.147  -0.129  53.326  1.00  0.00     0.201 A 
HETATM    7  N1  UNL     1      22.770  -1.025  54.287  1.00  0.00    -0.215 NA
HETATM    8  C7  UNL     1      21.450  -1.205  54.514  1.00  0.00     0.238 A 
HETATM    9  N2  UNL     1      20.490  -0.533  53.830  1.00  0.00    -0.222 NA
HETATM   10  C8  UNL     1      20.812   0.370  52.865  1.00  0.00     0.162 A 
HETATM   11  C14 UNL     1      22.162   0.566  52.618  1.00  0.00     0.128 A 
HETATM   12  N4  UNL     1      22.338   1.538  51.563  1.00  0.00    -0.382 N 
HETATM   13  C15 UNL     1      23.436   2.473  51.454  1.00  0.00     0.138 C 
HETATM   14  C16 UNL     1      24.704   1.712  51.243  1.00  0.00     0.117 A 
HETATM   15  H11 UNL     1      21.513   1.425  50.895  1.00  0.00     0.160 HD
ENDROOT
BRANCH  10  16
HETATM   16  N3  UNL     1      19.775   1.067  52.183  1.00  0.00    -0.335 N 
HETATM   17  C9  UNL     1      18.949   0.188  51.420  1.00  0.00     0.120 A 
HETATM   18  C10 UNL     1      17.942   0.645  50.692  1.00  0.00     0.087 A 
HETATM   19 CL1  UNL     1      16.917  -0.409  49.749  1.00  0.00    -0.080 Cl
HETATM   20  C11 UNL     1      17.613   2.069  50.638  1.00  0.00     0.137 A 
HETATM   21  F1  UNL     1      16.621   2.643  49.938  1.00  0.00    -0.205 F 
HETATM   22  C12 UNL     1      18.405   2.840  51.371  1.00  0.00     0.037 A 
HETATM   23  C13 UNL     1      19.564   2.506  52.238  1.00  0.00     0.160 A 
ENDBRANCH  10  16
BRANCH   1  24
HETATM   24  O1  UNL     1      25.784   3.464  49.855  1.00  0.00    -0.359 OA
HETATM   25  C1  UNL     1      26.924   4.074  49.292  1.00  0.00     0.209 C 
ENDBRANCH   1  24
TORSDOF 2
ENDMDL
