MODEL 1
REMARK VINA RESULT:      -8.1      0.000      0.000
REMARK  3 active torsions:
REMARK  status: ('A' for Active; 'I' for Inactive)
REMARK    1  A    between atoms: N1_8  and  C8_9 
REMARK    2  A    between atoms: C13_17  and  C14_18 
REMARK    3  A    between atoms: C14_18  and  O1_21 
ROOT
HETATM    1  C8  UNL     1      25.451   0.804  52.937  1.00  0.00     0.166 A 
HETATM    2  N2  UNL     1      24.414   0.198  53.586  1.00  0.00    -0.221 NA
HETATM    3  C9  UNL     1      23.134   0.427  53.167  1.00  0.00     0.238 A 
HETATM    4  N3  UNL     1      22.774   1.220  52.142  1.00  0.00    -0.216 NA
HETATM    5  C10 UNL     1      23.793   1.839  51.476  1.00  0.00     0.196 A 
HETATM    6  C11 UNL     1      25.123   1.630  51.876  1.00  0.00     0.128 A 
HETATM    7  N4  UNL     1      26.310   2.209  51.283  1.00  0.00    -0.383 N 
HETATM    8  C12 UNL     1      26.292   3.484  50.587  1.00  0.00     0.133 C 
HETATM    9  C13 UNL     1      25.471   3.572  49.377  1.00  0.00     0.084 C 
HETATM   10  C18 UNL     1      24.182   2.905  49.261  1.00  0.00     0.190 C 
HETATM   11  O2  UNL     1      23.413   2.672  50.398  1.00  0.00    -0.332 OA
HETATM   12  H10 UNL     1      27.196   1.626  51.398  1.00  0.00     0.160 HD
ENDROOT
BRANCH   1  13
HETATM   13  N1  UNL     1      26.820   0.638  53.287  1.00  0.00    -0.308 N 
HETATM   14  C2  UNL     1      27.347  -0.668  53.048  1.00  0.00     0.024 A 
HETATM   15  C1  UNL     1      26.669  -1.689  52.541  1.00  0.00     0.064 C 
HETATM   16  C3  UNL     1      28.741  -0.970  53.364  1.00  0.00    -0.039 A 
HETATM   17  C4  UNL     1      29.345  -2.315  53.134  1.00  0.00     0.050 C 
HETATM   18  C5  UNL     1      29.478   0.017  53.877  1.00  0.00     0.010 A 
HETATM   19  C6  UNL     1      28.919   1.345  54.115  1.00  0.00     0.018 A 
HETATM   20  C7  UNL     1      27.658   1.662  53.841  1.00  0.00     0.099 A 
ENDBRANCH   1  13
BRANCH   9  21
HETATM   21  C14 UNL     1      25.263   5.047  49.124  1.00  0.00     0.049 C 
HETATM   22  C15 UNL     1      24.279   5.824  48.730  1.00  0.00     0.002 C 
HETATM   23  C16 UNL     1      24.214   7.292  48.521  1.00  0.00     0.038 C 
BRANCH  21  24
HETATM   24  O1  UNL     1      26.392   5.816  49.361  1.00  0.00    -0.360 OA
HETATM   25  C17 UNL     1      27.457   5.860  48.430  1.00  0.00     0.209 C 
ENDBRANCH  21  24
ENDBRANCH   9  21
TORSDOF 3
ENDMDL
MODEL 2
REMARK VINA RESULT:      -8.1      2.104      6.690
REMARK  3 active torsions:
REMARK  status: ('A' for Active; 'I' for Inactive)
REMARK    1  A    between atoms: N1_8  and  C8_9 
REMARK    2  A    between atoms: C13_17  and  C14_18 
REMARK    3  A    between atoms: C14_18  and  O1_21 
ROOT
HETATM    1  C8  UNL     1      24.738   3.559  50.181  1.00  0.00     0.166 A 
HETATM    2  N2  UNL     1      23.498   3.292  49.675  1.00  0.00    -0.221 NA
HETATM    3  C9  UNL     1      22.776   2.249  50.182  1.00  0.00     0.238 A 
HETATM    4  N3  UNL     1      23.174   1.425  51.167  1.00  0.00    -0.216 NA
HETATM    5  C10 UNL     1      24.411   1.670  51.692  1.00  0.00     0.196 A 
HETATM    6  C11 UNL     1      25.186   2.732  51.197  1.00  0.00     0.128 A 
HETATM    7  N4  UNL     1      26.509   3.122  51.638  1.00  0.00    -0.383 N 
HETATM    8  C12 UNL     1      27.443   2.179  52.228  1.00  0.00     0.133 C 
HETATM    9  C13 UNL     1      27.051   1.554  53.493  1.00  0.00     0.084 C 
HETATM   10  C18 UNL     1      25.677   1.159  53.773  1.00  0.00     0.190 C 
HETATM   11  O2  UNL     1      24.828   0.803  52.728  1.00  0.00    -0.332 OA
HETATM   12  H10 UNL     1      26.741   4.153  51.494  1.00  0.00     0.160 HD
ENDROOT
BRANCH   1  13
HETATM   13  N1  UNL     1      25.576   4.616  49.730  1.00  0.00    -0.308 N 
HETATM   14  C2  UNL     1      25.158   5.924  50.123  1.00  0.00     0.024 A 
HETATM   15  C1  UNL     1      24.085   6.200  50.852  1.00  0.00     0.064 C 
HETATM   16  C3  UNL     1      25.932   7.097  49.724  1.00  0.00    -0.039 A 
HETATM   17  C4  UNL     1      25.543   8.487  50.107  1.00  0.00     0.050 C 
HETATM   18  C5  UNL     1      27.024   6.885  48.988  1.00  0.00     0.010 A 
HETATM   19  C6  UNL     1      27.434   5.540  48.596  1.00  0.00     0.018 A 
HETATM   20  C7  UNL     1      26.761   4.447  48.938  1.00  0.00     0.099 A 
ENDBRANCH   1  13
BRANCH   9  21
HETATM   21  C14 UNL     1      27.931   0.336  53.644  1.00  0.00     0.049 C 
HETATM   22  C15 UNL     1      29.221   0.081  53.668  1.00  0.00     0.002 C 
HETATM   23  C16 UNL     1      29.963  -1.195  53.827  1.00  0.00     0.038 C 
BRANCH  21  24
HETATM   24  O1  UNL     1      27.224  -0.846  53.797  1.00  0.00    -0.360 OA
HETATM   25  C17 UNL     1      26.987  -1.706  52.698  1.00  0.00     0.209 C 
ENDBRANCH  21  24
ENDBRANCH   9  21
TORSDOF 3
ENDMDL
MODEL 3
REMARK VINA RESULT:      -7.9      2.290      6.307
REMARK  3 active torsions:
REMARK  status: ('A' for Active; 'I' for Inactive)
REMARK    1  A    between atoms: N1_8  and  C8_9 
REMARK    2  A    between atoms: C13_17  and  C14_18 
REMARK    3  A    between atoms: C14_18  and  O1_21 
ROOT
HETATM    1  C8  UNL     1      23.556   3.140  51.177  1.00  0.00     0.166 A 
HETATM    2  N2  UNL     1      22.404   2.677  50.608  1.00  0.00    -0.221 NA
HETATM    3  C9  UNL     1      21.987   1.404  50.875  1.00  0.00     0.238 A 
HETATM    4  N3  UNL     1      22.618   0.523  51.671  1.00  0.00    -0.216 NA
HETATM    5  C10 UNL     1      23.774   0.960  52.252  1.00  0.00     0.196 A 
HETATM    6  C11 UNL     1      24.238   2.262  52.003  1.00  0.00     0.128 A 
HETATM    7  N4  UNL     1      25.436   2.875  52.534  1.00  0.00    -0.383 N 
HETATM    8  C12 UNL     1      26.600   2.100  52.926  1.00  0.00     0.133 C 
HETATM    9  C13 UNL     1      26.428   1.148  54.026  1.00  0.00     0.084 C 
HETATM   10  C18 UNL     1      25.210   0.368  54.197  1.00  0.00     0.190 C 
HETATM   11  O2  UNL     1      24.436   0.032  53.089  1.00  0.00    -0.332 OA
HETATM   12  H10 UNL     1      25.397   3.938  52.613  1.00  0.00     0.160 HD
ENDROOT
BRANCH   1  13
HETATM   13  N1  UNL     1      24.082   4.444  50.969  1.00  0.00    -0.308 N 
HETATM   14  C2  UNL     1      25.099   4.531  49.970  1.00  0.00     0.024 A 
HETATM   15  C1  UNL     1      25.561   3.513  49.254  1.00  0.00     0.064 C 
HETATM   16  C3  UNL     1      25.723   5.815  49.660  1.00  0.00    -0.039 A 
HETATM   17  C4  UNL     1      26.788   5.964  48.625  1.00  0.00     0.050 C 
HETATM   18  C5  UNL     1      25.302   6.879  50.346  1.00  0.00     0.010 A 
HETATM   19  C6  UNL     1      24.261   6.769  51.365  1.00  0.00     0.018 A 
HETATM   20  C7  UNL     1      23.668   5.622  51.677  1.00  0.00     0.099 A 
ENDBRANCH   1  13
BRANCH   9  21
HETATM   21  C14 UNL     1      27.592   0.189  53.930  1.00  0.00     0.049 C 
HETATM   22  C15 UNL     1      27.918  -0.853  53.198  1.00  0.00     0.002 C 
HETATM   23  C16 UNL     1      29.123  -1.720  53.212  1.00  0.00     0.038 C 
BRANCH  21  24
HETATM   24  O1  UNL     1      28.603   0.448  54.842  1.00  0.00    -0.360 OA
HETATM   25  C17 UNL     1      29.478   1.548  54.673  1.00  0.00     0.209 C 
ENDBRANCH  21  24
ENDBRANCH   9  21
TORSDOF 3
ENDMDL
MODEL 4
REMARK VINA RESULT:      -7.7      2.459      6.605
REMARK  3 active torsions:
REMARK  status: ('A' for Active; 'I' for Inactive)
REMARK    1  A    between atoms: N1_8  and  C8_9 
REMARK    2  A    between atoms: C13_17  and  C14_18 
REMARK    3  A    between atoms: C14_18  and  O1_21 
ROOT
HETATM    1  C8  UNL     1      23.063   1.729  51.522  1.00  0.00     0.166 A 
HETATM    2  N2  UNL     1      21.908   1.009  51.414  1.00  0.00    -0.221 NA
HETATM    3  C9  UNL     1      21.756  -0.132  52.150  1.00  0.00     0.238 A 
HETATM    4  N3  UNL     1      22.663  -0.642  53.001  1.00  0.00    -0.216 NA
HETATM    5  C10 UNL     1      23.829   0.059  53.128  1.00  0.00     0.196 A 
HETATM    6  C11 UNL     1      24.024   1.237  52.389  1.00  0.00     0.128 A 
HETATM    7  N4  UNL     1      25.193   2.090  52.405  1.00  0.00    -0.383 N 
HETATM    8  C12 UNL     1      26.519   1.589  52.725  1.00  0.00     0.133 C 
HETATM    9  C13 UNL     1      26.720   1.047  54.072  1.00  0.00     0.084 C 
HETATM   10  C18 UNL     1      25.696   0.271  54.759  1.00  0.00     0.190 C 
HETATM   11  O2  UNL     1      24.780  -0.478  54.025  1.00  0.00    -0.332 OA
HETATM   12  H10 UNL     1      25.005   3.111  52.162  1.00  0.00     0.160 HD
ENDROOT
BRANCH   1  13
HETATM   13  N1  UNL     1      23.328   2.929  50.805  1.00  0.00    -0.308 N 
HETATM   14  C2  UNL     1      22.588   4.069  51.247  1.00  0.00     0.024 A 
HETATM   15  C1  UNL     1      21.710   4.076  52.241  1.00  0.00     0.064 C 
HETATM   16  C3  UNL     1      22.767   5.363  50.595  1.00  0.00    -0.039 A 
HETATM   17  C4  UNL     1      22.023   6.587  51.015  1.00  0.00     0.050 C 
HETATM   18  C5  UNL     1      23.639   5.422  49.586  1.00  0.00     0.010 A 
HETATM   19  C6  UNL     1      24.384   4.245  49.149  1.00  0.00     0.018 A 
HETATM   20  C7  UNL     1      24.252   3.050  49.714  1.00  0.00     0.099 A 
ENDBRANCH   1  13
BRANCH   9  21
HETATM   21  C14 UNL     1      27.976   0.212  53.999  1.00  0.00     0.049 C 
HETATM   22  C15 UNL     1      28.372  -0.872  53.369  1.00  0.00     0.002 C 
HETATM   23  C16 UNL     1      29.666  -1.599  53.392  1.00  0.00     0.038 C 
BRANCH  21  24
HETATM   24  O1  UNL     1      29.006   0.685  54.796  1.00  0.00    -0.360 OA
HETATM   25  C17 UNL     1      29.572   1.964  54.577  1.00  0.00     0.209 C 
ENDBRANCH  21  24
ENDBRANCH   9  21
TORSDOF 3
ENDMDL
MODEL 5
REMARK VINA RESULT:      -7.7      2.656      6.431
REMARK  3 active torsions:
REMARK  status: ('A' for Active; 'I' for Inactive)
REMARK    1  A    between atoms: N1_8  and  C8_9 
REMARK    2  A    between atoms: C13_17  and  C14_18 
REMARK    3  A    between atoms: C14_18  and  O1_21 
ROOT
HETATM    1  C8  UNL     1      22.557   1.746  52.283  1.00  0.00     0.166 A 
HETATM    2  N2  UNL     1      21.447   0.951  52.275  1.00  0.00    -0.221 NA
HETATM    3  C9  UNL     1      21.497  -0.279  52.867  1.00  0.00     0.238 A 
HETATM    4  N3  UNL     1      22.569  -0.811  53.481  1.00  0.00    -0.216 NA
HETATM    5  C10 UNL     1      23.694  -0.037  53.503  1.00  0.00     0.196 A 
HETATM    6  C11 UNL     1      23.684   1.234  52.904  1.00  0.00     0.128 A 
HETATM    7  N4  UNL     1      24.784   2.173  52.838  1.00  0.00    -0.383 N 
HETATM    8  C12 UNL     1      26.173   1.748  52.864  1.00  0.00     0.133 C 
HETATM    9  C13 UNL     1      26.640   1.067  54.073  1.00  0.00     0.084 C 
HETATM   10  C18 UNL     1      25.803   0.131  54.812  1.00  0.00     0.190 C 
HETATM   11  O2  UNL     1      24.819  -0.597  54.148  1.00  0.00    -0.332 OA
HETATM   12  H10 UNL     1      24.493   3.197  52.768  1.00  0.00     0.160 HD
ENDROOT
BRANCH   1  13
HETATM   13  N1  UNL     1      22.618   3.041  51.699  1.00  0.00    -0.308 N 
HETATM   14  C2  UNL     1      22.690   3.054  50.272  1.00  0.00     0.024 A 
HETATM   15  C1  UNL     1      22.702   1.980  49.494  1.00  0.00     0.064 C 
HETATM   16  C3  UNL     1      22.757   4.321  49.548  1.00  0.00    -0.039 A 
HETATM   17  C4  UNL     1      22.833   4.395  48.059  1.00  0.00     0.050 C 
HETATM   18  C5  UNL     1      22.749   5.440  50.275  1.00  0.00     0.010 A 
HETATM   19  C6  UNL     1      22.675   5.405  51.733  1.00  0.00     0.018 A 
HETATM   20  C7  UNL     1      22.612   4.276  52.430  1.00  0.00     0.099 A 
ENDBRANCH   1  13
BRANCH   9  21
HETATM   21  C14 UNL     1      27.912   0.353  53.681  1.00  0.00     0.049 C 
HETATM   22  C15 UNL     1      28.309  -0.892  53.537  1.00  0.00     0.002 C 
HETATM   23  C16 UNL     1      29.620  -1.461  53.136  1.00  0.00     0.038 C 
BRANCH  21  24
HETATM   24  O1  UNL     1      28.963   1.209  53.390  1.00  0.00    -0.360 OA
HETATM   25  C17 UNL     1      29.467   2.106  54.362  1.00  0.00     0.209 C 
ENDBRANCH  21  24
ENDBRANCH   9  21
TORSDOF 3
ENDMDL
MODEL 6
REMARK VINA RESULT:      -7.6      3.033      6.970
REMARK  3 active torsions:
REMARK  status: ('A' for Active; 'I' for Inactive)
REMARK    1  A    between atoms: N1_8  and  C8_9 
REMARK    2  A    between atoms: C13_17  and  C14_18 
REMARK    3  A    between atoms: C14_18  and  O1_21 
ROOT
HETATM    1  C8  UNL     1      21.769   2.520  52.423  1.00  0.00     0.166 A 
HETATM    2  N2  UNL     1      21.444   3.846  52.378  1.00  0.00    -0.221 NA
HETATM    3  C9  UNL     1      22.436   4.775  52.245  1.00  0.00     0.238 A 
HETATM    4  N3  UNL     1      23.751   4.511  52.152  1.00  0.00    -0.216 NA
HETATM    5  C10 UNL     1      24.104   3.192  52.194  1.00  0.00     0.196 A 
HETATM    6  C11 UNL     1      23.114   2.205  52.330  1.00  0.00     0.128 A 
HETATM    7  N4  UNL     1      23.317   0.773  52.394  1.00  0.00    -0.383 N 
HETATM    8  C12 UNL     1      24.549   0.182  52.886  1.00  0.00     0.133 C 
HETATM    9  C13 UNL     1      25.773   0.466  52.133  1.00  0.00     0.084 C 
HETATM   10  C18 UNL     1      26.032   1.766  51.530  1.00  0.00     0.190 C 
HETATM   11  O2  UNL     1      25.487   2.917  52.094  1.00  0.00    -0.332 OA
HETATM   12  H10 UNL     1      22.492   0.190  52.053  1.00  0.00     0.160 HD
ENDROOT
BRANCH   1  13
HETATM   13  N1  UNL     1      20.821   1.468  52.558  1.00  0.00    -0.308 N 
HETATM   14  C2  UNL     1      19.926   1.320  51.455  1.00  0.00     0.024 A 
HETATM   15  C1  UNL     1      19.926   2.068  50.360  1.00  0.00     0.064 C 
HETATM   16  C3  UNL     1      18.903   0.276  51.469  1.00  0.00    -0.039 A 
HETATM   17  C4  UNL     1      17.943   0.074  50.344  1.00  0.00     0.050 C 
HETATM   18  C5  UNL     1      18.851  -0.511  52.545  1.00  0.00     0.010 A 
HETATM   19  C6  UNL     1      19.775  -0.342  53.663  1.00  0.00     0.018 A 
HETATM   20  C7  UNL     1      20.719   0.592  53.691  1.00  0.00     0.099 A 
ENDBRANCH   1  13
BRANCH   9  21
HETATM   21  C14 UNL     1      26.917   0.142  53.064  1.00  0.00     0.049 C 
HETATM   22  C15 UNL     1      27.392   0.606  54.199  1.00  0.00     0.002 C 
HETATM   23  C16 UNL     1      28.551   0.180  55.022  1.00  0.00     0.038 C 
BRANCH  21  24
HETATM   24  O1  UNL     1      27.696  -0.924  52.639  1.00  0.00    -0.360 OA
HETATM   25  C17 UNL     1      27.158  -2.230  52.541  1.00  0.00     0.209 C 
ENDBRANCH  21  24
ENDBRANCH   9  21
TORSDOF 3
ENDMDL
MODEL 7
REMARK VINA RESULT:      -7.4      1.858      2.513
REMARK  3 active torsions:
REMARK  status: ('A' for Active; 'I' for Inactive)
REMARK    1  A    between atoms: N1_8  and  C8_9 
REMARK    2  A    between atoms: C13_17  and  C14_18 
REMARK    3  A    between atoms: C14_18  and  O1_21 
ROOT
HETATM    1  C8  UNL     1      24.454  -0.299  53.465  1.00  0.00     0.166 A 
HETATM    2  N2  UNL     1      23.604  -0.861  54.374  1.00  0.00    -0.221 NA
HETATM    3  C9  UNL     1      22.301  -0.453  54.417  1.00  0.00     0.238 A 
HETATM    4  N3  UNL     1      21.746   0.483  53.626  1.00  0.00    -0.216 NA
HETATM    5  C10 UNL     1      22.575   1.061  52.707  1.00  0.00     0.196 A 
HETATM    6  C11 UNL     1      23.922   0.670  52.631  1.00  0.00     0.128 A 
HETATM    7  N4  UNL     1      24.926   1.181  51.723  1.00  0.00    -0.383 N 
HETATM    8  C12 UNL     1      24.861   2.520  51.164  1.00  0.00     0.133 C 
HETATM    9  C13 UNL     1      23.718   2.829  50.301  1.00  0.00     0.084 C 
HETATM   10  C18 UNL     1      22.381   2.319  50.569  1.00  0.00     0.190 C 
HETATM   11  O2  UNL     1      21.989   2.044  51.877  1.00  0.00    -0.332 OA
HETATM   12  H10 UNL     1      25.714   0.499  51.499  1.00  0.00     0.160 HD
ENDROOT
BRANCH   1  13
HETATM   13  N1  UNL     1      25.826  -0.647  53.332  1.00  0.00    -0.308 N 
HETATM   14  C2  UNL     1      26.737   0.233  53.993  1.00  0.00     0.024 A 
HETATM   15  C1  UNL     1      26.395   1.306  54.693  1.00  0.00     0.064 C 
HETATM   16  C3  UNL     1      28.176  -0.013  53.934  1.00  0.00    -0.039 A 
HETATM   17  C4  UNL     1      29.172   0.872  54.606  1.00  0.00     0.050 C 
HETATM   18  C5  UNL     1      28.584  -1.080  53.244  1.00  0.00     0.010 A 
HETATM   19  C6  UNL     1      27.637  -1.967  52.574  1.00  0.00     0.018 A 
HETATM   20  C7  UNL     1      26.322  -1.781  52.603  1.00  0.00     0.099 A 
ENDBRANCH   1  13
BRANCH   9  21
HETATM   21  C14 UNL     1      23.644   4.336  50.235  1.00  0.00     0.049 C 
HETATM   22  C15 UNL     1      23.434   5.324  51.077  1.00  0.00     0.002 C 
HETATM   23  C16 UNL     1      23.388   6.793  50.870  1.00  0.00     0.038 C 
BRANCH  21  24
HETATM   24  O1  UNL     1      23.846   4.848  48.963  1.00  0.00    -0.360 OA
HETATM   25  C17 UNL     1      22.849   4.737  47.963  1.00  0.00     0.209 C 
ENDBRANCH  21  24
ENDBRANCH   9  21
TORSDOF 3
ENDMDL
MODEL 8
REMARK VINA RESULT:      -7.4      1.982      4.811
REMARK  3 active torsions:
REMARK  status: ('A' for Active; 'I' for Inactive)
REMARK    1  A    between atoms: N1_8  and  C8_9 
REMARK    2  A    between atoms: C13_17  and  C14_18 
REMARK    3  A    between atoms: C14_18  and  O1_21 
ROOT
HETATM    1  C8  UNL     1      26.610   2.392  51.568  1.00  0.00     0.166 A 
HETATM    2  N2  UNL     1      27.053   3.046  50.454  1.00  0.00    -0.221 NA
HETATM    3  C9  UNL     1      26.146   3.608  49.600  1.00  0.00     0.238 A 
HETATM    4  N3  UNL     1      24.810   3.582  49.748  1.00  0.00    -0.216 NA
HETATM    5  C10 UNL     1      24.340   2.934  50.854  1.00  0.00     0.196 A 
HETATM    6  C11 UNL     1      25.239   2.342  51.756  1.00  0.00     0.128 A 
HETATM    7  N4  UNL     1      24.908   1.620  52.966  1.00  0.00    -0.383 N 
HETATM    8  C12 UNL     1      23.646   0.922  53.137  1.00  0.00     0.133 C 
HETATM    9  C13 UNL     1      22.426   1.734  53.118  1.00  0.00     0.084 C 
HETATM   10  C18 UNL     1      22.266   2.877  52.229  1.00  0.00     0.190 C 
HETATM   11  O2  UNL     1      22.935   2.908  51.008  1.00  0.00    -0.332 OA
HETATM   12  H10 UNL     1      25.664   1.641  53.719  1.00  0.00     0.160 HD
ENDROOT
BRANCH   1  13
HETATM   13  N1  UNL     1      27.462   1.772  52.522  1.00  0.00    -0.308 N 
HETATM   14  C2  UNL     1      27.512   0.346  52.447  1.00  0.00     0.024 A 
HETATM   15  C1  UNL     1      26.842  -0.401  51.580  1.00  0.00     0.064 C 
HETATM   16  C3  UNL     1      28.350  -0.413  53.372  1.00  0.00    -0.039 A 
HETATM   17  C4  UNL     1      28.441  -1.903  53.339  1.00  0.00     0.050 C 
HETATM   18  C5  UNL     1      29.050   0.281  54.271  1.00  0.00     0.010 A 
HETATM   19  C6  UNL     1      28.985   1.739  54.331  1.00  0.00     0.018 A 
HETATM   20  C7  UNL     1      28.238   2.467  53.510  1.00  0.00     0.099 A 
ENDBRANCH   1  13
BRANCH   9  21
HETATM   21  C14 UNL     1      21.292   0.771  52.858  1.00  0.00     0.049 C 
HETATM   22  C15 UNL     1      20.109   0.814  52.287  1.00  0.00     0.002 C 
HETATM   23  C16 UNL     1      19.075  -0.234  52.099  1.00  0.00     0.038 C 
BRANCH  21  24
HETATM   24  O1  UNL     1      21.528  -0.508  53.337  1.00  0.00    -0.360 OA
HETATM   25  C17 UNL     1      21.296  -0.836  54.695  1.00  0.00     0.209 C 
ENDBRANCH  21  24
ENDBRANCH   9  21
TORSDOF 3
ENDMDL
MODEL 9
REMARK VINA RESULT:      -7.1      3.152      7.329
REMARK  3 active torsions:
REMARK  status: ('A' for Active; 'I' for Inactive)
REMARK    1  A    between atoms: N1_8  and  C8_9 
REMARK    2  A    between atoms: C13_17  and  C14_18 
REMARK    3  A    between atoms: C14_18  and  O1_21 
ROOT
HETATM    1  C8  UNL     1      22.464   4.203  49.086  1.00  0.00     0.166 A 
HETATM    2  N2  UNL     1      22.251   3.979  47.756  1.00  0.00    -0.221 NA
HETATM    3  C9  UNL     1      21.977   2.712  47.324  1.00  0.00     0.238 A 
HETATM    4  N3  UNL     1      21.893   1.619  48.103  1.00  0.00    -0.216 NA
HETATM    5  C10 UNL     1      22.102   1.816  49.438  1.00  0.00     0.196 A 
HETATM    6  C11 UNL     1      22.387   3.103  49.923  1.00  0.00     0.128 A 
HETATM    7  N4  UNL     1      22.634   3.479  51.298  1.00  0.00    -0.383 N 
HETATM    8  C12 UNL     1      23.176   2.550  52.275  1.00  0.00     0.133 C 
HETATM    9  C13 UNL     1      22.367   1.370  52.594  1.00  0.00     0.084 C 
HETATM   10  C18 UNL     1      21.593   0.662  51.584  1.00  0.00     0.190 C 
HETATM   11  O2  UNL     1      22.012   0.666  50.255  1.00  0.00    -0.332 OA
HETATM   12  H10 UNL     1      22.390   4.490  51.536  1.00  0.00     0.160 HD
ENDROOT
BRANCH   1  13
HETATM   13  N1  UNL     1      22.756   5.478  49.645  1.00  0.00    -0.308 N 
HETATM   14  C2  UNL     1      24.137   5.841  49.626  1.00  0.00     0.024 A 
HETATM   15  C1  UNL     1      25.120   5.095  49.139  1.00  0.00     0.064 C 
HETATM   16  C3  UNL     1      24.571   7.126  50.171  1.00  0.00    -0.039 A 
HETATM   17  C4  UNL     1      25.999   7.557  50.176  1.00  0.00     0.050 C 
HETATM   18  C5  UNL     1      23.627   7.923  50.676  1.00  0.00     0.010 A 
HETATM   19  C6  UNL     1      22.220   7.533  50.686  1.00  0.00     0.018 A 
HETATM   20  C7  UNL     1      21.784   6.376  50.202  1.00  0.00     0.099 A 
ENDBRANCH   1  13
BRANCH   9  21
HETATM   21  C14 UNL     1      23.310   0.385  53.242  1.00  0.00     0.049 C 
HETATM   22  C15 UNL     1      24.592   0.330  53.530  1.00  0.00     0.002 C 
HETATM   23  C16 UNL     1      25.404  -0.726  54.185  1.00  0.00     0.038 C 
BRANCH  21  24
HETATM   24  O1  UNL     1      22.694  -0.785  53.657  1.00  0.00    -0.360 OA
HETATM   25  C17 UNL     1      21.951  -0.834  54.861  1.00  0.00     0.209 C 
ENDBRANCH  21  24
ENDBRANCH   9  21
TORSDOF 3
ENDMDL
