MODEL 1
REMARK VINA RESULT:      -9.3      0.000      0.000
REMARK  1 active torsions:
REMARK  status: ('A' for Active; 'I' for Inactive)
REMARK    1  A    between atoms: C5_5  and  C6_6 
ROOT
HETATM    1  C6  UNL     1      24.817   1.608  51.946  1.00  0.00     0.072 A 
HETATM    2  N1  UNL     1      23.633   1.428  52.397  1.00  0.00    -0.267 NA
HETATM    3  C7  UNL     1      22.904   2.138  51.391  1.00  0.00     0.119 A 
HETATM    4  C8  UNL     1      22.430   3.501  51.893  1.00  0.00     0.110 C 
HETATM    5  N2  UNL     1      22.465   4.688  51.268  1.00  0.00    -0.323 N 
HETATM    6  C9  UNL     1      22.831   4.914  49.848  1.00  0.00     0.138 A 
HETATM    7  C10 UNL     1      22.554   5.980  49.208  1.00  0.00     0.158 A 
HETATM    8  S1  UNL     1      21.800   6.498  50.779  1.00  0.00    -0.133 SA
HETATM    9  C11 UNL     1      23.539   3.780  49.255  1.00  0.00     0.000 C 
HETATM   10  C12 UNL     1      22.576   3.650  48.347  1.00  0.00     0.011 C 
HETATM   11 BR1  UNL     1      21.862   4.936  47.354  1.00  0.00    -0.109 Br
HETATM   12  C13 UNL     1      22.003   2.264  48.195  1.00  0.00     0.015 C 
HETATM   13  C14 UNL     1      21.946   1.285  49.158  1.00  0.00    -0.022 C 
HETATM   14  C15 UNL     1      21.995   1.321  50.629  1.00  0.00     0.071 C 
HETATM   15  C16 UNL     1      24.799   3.103  49.728  1.00  0.00     0.024 C 
HETATM   16  C17 UNL     1      24.274   2.409  50.809  1.00  0.00     0.007 A 
HETATM   17  H8  UNL     1      22.718   7.168  51.608  1.00  0.00     0.106 HD
ENDROOT
BRANCH   1  18
HETATM   18  C5  UNL     1      26.090   1.146  52.481  1.00  0.00    -0.007 A 
HETATM   19  C4  UNL     1      26.288  -0.204  52.323  1.00  0.00     0.014 A 
HETATM   20  C3  UNL     1      27.440  -0.812  52.772  1.00  0.00     0.008 A 
HETATM   21  C2  UNL     1      28.427  -0.072  53.395  1.00  0.00    -0.056 A 
HETATM   22  C1  UNL     1      29.663  -0.744  53.872  1.00  0.00     0.049 C 
HETATM   23  C19 UNL     1      28.208   1.293  53.545  1.00  0.00    -0.055 A 
HETATM   24  C18 UNL     1      27.055   1.910  53.098  1.00  0.00     0.021 A 
HETATM   25  C20 UNL     1      29.249   2.103  54.207  1.00  0.00     0.049 C 
ENDBRANCH   1  18
TORSDOF 1
ENDMDL
MODEL 2
REMARK VINA RESULT:      -8.8      8.024     10.098
REMARK  1 active torsions:
REMARK  status: ('A' for Active; 'I' for Inactive)
REMARK    1  A    between atoms: C5_5  and  C6_6 
ROOT
HETATM    1  C6  UNL     1      29.703   6.298  47.726  1.00  0.00     0.072 A 
HETATM    2  N1  UNL     1      30.308   7.409  47.533  1.00  0.00    -0.267 NA
HETATM    3  C7  UNL     1      31.564   6.901  47.075  1.00  0.00     0.119 A 
HETATM    4  C8  UNL     1      32.639   6.991  48.158  1.00  0.00     0.110 C 
HETATM    5  N2  UNL     1      33.550   6.074  48.519  1.00  0.00    -0.323 N 
HETATM    6  C9  UNL     1      33.828   4.798  47.815  1.00  0.00     0.138 A 
HETATM    7  C10 UNL     1      34.889   4.113  47.986  1.00  0.00     0.158 A 
HETATM    8  S1  UNL     1      35.323   5.437  49.155  1.00  0.00    -0.133 SA
HETATM    9  C11 UNL     1      32.759   4.409  46.896  1.00  0.00     0.000 C 
HETATM   10  C12 UNL     1      33.615   4.446  45.879  1.00  0.00     0.011 C 
HETATM   11 BR1  UNL     1      35.227   3.706  45.812  1.00  0.00    -0.109 Br
HETATM   12  C13 UNL     1      33.176   5.251  44.683  1.00  0.00     0.015 C 
HETATM   13  C14 UNL     1      32.320   6.326  44.682  1.00  0.00    -0.022 C 
HETATM   14  C15 UNL     1      31.899   7.275  45.726  1.00  0.00     0.071 C 
HETATM   15  C16 UNL     1      31.293   4.216  47.184  1.00  0.00     0.024 C 
HETATM   16  C17 UNL     1      30.921   5.548  47.298  1.00  0.00     0.007 A 
HETATM   17  H8  UNL     1      34.869   5.160  50.456  1.00  0.00     0.106 HD
ENDROOT
BRANCH   1  18
HETATM   18  C5  UNL     1      28.349   6.053  48.201  1.00  0.00    -0.007 A 
HETATM   19  C4  UNL     1      27.551   7.170  48.166  1.00  0.00     0.014 A 
HETATM   20  C3  UNL     1      26.238   7.121  48.581  1.00  0.00     0.008 A 
HETATM   21  C2  UNL     1      25.692   5.938  49.043  1.00  0.00    -0.056 A 
HETATM   22  C1  UNL     1      24.274   5.903  49.485  1.00  0.00     0.049 C 
HETATM   23  C19 UNL     1      26.515   4.818  49.070  1.00  0.00    -0.055 A 
HETATM   24  C18 UNL     1      27.834   4.861  48.657  1.00  0.00     0.021 A 
HETATM   25  C20 UNL     1      25.953   3.544  49.560  1.00  0.00     0.049 C 
ENDBRANCH   1  18
TORSDOF 1
ENDMDL
MODEL 3
REMARK VINA RESULT:      -8.6      2.089      3.350
REMARK  1 active torsions:
REMARK  status: ('A' for Active; 'I' for Inactive)
REMARK    1  A    between atoms: C5_5  and  C6_6 
ROOT
HETATM    1  C6  UNL     1      25.997   2.794  50.939  1.00  0.00     0.072 A 
HETATM    2  N1  UNL     1      26.163   3.114  49.710  1.00  0.00    -0.267 NA
HETATM    3  C7  UNL     1      25.166   4.134  49.610  1.00  0.00     0.119 A 
HETATM    4  C8  UNL     1      23.923   3.638  48.871  1.00  0.00     0.110 C 
HETATM    5  N2  UNL     1      22.630   3.820  49.181  1.00  0.00    -0.323 N 
HETATM    6  C9  UNL     1      22.107   4.708  50.248  1.00  0.00     0.138 A 
HETATM    7  C10 UNL     1      20.896   5.100  50.310  1.00  0.00     0.158 A 
HETATM    8  S1  UNL     1      20.700   4.110  48.798  1.00  0.00    -0.133 SA
HETATM    9  C11 UNL     1      23.128   5.092  51.222  1.00  0.00     0.000 C 
HETATM   10  C12 UNL     1      22.942   6.373  50.915  1.00  0.00     0.011 C 
HETATM   11 BR1  UNL     1      21.391   7.228  50.792  1.00  0.00    -0.109 Br
HETATM   12  C13 UNL     1      24.188   7.156  50.588  1.00  0.00     0.015 C 
HETATM   13  C14 UNL     1      25.359   6.660  50.066  1.00  0.00    -0.022 C 
HETATM   14  C15 UNL     1      25.683   5.442  49.306  1.00  0.00     0.071 C 
HETATM   15  C16 UNL     1      24.018   4.207  52.054  1.00  0.00     0.024 C 
HETATM   16  C17 UNL     1      24.897   3.796  51.061  1.00  0.00     0.007 A 
HETATM   17  H8  UNL     1      20.341   2.781  49.082  1.00  0.00     0.106 HD
ENDROOT
BRANCH   1  18
HETATM   18  C5  UNL     1      26.695   1.797  51.737  1.00  0.00    -0.007 A 
HETATM   19  C4  UNL     1      27.695   2.328  52.516  1.00  0.00     0.014 A 
HETATM   20  C3  UNL     1      28.460   1.527  53.335  1.00  0.00     0.008 A 
HETATM   21  C2  UNL     1      28.237   0.164  53.393  1.00  0.00    -0.056 A 
HETATM   22  C1  UNL     1      29.070  -0.684  54.282  1.00  0.00     0.049 C 
HETATM   23  C19 UNL     1      27.220  -0.354  52.597  1.00  0.00    -0.055 A 
HETATM   24  C18 UNL     1      26.449   0.443  51.772  1.00  0.00     0.021 A 
HETATM   25  C20 UNL     1      26.963  -1.807  52.643  1.00  0.00     0.049 C 
ENDBRANCH   1  18
TORSDOF 1
ENDMDL
MODEL 4
REMARK VINA RESULT:      -8.3      3.500      5.510
REMARK  1 active torsions:
REMARK  status: ('A' for Active; 'I' for Inactive)
REMARK    1  A    between atoms: C5_5  and  C6_6 
ROOT
HETATM    1  C6  UNL     1      25.177   5.422  49.880  1.00  0.00     0.072 A 
HETATM    2  N1  UNL     1      24.453   5.997  50.766  1.00  0.00    -0.267 NA
HETATM    3  C7  UNL     1      23.545   4.927  51.037  1.00  0.00     0.119 A 
HETATM    4  C8  UNL     1      22.182   5.163  50.385  1.00  0.00     0.110 C 
HETATM    5  N2  UNL     1      21.411   4.297  49.710  1.00  0.00    -0.323 N 
HETATM    6  C9  UNL     1      21.641   2.837  49.588  1.00  0.00     0.138 A 
HETATM    7  C10 UNL     1      20.745   2.008  49.222  1.00  0.00     0.158 A 
HETATM    8  S1  UNL     1      19.696   3.489  49.108  1.00  0.00    -0.133 SA
HETATM    9  C11 UNL     1      23.005   2.443  49.938  1.00  0.00     0.000 C 
HETATM   10  C12 UNL     1      22.535   1.667  50.910  1.00  0.00     0.011 C 
HETATM   11 BR1  UNL     1      21.218   0.484  50.791  1.00  0.00    -0.109 Br
HETATM   12  C13 UNL     1      23.164   1.863  52.267  1.00  0.00     0.015 C 
HETATM   13  C14 UNL     1      23.736   3.015  52.751  1.00  0.00    -0.022 C 
HETATM   14  C15 UNL     1      23.594   4.435  52.389  1.00  0.00     0.071 C 
HETATM   15  C16 UNL     1      24.307   2.945  49.369  1.00  0.00     0.024 C 
HETATM   16  C17 UNL     1      24.342   4.189  49.983  1.00  0.00     0.007 A 
HETATM   17  H8  UNL     1      19.752   4.076  47.832  1.00  0.00     0.106 HD
ENDROOT
BRANCH   1  18
HETATM   18  C5  UNL     1      26.324   5.937  49.147  1.00  0.00    -0.007 A 
HETATM   19  C4  UNL     1      27.318   5.005  48.969  1.00  0.00     0.014 A 
HETATM   20  C3  UNL     1      28.479   5.321  48.297  1.00  0.00     0.008 A 
HETATM   21  C2  UNL     1      28.669   6.590  47.783  1.00  0.00    -0.056 A 
HETATM   22  C1  UNL     1      29.926   6.913  47.060  1.00  0.00     0.049 C 
HETATM   23  C19 UNL     1      27.652   7.519  47.973  1.00  0.00    -0.055 A 
HETATM   24  C18 UNL     1      26.485   7.209  48.647  1.00  0.00     0.021 A 
HETATM   25  C20 UNL     1      27.833   8.880  47.432  1.00  0.00     0.049 C 
ENDBRANCH   1  18
TORSDOF 1
ENDMDL
MODEL 5
REMARK VINA RESULT:      -8.2      8.116     10.064
REMARK  1 active torsions:
REMARK  status: ('A' for Active; 'I' for Inactive)
REMARK    1  A    between atoms: C5_5  and  C6_6 
ROOT
HETATM    1  C6  UNL     1      29.627   5.856  48.193  1.00  0.00     0.072 A 
HETATM    2  N1  UNL     1      30.591   5.236  48.763  1.00  0.00    -0.267 NA
HETATM    3  C7  UNL     1      31.685   5.837  48.065  1.00  0.00     0.119 A 
HETATM    4  C8  UNL     1      32.268   4.897  47.011  1.00  0.00     0.110 C 
HETATM    5  N2  UNL     1      32.633   5.169  45.749  1.00  0.00    -0.323 N 
HETATM    6  C9  UNL     1      32.708   6.518  45.136  1.00  0.00     0.138 A 
HETATM    7  C10 UNL     1      33.348   6.773  44.064  1.00  0.00     0.158 A 
HETATM    8  S1  UNL     1      33.746   5.000  44.109  1.00  0.00    -0.133 SA
HETATM    9  C11 UNL     1      31.973   7.531  45.893  1.00  0.00     0.000 C 
HETATM   10  C12 UNL     1      33.097   8.220  46.067  1.00  0.00     0.011 C 
HETATM   11 BR1  UNL     1      34.286   8.657  44.825  1.00  0.00    -0.109 Br
HETATM   12  C13 UNL     1      33.405   8.621  47.487  1.00  0.00     0.015 C 
HETATM   13  C14 UNL     1      33.011   7.970  48.632  1.00  0.00    -0.022 C 
HETATM   14  C15 UNL     1      32.583   6.588  48.903  1.00  0.00     0.071 C 
HETATM   15  C16 UNL     1      30.525   7.530  46.309  1.00  0.00     0.024 C 
HETATM   16  C17 UNL     1      30.598   6.594  47.332  1.00  0.00     0.007 A 
HETATM   17  H8  UNL     1      32.793   4.228  43.421  1.00  0.00     0.106 HD
ENDROOT
BRANCH   1  18
HETATM   18  C5  UNL     1      28.193   5.741  48.416  1.00  0.00    -0.007 A 
HETATM   19  C4  UNL     1      27.502   6.886  48.102  1.00  0.00     0.014 A 
HETATM   20  C3  UNL     1      26.134   6.955  48.253  1.00  0.00     0.008 A 
HETATM   21  C2  UNL     1      25.424   5.868  48.726  1.00  0.00    -0.056 A 
HETATM   22  C1  UNL     1      23.949   5.959  48.882  1.00  0.00     0.049 C 
HETATM   23  C19 UNL     1      26.142   4.717  49.037  1.00  0.00    -0.055 A 
HETATM   24  C18 UNL     1      27.514   4.641  48.889  1.00  0.00     0.021 A 
HETATM   25  C20 UNL     1      25.404   3.544  49.543  1.00  0.00     0.049 C 
ENDBRANCH   1  18
TORSDOF 1
ENDMDL
MODEL 6
REMARK VINA RESULT:      -8.2      4.134      6.039
REMARK  1 active torsions:
REMARK  status: ('A' for Active; 'I' for Inactive)
REMARK    1  A    between atoms: C5_5  and  C6_6 
ROOT
HETATM    1  C6  UNL     1      26.035   5.943  48.959  1.00  0.00     0.072 A 
HETATM    2  N1  UNL     1      25.018   6.699  49.137  1.00  0.00    -0.267 NA
HETATM    3  C7  UNL     1      24.125   5.737  49.704  1.00  0.00     0.119 A 
HETATM    4  C8  UNL     1      23.073   5.278  48.694  1.00  0.00     0.110 C 
HETATM    5  N2  UNL     1      22.634   4.036  48.441  1.00  0.00    -0.323 N 
HETATM    6  C9  UNL     1      22.962   2.820  49.224  1.00  0.00     0.138 A 
HETATM    7  C10 UNL     1      22.296   1.736  49.159  1.00  0.00     0.158 A 
HETATM    8  S1  UNL     1      21.285   2.656  47.960  1.00  0.00    -0.133 SA
HETATM    9  C11 UNL     1      24.131   2.995  50.086  1.00  0.00     0.000 C 
HETATM   10  C12 UNL     1      23.385   2.736  51.156  1.00  0.00     0.011 C 
HETATM   11 BR1  UNL     1      22.254   1.384  51.369  1.00  0.00    -0.109 Br
HETATM   12  C13 UNL     1      23.481   3.737  52.279  1.00  0.00     0.015 C 
HETATM   13  C14 UNL     1      23.788   5.072  52.168  1.00  0.00    -0.022 C 
HETATM   14  C15 UNL     1      23.715   6.030  51.053  1.00  0.00     0.071 C 
HETATM   15  C16 UNL     1      25.524   3.427  49.708  1.00  0.00     0.024 C 
HETATM   16  C17 UNL     1      25.279   4.778  49.504  1.00  0.00     0.007 A 
HETATM   17  H8  UNL     1      21.762   2.505  46.645  1.00  0.00     0.106 HD
ENDROOT
BRANCH   1  18
HETATM   18  C5  UNL     1      27.342   6.268  48.405  1.00  0.00    -0.007 A 
HETATM   19  C4  UNL     1      27.394   7.514  47.829  1.00  0.00     0.014 A 
HETATM   20  C3  UNL     1      28.554   7.985  47.254  1.00  0.00     0.008 A 
HETATM   21  C2  UNL     1      29.698   7.210  47.244  1.00  0.00    -0.056 A 
HETATM   22  C1  UNL     1      30.940   7.734  46.621  1.00  0.00     0.049 C 
HETATM   23  C19 UNL     1      29.626   5.952  47.833  1.00  0.00    -0.055 A 
HETATM   24  C18 UNL     1      28.465   5.472  48.411  1.00  0.00     0.021 A 
HETATM   25  C20 UNL     1      30.836   5.107  47.835  1.00  0.00     0.049 C 
ENDBRANCH   1  18
TORSDOF 1
ENDMDL
MODEL 7
REMARK VINA RESULT:      -8.1      2.489      3.491
REMARK  1 active torsions:
REMARK  status: ('A' for Active; 'I' for Inactive)
REMARK    1  A    between atoms: C5_5  and  C6_6 
ROOT
HETATM    1  C6  UNL     1      24.148   3.751  51.534  1.00  0.00     0.072 A 
HETATM    2  N1  UNL     1      23.535   4.650  52.209  1.00  0.00    -0.267 NA
HETATM    3  C7  UNL     1      23.353   5.618  51.172  1.00  0.00     0.119 A 
HETATM    4  C8  UNL     1      24.331   6.785  51.310  1.00  0.00     0.110 C 
HETATM    5  N2  UNL     1      25.054   7.395  50.359  1.00  0.00    -0.323 N 
HETATM    6  C9  UNL     1      24.935   7.172  48.897  1.00  0.00     0.138 A 
HETATM    7  C10 UNL     1      25.395   7.974  48.020  1.00  0.00     0.158 A 
HETATM    8  S1  UNL     1      25.936   8.937  49.464  1.00  0.00    -0.133 SA
HETATM    9  C11 UNL     1      24.229   5.935  48.564  1.00  0.00     0.000 C 
HETATM   10  C12 UNL     1      23.305   6.635  47.912  1.00  0.00     0.011 C 
HETATM   11 BR1  UNL     1      23.582   7.911  46.710  1.00  0.00    -0.109 Br
HETATM   12  C13 UNL     1      21.875   6.338  48.284  1.00  0.00     0.015 C 
HETATM   13  C14 UNL     1      21.417   5.871  49.493  1.00  0.00    -0.022 C 
HETATM   14  C15 UNL     1      21.976   5.896  50.855  1.00  0.00     0.071 C 
HETATM   15  C16 UNL     1      24.536   4.527  49.004  1.00  0.00     0.024 C 
HETATM   16  C17 UNL     1      24.091   4.612  50.315  1.00  0.00     0.007 A 
HETATM   17  H8  UNL     1      27.227   8.573  49.886  1.00  0.00     0.106 HD
ENDROOT
BRANCH   1  18
HETATM   18  C5  UNL     1      24.650   2.454  51.964  1.00  0.00    -0.007 A 
HETATM   19  C4  UNL     1      25.906   2.172  51.486  1.00  0.00     0.014 A 
HETATM   20  C3  UNL     1      26.535   0.986  51.793  1.00  0.00     0.008 A 
HETATM   21  C2  UNL     1      25.913   0.048  52.595  1.00  0.00    -0.056 A 
HETATM   22  C1  UNL     1      26.606  -1.226  52.917  1.00  0.00     0.049 C 
HETATM   23  C19 UNL     1      24.641   0.352  53.070  1.00  0.00    -0.055 A 
HETATM   24  C18 UNL     1      24.003   1.540  52.764  1.00  0.00     0.021 A 
HETATM   25  C20 UNL     1      23.957  -0.635  53.928  1.00  0.00     0.049 C 
ENDBRANCH   1  18
TORSDOF 1
ENDMDL
MODEL 8
REMARK VINA RESULT:      -7.8      5.862      7.520
REMARK  1 active torsions:
REMARK  status: ('A' for Active; 'I' for Inactive)
REMARK    1  A    between atoms: C5_5  and  C6_6 
ROOT
HETATM    1  C6  UNL     1      26.442   6.174  48.825  1.00  0.00     0.072 A 
HETATM    2  N1  UNL     1      25.944   7.344  48.678  1.00  0.00    -0.267 NA
HETATM    3  C7  UNL     1      27.057   7.979  48.043  1.00  0.00     0.119 A 
HETATM    4  C8  UNL     1      27.816   8.888  49.009  1.00  0.00     0.110 C 
HETATM    5  N2  UNL     1      29.141   9.014  49.182  1.00  0.00    -0.323 N 
HETATM    6  C9  UNL     1      30.192   8.402  48.332  1.00  0.00     0.138 A 
HETATM    7  C10 UNL     1      31.407   8.788  48.323  1.00  0.00     0.158 A 
HETATM    8  S1  UNL     1      30.833   9.988  49.561  1.00  0.00    -0.133 SA
HETATM    9  C11 UNL     1      29.688   7.312  47.498  1.00  0.00     0.000 C 
HETATM   10  C12 UNL     1      30.053   7.975  46.404  1.00  0.00     0.011 C 
HETATM   11 BR1  UNL     1      31.622   8.746  46.096  1.00  0.00    -0.109 Br
HETATM   12  C13 UNL     1      28.992   8.125  45.345  1.00  0.00     0.015 C 
HETATM   13  C14 UNL     1      27.631   8.149  45.539  1.00  0.00    -0.022 C 
HETATM   14  C15 UNL     1      26.789   8.449  46.708  1.00  0.00     0.071 C 
HETATM   15  C16 UNL     1      28.956   6.064  47.919  1.00  0.00     0.024 C 
HETATM   16  C17 UNL     1      27.720   6.628  48.201  1.00  0.00     0.007 A 
HETATM   17  H8  UNL     1      30.944   9.488  50.871  1.00  0.00     0.106 HD
ENDROOT
BRANCH   1  18
HETATM   18  C5  UNL     1      25.847   4.983  49.415  1.00  0.00    -0.007 A 
HETATM   19  C4  UNL     1      24.479   4.942  49.291  1.00  0.00     0.014 A 
HETATM   20  C3  UNL     1      23.751   3.886  49.793  1.00  0.00     0.008 A 
HETATM   21  C2  UNL     1      24.383   2.839  50.436  1.00  0.00    -0.056 A 
HETATM   22  C1  UNL     1      23.583   1.708  50.971  1.00  0.00     0.049 C 
HETATM   23  C19 UNL     1      25.768   2.899  50.551  1.00  0.00    -0.055 A 
HETATM   24  C18 UNL     1      26.506   3.956  50.051  1.00  0.00     0.021 A 
HETATM   25  C20 UNL     1      26.466   1.792  51.234  1.00  0.00     0.049 C 
ENDBRANCH   1  18
TORSDOF 1
ENDMDL
MODEL 9
REMARK VINA RESULT:      -7.5      6.768      8.040
REMARK  1 active torsions:
REMARK  status: ('A' for Active; 'I' for Inactive)
REMARK    1  A    between atoms: C5_5  and  C6_6 
ROOT
HETATM    1  C6  UNL     1      30.282   6.943  47.824  1.00  0.00     0.072 A 
HETATM    2  N1  UNL     1      30.384   8.204  47.627  1.00  0.00    -0.267 NA
HETATM    3  C7  UNL     1      29.025   8.575  47.872  1.00  0.00     0.119 A 
HETATM    4  C8  UNL     1      28.275   8.864  46.572  1.00  0.00     0.110 C 
HETATM    5  N2  UNL     1      27.042   8.481  46.207  1.00  0.00    -0.323 N 
HETATM    6  C9  UNL     1      26.044   7.813  47.080  1.00  0.00     0.138 A 
HETATM    7  C10 UNL     1      24.800   7.751  46.811  1.00  0.00     0.158 A 
HETATM    8  S1  UNL     1      25.273   8.677  45.320  1.00  0.00    -0.133 SA
HETATM    9  C11 UNL     1      26.636   7.237  48.286  1.00  0.00     0.000 C 
HETATM   10  C12 UNL     1      25.865   8.015  49.040  1.00  0.00     0.011 C 
HETATM   11 BR1  UNL     1      24.115   8.263  48.878  1.00  0.00    -0.109 Br
HETATM   12  C13 UNL     1      26.577   8.806  50.108  1.00  0.00     0.015 C 
HETATM   13  C14 UNL     1      27.883   9.234  50.083  1.00  0.00    -0.022 C 
HETATM   14  C15 UNL     1      28.844   9.461  48.992  1.00  0.00     0.071 C 
HETATM   15  C16 UNL     1      27.765   6.246  48.402  1.00  0.00     0.024 C 
HETATM   16  C17 UNL     1      28.823   7.092  48.099  1.00  0.00     0.007 A 
HETATM   17  H8  UNL     1      25.602   7.823  44.252  1.00  0.00     0.106 HD
ENDROOT
BRANCH   1  18
HETATM   18  C5  UNL     1      31.305   5.909  47.746  1.00  0.00    -0.007 A 
HETATM   19  C4  UNL     1      32.520   6.309  48.248  1.00  0.00     0.014 A 
HETATM   20  C3  UNL     1      33.603   5.458  48.253  1.00  0.00     0.008 A 
HETATM   21  C2  UNL     1      33.490   4.175  47.751  1.00  0.00    -0.056 A 
HETATM   22  C1  UNL     1      34.668   3.270  47.765  1.00  0.00     0.049 C 
HETATM   23  C19 UNL     1      32.252   3.789  47.248  1.00  0.00    -0.055 A 
HETATM   24  C18 UNL     1      31.161   4.638  47.238  1.00  0.00     0.021 A 
HETATM   25  C20 UNL     1      32.108   2.424  46.707  1.00  0.00     0.049 C 
ENDBRANCH   1  18
TORSDOF 1
ENDMDL
