MODEL 1
REMARK VINA RESULT:      -9.1      0.000      0.000
REMARK  1 active torsions:
REMARK  status: ('A' for Active; 'I' for Inactive)
REMARK    1  A    between atoms: C11_15  and  C12_16 
ROOT
HETATM    1  F1  UNL     1      30.177  -1.501  53.965  1.00  0.00    -0.206 F 
HETATM    2  C1  UNL     1      29.196  -0.593  53.738  1.00  0.00     0.117 A 
HETATM    3  C2  UNL     1      29.534   0.721  53.471  1.00  0.00     0.045 A 
HETATM    4  C3  UNL     1      28.560   1.653  53.239  1.00  0.00     0.041 A 
HETATM    5  C4  UNL     1      27.237   1.255  53.276  1.00  0.00     0.086 A 
HETATM    6  C5  UNL     1      26.835  -0.031  53.534  1.00  0.00    -0.004 A 
HETATM    7  C6  UNL     1      27.861  -0.955  53.767  1.00  0.00     0.054 A 
HETATM    8  C7  UNL     1      25.590  -0.776  53.648  1.00  0.00     0.161 C 
HETATM    9  N1  UNL     1      24.405   0.045  53.756  1.00  0.00    -0.380 N 
HETATM   10  C8  UNL     1      24.122   1.303  53.157  1.00  0.00     0.112 A 
HETATM   11  C9  UNL     1      25.013   2.317  52.838  1.00  0.00     0.200 A 
HETATM   12  N2  UNL     1      24.545   3.465  52.283  1.00  0.00    -0.215 NA
HETATM   13  C10 UNL     1      23.227   3.572  52.064  1.00  0.00     0.236 A 
HETATM   14  N3  UNL     1      22.376   2.598  52.372  1.00  0.00    -0.239 NA
HETATM   15  C11 UNL     1      22.767   1.414  52.931  1.00  0.00     0.099 A 
HETATM   16  O1  UNL     1      26.405   2.312  53.022  1.00  0.00    -0.289 OA
HETATM   17  H6  UNL     1      23.577  -0.260  54.354  1.00  0.00     0.160 HD
ENDROOT
BRANCH  15  18
HETATM   18  C12 UNL     1      21.768   0.398  53.235  1.00  0.00    -0.004 A 
HETATM   19  C13 UNL     1      21.768  -0.676  54.115  1.00  0.00     0.014 A 
HETATM   20  C14 UNL     1      20.662  -1.489  54.209  1.00  0.00     0.002 A 
HETATM   21  C15 UNL     1      19.527  -1.287  53.456  1.00  0.00     0.019 A 
HETATM   22  C16 UNL     1      19.513  -0.223  52.578  1.00  0.00     0.011 A 
HETATM   23 BR1  UNL     1      17.915   0.006  51.562  1.00  0.00    -0.051 Br
HETATM   24  C17 UNL     1      20.613   0.603  52.469  1.00  0.00     0.033 A 
ENDBRANCH  15  18
TORSDOF 1
ENDMDL
MODEL 2
REMARK VINA RESULT:      -9.1      3.712      6.803
REMARK  1 active torsions:
REMARK  status: ('A' for Active; 'I' for Inactive)
REMARK    1  A    between atoms: C11_15  and  C12_16 
ROOT
HETATM    1  F1  UNL     1      19.093  -0.789  53.594  1.00  0.00    -0.206 F 
HETATM    2  C1  UNL     1      20.068  -0.160  52.892  1.00  0.00     0.117 A 
HETATM    3  C2  UNL     1      19.746   0.500  51.721  1.00  0.00     0.045 A 
HETATM    4  C3  UNL     1      20.714   1.140  50.998  1.00  0.00     0.041 A 
HETATM    5  C4  UNL     1      22.016   1.113  51.460  1.00  0.00     0.086 A 
HETATM    6  C5  UNL     1      22.403   0.477  52.612  1.00  0.00    -0.004 A 
HETATM    7  C6  UNL     1      21.383  -0.167  53.324  1.00  0.00     0.054 A 
HETATM    8  C7  UNL     1      23.624   0.251  53.369  1.00  0.00     0.161 C 
HETATM    9  N1  UNL     1      24.842   0.558  52.653  1.00  0.00    -0.380 N 
HETATM   10  C8  UNL     1      25.090   1.577  51.692  1.00  0.00     0.112 A 
HETATM   11  C9  UNL     1      24.202   2.124  50.779  1.00  0.00     0.200 A 
HETATM   12  N2  UNL     1      24.636   3.085  49.921  1.00  0.00    -0.215 NA
HETATM   13  C10 UNL     1      25.917   3.468  49.994  1.00  0.00     0.236 A 
HETATM   14  N3  UNL     1      26.766   2.941  50.871  1.00  0.00    -0.239 NA
HETATM   15  C11 UNL     1      26.408   1.972  51.767  1.00  0.00     0.099 A 
HETATM   16  O1  UNL     1      22.845   1.800  50.615  1.00  0.00    -0.289 OA
HETATM   17  H6  UNL     1      25.728  -0.014  52.802  1.00  0.00     0.160 HD
ENDROOT
BRANCH  15  18
HETATM   18  C12 UNL     1      27.402   1.450  52.696  1.00  0.00    -0.004 A 
HETATM   19  C13 UNL     1      28.171   2.059  53.678  1.00  0.00     0.014 A 
HETATM   20  C14 UNL     1      29.044   1.309  54.432  1.00  0.00     0.002 A 
HETATM   21  C15 UNL     1      29.198  -0.048  54.257  1.00  0.00     0.019 A 
HETATM   22  C16 UNL     1      28.441  -0.665  53.285  1.00  0.00     0.011 A 
HETATM   23 BR1  UNL     1      28.698  -2.546  53.088  1.00  0.00    -0.051 Br
HETATM   24  C17 UNL     1      27.560   0.069  52.518  1.00  0.00     0.033 A 
ENDBRANCH  15  18
TORSDOF 1
ENDMDL
MODEL 3
REMARK VINA RESULT:      -9.0      4.392      7.874
REMARK  1 active torsions:
REMARK  status: ('A' for Active; 'I' for Inactive)
REMARK    1  A    between atoms: C11_15  and  C12_16 
ROOT
HETATM    1  F1  UNL     1      16.738   0.571  49.371  1.00  0.00    -0.206 F 
HETATM    2  C1  UNL     1      17.547   0.248  50.410  1.00  0.00     0.117 A 
HETATM    3  C2  UNL     1      17.014  -0.383  51.518  1.00  0.00     0.045 A 
HETATM    4  C3  UNL     1      17.813  -0.717  52.577  1.00  0.00     0.041 A 
HETATM    5  C4  UNL     1      19.159  -0.411  52.516  1.00  0.00     0.086 A 
HETATM    6  C5  UNL     1      19.751   0.213  51.448  1.00  0.00    -0.004 A 
HETATM    7  C6  UNL     1      18.900   0.540  50.384  1.00  0.00     0.054 A 
HETATM    8  C7  UNL     1      21.075   0.671  51.056  1.00  0.00     0.161 C 
HETATM    9  N1  UNL     1      22.039   0.719  52.133  1.00  0.00    -0.380 N 
HETATM   10  C8  UNL     1      22.174  -0.138  53.260  1.00  0.00     0.112 A 
HETATM   11  C9  UNL     1      21.175  -0.815  53.943  1.00  0.00     0.200 A 
HETATM   12  N2  UNL     1      21.503  -1.578  55.019  1.00  0.00    -0.215 NA
HETATM   13  C10 UNL     1      22.791  -1.646  55.379  1.00  0.00     0.236 A 
HETATM   14  N3  UNL     1      23.746  -0.995  54.721  1.00  0.00    -0.239 NA
HETATM   15  C11 UNL     1      23.499  -0.209  53.631  1.00  0.00     0.099 A 
HETATM   16  O1  UNL     1      19.800  -0.816  53.655  1.00  0.00    -0.289 OA
HETATM   17  H6  UNL     1      22.789   1.475  52.168  1.00  0.00     0.160 HD
ENDROOT
BRANCH  15  18
HETATM   18  C12 UNL     1      24.606   0.468  52.967  1.00  0.00    -0.004 A 
HETATM   19  C13 UNL     1      24.646   1.489  52.028  1.00  0.00     0.014 A 
HETATM   20  C14 UNL     1      25.856   1.954  51.567  1.00  0.00     0.002 A 
HETATM   21  C15 UNL     1      27.060   1.444  52.001  1.00  0.00     0.019 A 
HETATM   22  C16 UNL     1      27.035   0.429  52.933  1.00  0.00     0.011 A 
HETATM   23 BR1  UNL     1      28.732  -0.237  53.495  1.00  0.00    -0.051 Br
HETATM   24  C17 UNL     1      25.831  -0.050  53.407  1.00  0.00     0.033 A 
ENDBRANCH  15  18
TORSDOF 1
ENDMDL
MODEL 4
REMARK VINA RESULT:      -8.8      3.016      4.315
REMARK  1 active torsions:
REMARK  status: ('A' for Active; 'I' for Inactive)
REMARK    1  A    between atoms: C11_15  and  C12_16 
ROOT
HETATM    1  F1  UNL     1      25.698   4.174  49.274  1.00  0.00    -0.206 F 
HETATM    2  C1  UNL     1      25.402   3.223  50.194  1.00  0.00     0.117 A 
HETATM    3  C2  UNL     1      26.417   2.676  50.958  1.00  0.00     0.045 A 
HETATM    4  C3  UNL     1      26.139   1.715  51.891  1.00  0.00     0.041 A 
HETATM    5  C4  UNL     1      24.830   1.304  52.054  1.00  0.00     0.086 A 
HETATM    6  C5  UNL     1      23.779   1.805  51.331  1.00  0.00    -0.004 A 
HETATM    7  C6  UNL     1      24.102   2.786  50.385  1.00  0.00     0.054 A 
HETATM    8  C7  UNL     1      22.339   1.619  51.237  1.00  0.00     0.161 C 
HETATM    9  N1  UNL     1      21.841   0.433  51.899  1.00  0.00    -0.380 N 
HETATM   10  C8  UNL     1      22.300  -0.193  53.090  1.00  0.00     0.112 A 
HETATM   11  C9  UNL     1      23.594  -0.240  53.587  1.00  0.00     0.200 A 
HETATM   12  N2  UNL     1      23.839  -0.911  54.744  1.00  0.00    -0.215 NA
HETATM   13  C10 UNL     1      22.811  -1.505  55.362  1.00  0.00     0.236 A 
HETATM   14  N3  UNL     1      21.571  -1.458  54.882  1.00  0.00    -0.239 NA
HETATM   15  C11 UNL     1      21.242  -0.805  53.728  1.00  0.00     0.099 A 
HETATM   16  O1  UNL     1      24.741   0.344  53.025  1.00  0.00    -0.289 OA
HETATM   17  H6  UNL     1      21.018  -0.114  51.502  1.00  0.00     0.160 HD
ENDROOT
BRANCH  15  18
HETATM   18  C12 UNL     1      19.857  -0.801  53.274  1.00  0.00    -0.004 A 
HETATM   19  C13 UNL     1      19.103   0.143  52.590  1.00  0.00     0.014 A 
HETATM   20  C14 UNL     1      17.791  -0.123  52.275  1.00  0.00     0.002 A 
HETATM   21  C15 UNL     1      17.172  -1.307  52.611  1.00  0.00     0.019 A 
HETATM   22  C16 UNL     1      17.910  -2.253  53.289  1.00  0.00     0.011 A 
HETATM   23 BR1  UNL     1      17.000  -3.872  53.728  1.00  0.00    -0.051 Br
HETATM   24  C17 UNL     1      19.227  -2.005  53.615  1.00  0.00     0.033 A 
ENDBRANCH  15  18
TORSDOF 1
ENDMDL
MODEL 5
REMARK VINA RESULT:      -8.8      4.221      7.054
REMARK  1 active torsions:
REMARK  status: ('A' for Active; 'I' for Inactive)
REMARK    1  A    between atoms: C11_15  and  C12_16 
ROOT
HETATM    1  F1  UNL     1      18.704  -0.862  53.471  1.00  0.00    -0.206 F 
HETATM    2  C1  UNL     1      20.040  -0.630  53.464  1.00  0.00     0.117 A 
HETATM    3  C2  UNL     1      20.865  -1.380  54.282  1.00  0.00     0.045 A 
HETATM    4  C3  UNL     1      22.215  -1.162  54.290  1.00  0.00     0.041 A 
HETATM    5  C4  UNL     1      22.735  -0.182  53.467  1.00  0.00     0.086 A 
HETATM    6  C5  UNL     1      21.974   0.596  52.632  1.00  0.00    -0.004 A 
HETATM    7  C6  UNL     1      20.596   0.344  52.653  1.00  0.00     0.054 A 
HETATM    8  C7  UNL     1      22.169   1.672  51.672  1.00  0.00     0.161 C 
HETATM    9  N1  UNL     1      23.470   2.299  51.728  1.00  0.00    -0.380 N 
HETATM   10  C8  UNL     1      24.737   1.723  52.024  1.00  0.00     0.112 A 
HETATM   11  C9  UNL     1      25.015   0.658  52.866  1.00  0.00     0.200 A 
HETATM   12  N2  UNL     1      26.304   0.262  53.036  1.00  0.00    -0.215 NA
HETATM   13  C10 UNL     1      27.263   0.923  52.374  1.00  0.00     0.236 A 
HETATM   14  N3  UNL     1      26.992   1.945  51.567  1.00  0.00    -0.239 NA
HETATM   15  C11 UNL     1      25.724   2.403  51.343  1.00  0.00     0.099 A 
HETATM   16  O1  UNL     1      24.095  -0.104  53.604  1.00  0.00    -0.289 OA
HETATM   17  H6  UNL     1      23.588   3.341  51.539  1.00  0.00     0.160 HD
ENDROOT
BRANCH  15  18
HETATM   18  C12 UNL     1      25.515   3.528  50.441  1.00  0.00    -0.004 A 
HETATM   19  C13 UNL     1      24.370   4.205  50.044  1.00  0.00     0.014 A 
HETATM   20  C14 UNL     1      24.464   5.261  49.167  1.00  0.00     0.002 A 
HETATM   21  C15 UNL     1      25.665   5.691  48.649  1.00  0.00     0.019 A 
HETATM   22  C16 UNL     1      26.810   5.027  49.035  1.00  0.00     0.011 A 
HETATM   23 BR1  UNL     1      28.444   5.666  48.285  1.00  0.00    -0.051 Br
HETATM   24  C17 UNL     1      26.737   3.966  49.913  1.00  0.00     0.033 A 
ENDBRANCH  15  18
TORSDOF 1
ENDMDL
MODEL 6
REMARK VINA RESULT:      -8.8      2.282      3.471
REMARK  1 active torsions:
REMARK  status: ('A' for Active; 'I' for Inactive)
REMARK    1  A    between atoms: C11_15  and  C12_16 
ROOT
HETATM    1  F1  UNL     1      29.405   2.678  53.509  1.00  0.00    -0.206 F 
HETATM    2  C1  UNL     1      28.291   1.928  53.695  1.00  0.00     0.117 A 
HETATM    3  C2  UNL     1      28.286   0.944  54.667  1.00  0.00     0.045 A 
HETATM    4  C3  UNL     1      27.173   0.176  54.870  1.00  0.00     0.041 A 
HETATM    5  C4  UNL     1      26.057   0.403  54.087  1.00  0.00     0.086 A 
HETATM    6  C5  UNL     1      25.995   1.361  53.107  1.00  0.00    -0.004 A 
HETATM    7  C6  UNL     1      27.155   2.126  52.929  1.00  0.00     0.054 A 
HETATM    8  C7  UNL     1      25.035   1.858  52.134  1.00  0.00     0.161 C 
HETATM    9  N1  UNL     1      23.886   1.003  51.932  1.00  0.00    -0.380 N 
HETATM   10  C8  UNL     1      23.196   0.184  52.868  1.00  0.00     0.112 A 
HETATM   11  C9  UNL     1      23.715  -0.471  53.975  1.00  0.00     0.200 A 
HETATM   12  N2  UNL     1      22.892  -1.231  54.745  1.00  0.00    -0.215 NA
HETATM   13  C10 UNL     1      21.600  -1.316  54.401  1.00  0.00     0.236 A 
HETATM   14  N3  UNL     1      21.107  -0.686  53.338  1.00  0.00    -0.239 NA
HETATM   15  C11 UNL     1      21.867   0.096  52.514  1.00  0.00     0.099 A 
HETATM   16  O1  UNL     1      25.044  -0.452  54.427  1.00  0.00    -0.289 OA
HETATM   17  H6  UNL     1      23.430   0.910  50.974  1.00  0.00     0.160 HD
ENDROOT
BRANCH  15  18
HETATM   18  C12 UNL     1      21.245   0.753  51.371  1.00  0.00    -0.004 A 
HETATM   19  C13 UNL     1      21.480   0.666  50.006  1.00  0.00     0.014 A 
HETATM   20  C14 UNL     1      20.722   1.408  49.130  1.00  0.00     0.002 A 
HETATM   21  C15 UNL     1      19.719   2.253  49.548  1.00  0.00     0.019 A 
HETATM   22  C16 UNL     1      19.475   2.348  50.902  1.00  0.00     0.011 A 
HETATM   23 BR1  UNL     1      18.074   3.535  51.422  1.00  0.00    -0.051 Br
HETATM   24  C17 UNL     1      20.225   1.613  51.796  1.00  0.00     0.033 A 
ENDBRANCH  15  18
TORSDOF 1
ENDMDL
MODEL 7
REMARK VINA RESULT:      -8.8      4.869      7.280
REMARK  1 active torsions:
REMARK  status: ('A' for Active; 'I' for Inactive)
REMARK    1  A    between atoms: C11_15  and  C12_16 
ROOT
HETATM    1  F1  UNL     1      25.668  -1.254  54.293  1.00  0.00    -0.206 F 
HETATM    2  C1  UNL     1      25.119  -0.339  53.457  1.00  0.00     0.117 A 
HETATM    3  C2  UNL     1      23.750  -0.329  53.263  1.00  0.00     0.045 A 
HETATM    4  C3  UNL     1      23.176   0.586  52.424  1.00  0.00     0.041 A 
HETATM    5  C4  UNL     1      23.990   1.496  51.777  1.00  0.00     0.086 A 
HETATM    6  C5  UNL     1      25.352   1.541  51.925  1.00  0.00    -0.004 A 
HETATM    7  C6  UNL     1      25.903   0.588  52.792  1.00  0.00     0.054 A 
HETATM    8  C7  UNL     1      26.474   2.323  51.426  1.00  0.00     0.161 C 
HETATM    9  N1  UNL     1      26.167   3.151  50.281  1.00  0.00    -0.380 N 
HETATM   10  C8  UNL     1      24.963   3.835  49.960  1.00  0.00     0.112 A 
HETATM   11  C9  UNL     1      23.662   3.465  50.266  1.00  0.00     0.200 A 
HETATM   12  N2  UNL     1      22.631   4.247  49.851  1.00  0.00    -0.215 NA
HETATM   13  C10 UNL     1      22.917   5.357  49.158  1.00  0.00     0.236 A 
HETATM   14  N3  UNL     1      24.166   5.709  48.866  1.00  0.00    -0.239 NA
HETATM   15  C11 UNL     1      25.256   4.978  49.247  1.00  0.00     0.099 A 
HETATM   16  O1  UNL     1      23.249   2.330  50.983  1.00  0.00    -0.289 OA
HETATM   17  H6  UNL     1      26.890   3.323  49.517  1.00  0.00     0.160 HD
ENDROOT
BRANCH  15  18
HETATM   18  C12 UNL     1      26.591   5.437  48.887  1.00  0.00    -0.004 A 
HETATM   19  C13 UNL     1      27.762   4.755  48.585  1.00  0.00     0.014 A 
HETATM   20  C14 UNL     1      28.902   5.454  48.265  1.00  0.00     0.002 A 
HETATM   21  C15 UNL     1      28.943   6.830  48.228  1.00  0.00     0.019 A 
HETATM   22  C16 UNL     1      27.787   7.520  48.525  1.00  0.00     0.011 A 
HETATM   23 BR1  UNL     1      27.904   9.423  48.457  1.00  0.00    -0.051 Br
HETATM   24  C17 UNL     1      26.634   6.837  48.849  1.00  0.00     0.033 A 
ENDBRANCH  15  18
TORSDOF 1
ENDMDL
MODEL 8
REMARK VINA RESULT:      -8.7      3.956      5.311
REMARK  1 active torsions:
REMARK  status: ('A' for Active; 'I' for Inactive)
REMARK    1  A    between atoms: C11_15  and  C12_16 
ROOT
HETATM    1  F1  UNL     1      29.108   5.946  47.475  1.00  0.00    -0.206 F 
HETATM    2  C1  UNL     1      27.930   5.907  48.145  1.00  0.00     0.117 A 
HETATM    3  C2  UNL     1      27.057   6.975  48.052  1.00  0.00     0.045 A 
HETATM    4  C3  UNL     1      25.864   6.955  48.720  1.00  0.00     0.041 A 
HETATM    5  C4  UNL     1      25.551   5.850  49.488  1.00  0.00     0.086 A 
HETATM    6  C5  UNL     1      26.370   4.759  49.623  1.00  0.00    -0.004 A 
HETATM    7  C6  UNL     1      27.583   4.817  48.924  1.00  0.00     0.054 A 
HETATM    8  C7  UNL     1      26.368   3.478  50.314  1.00  0.00     0.161 C 
HETATM    9  N1  UNL     1      25.357   3.350  51.340  1.00  0.00    -0.380 N 
HETATM   10  C8  UNL     1      24.040   3.887  51.380  1.00  0.00     0.112 A 
HETATM   11  C9  UNL     1      23.583   5.073  50.826  1.00  0.00     0.200 A 
HETATM   12  N2  UNL     1      22.281   5.427  50.989  1.00  0.00    -0.215 NA
HETATM   13  C10 UNL     1      21.484   4.606  51.686  1.00  0.00     0.236 A 
HETATM   14  N3  UNL     1      21.926   3.470  52.217  1.00  0.00    -0.239 NA
HETATM   15  C11 UNL     1      23.219   3.043  52.097  1.00  0.00     0.099 A 
HETATM   16  O1  UNL     1      24.326   6.003  50.081  1.00  0.00    -0.289 OA
HETATM   17  H6  UNL     1      25.543   2.796  52.230  1.00  0.00     0.160 HD
ENDROOT
BRANCH  15  18
HETATM   18  C12 UNL     1      23.619   1.782  52.708  1.00  0.00    -0.004 A 
HETATM   19  C13 UNL     1      24.864   1.232  52.980  1.00  0.00     0.014 A 
HETATM   20  C14 UNL     1      24.955  -0.000  53.585  1.00  0.00     0.002 A 
HETATM   21  C15 UNL     1      23.846  -0.734  53.944  1.00  0.00     0.019 A 
HETATM   22  C16 UNL     1      22.603  -0.199  53.679  1.00  0.00     0.011 A 
HETATM   23 BR1  UNL     1      21.104  -1.260  54.197  1.00  0.00    -0.051 Br
HETATM   24  C17 UNL     1      22.492   1.035  53.073  1.00  0.00     0.033 A 
ENDBRANCH  15  18
TORSDOF 1
ENDMDL
MODEL 9
REMARK VINA RESULT:      -8.6      2.638      4.280
REMARK  1 active torsions:
REMARK  status: ('A' for Active; 'I' for Inactive)
REMARK    1  A    between atoms: C11_15  and  C12_16 
ROOT
HETATM    1  F1  UNL     1      30.187   2.103  54.527  1.00  0.00    -0.206 F 
HETATM    2  C1  UNL     1      28.962   1.588  54.261  1.00  0.00     0.117 A 
HETATM    3  C2  UNL     1      28.549   0.440  54.912  1.00  0.00     0.045 A 
HETATM    4  C3  UNL     1      27.317  -0.096  54.657  1.00  0.00     0.041 A 
HETATM    5  C4  UNL     1      26.496   0.531  53.739  1.00  0.00     0.086 A 
HETATM    6  C5  UNL     1      26.843   1.671  53.060  1.00  0.00    -0.004 A 
HETATM    7  C6  UNL     1      28.113   2.189  53.347  1.00  0.00     0.054 A 
HETATM    8  C7  UNL     1      26.262   2.564  52.069  1.00  0.00     0.161 C 
HETATM    9  N1  UNL     1      25.089   2.041  51.403  1.00  0.00    -0.380 N 
HETATM   10  C8  UNL     1      24.059   1.205  51.916  1.00  0.00     0.112 A 
HETATM   11  C9  UNL     1      24.160   0.228  52.894  1.00  0.00     0.200 A 
HETATM   12  N2  UNL     1      23.056  -0.487  53.238  1.00  0.00    -0.215 NA
HETATM   13  C10 UNL     1      21.904  -0.215  52.611  1.00  0.00     0.236 A 
HETATM   14  N3  UNL     1      21.812   0.724  51.673  1.00  0.00    -0.239 NA
HETATM   15  C11 UNL     1      22.873   1.485  51.272  1.00  0.00     0.099 A 
HETATM   16  O1  UNL     1      25.310  -0.140  53.612  1.00  0.00    -0.289 OA
HETATM   17  H6  UNL     1      24.893   2.262  50.380  1.00  0.00     0.160 HD
ENDROOT
BRANCH  15  18
HETATM   18  C12 UNL     1      22.684   2.494  50.237  1.00  0.00    -0.004 A 
HETATM   19  C13 UNL     1      22.756   2.434  48.852  1.00  0.00     0.014 A 
HETATM   20  C14 UNL     1      22.518   3.562  48.102  1.00  0.00     0.002 A 
HETATM   21  C15 UNL     1      22.206   4.778  48.668  1.00  0.00     0.019 A 
HETATM   22  C16 UNL     1      22.131   4.851  50.043  1.00  0.00     0.011 A 
HETATM   23 BR1  UNL     1      21.695   6.561  50.770  1.00  0.00    -0.051 Br
HETATM   24  C17 UNL     1      22.366   3.731  50.813  1.00  0.00     0.033 A 
ENDBRANCH  15  18
TORSDOF 1
ENDMDL
