MODEL 1
REMARK VINA RESULT:      -7.4      0.000      0.000
REMARK  6 active torsions:
REMARK  status: ('A' for Active; 'I' for Inactive)
REMARK    1  A    between atoms: C7_7  and  N1_8 
REMARK    2  A    between atoms: N1_8  and  C8_9 
REMARK    3  A    between atoms: C14_16  and  O1_17 
REMARK    4  A    between atoms: O1_17  and  C15_18 
REMARK    5  A    between atoms: C15_18  and  C16_19 
REMARK    6  A    between atoms: C16_19  and  O2_20 
ROOT
HETATM    1  C1  UNL     1      27.587   5.855  48.362  1.00  0.00     0.018 C 
HETATM    2  C2  UNL     1      26.791   5.130  48.916  1.00  0.00    -0.078 C 
HETATM    3  C3  UNL     1      25.840   4.249  49.558  1.00  0.00     0.019 A 
HETATM    4  C4  UNL     1      24.575   4.165  49.053  1.00  0.00     0.021 A 
HETATM    5  C5  UNL     1      23.683   3.320  49.676  1.00  0.00     0.004 A 
HETATM    6  C6  UNL     1      24.101   2.604  50.771  1.00  0.00     0.029 A 
HETATM    7  C7  UNL     1      25.382   2.651  51.332  1.00  0.00     0.029 A 
HETATM    8  C18 UNL     1      26.223   3.526  50.646  1.00  0.00     0.049 A 
ENDROOT
BRANCH   7   9
HETATM    9  N1  UNL     1      25.765   1.889  52.469  1.00  0.00    -0.380 N 
HETATM   10  H5  UNL     1      25.050   1.861  53.201  1.00  0.00     0.160 HD
BRANCH   9  11
HETATM   11  C8  UNL     1      27.018   1.231  52.567  1.00  0.00     0.135 C 
HETATM   12  C9  UNL     1      28.040   2.017  53.490  1.00  0.00     0.111 C 
HETATM   13  N2  UNL     1      27.092   1.470  54.295  1.00  0.00    -0.281 NA
HETATM   14  C10 UNL     1      27.402  -0.031  53.977  1.00  0.00     0.127 A 
HETATM   15  C11 UNL     1      28.367  -0.557  53.173  1.00  0.00     0.000 A 
HETATM   16  C14 UNL     1      25.942  -0.323  54.253  1.00  0.00     0.078 C 
HETATM   17  C12 UNL     1      27.112  -0.216  52.499  1.00  0.00     0.086 A 
HETATM   18  C13 UNL     1      26.242  -1.239  53.269  1.00  0.00     0.021 C 
BRANCH  16  19
HETATM   19  O1  UNL     1      24.625  -0.492  54.591  1.00  0.00    -0.351 OA
BRANCH  19  20
HETATM   20  C15 UNL     1      23.746  -0.746  53.458  1.00  0.00     0.201 C 
BRANCH  20  21
HETATM   21  C16 UNL     1      22.654   0.250  53.426  1.00  0.00     0.193 C 
BRANCH  21  22
HETATM   22  O2  UNL     1      21.609  -0.061  54.277  1.00  0.00    -0.394 OA
HETATM   23  C17 UNL     1      21.281  -1.404  54.204  1.00  0.00     0.201 C 
ENDBRANCH  21  22
ENDBRANCH  20  21
ENDBRANCH  19  20
ENDBRANCH  16  19
ENDBRANCH   9  11
ENDBRANCH   7   9
TORSDOF 6
ENDMDL
MODEL 2
REMARK VINA RESULT:      -7.3      2.420      5.625
REMARK  6 active torsions:
REMARK  status: ('A' for Active; 'I' for Inactive)
REMARK    1  A    between atoms: C7_7  and  N1_8 
REMARK    2  A    between atoms: N1_8  and  C8_9 
REMARK    3  A    between atoms: C14_16  and  O1_17 
REMARK    4  A    between atoms: O1_17  and  C15_18 
REMARK    5  A    between atoms: C15_18  and  C16_19 
REMARK    6  A    between atoms: C16_19  and  O2_20 
ROOT
HETATM    1  C1  UNL     1      19.865   2.836  52.213  1.00  0.00     0.018 C 
HETATM    2  C2  UNL     1      20.561   1.981  52.714  1.00  0.00    -0.078 C 
HETATM    3  C3  UNL     1      21.375   0.941  53.303  1.00  0.00     0.019 A 
HETATM    4  C4  UNL     1      20.887   0.247  54.372  1.00  0.00     0.021 A 
HETATM    5  C5  UNL     1      21.675  -0.740  54.920  1.00  0.00     0.004 A 
HETATM    6  C6  UNL     1      22.911  -0.983  54.372  1.00  0.00     0.029 A 
HETATM    7  C7  UNL     1      23.463  -0.305  53.280  1.00  0.00     0.029 A 
HETATM    8  C18 UNL     1      22.606   0.676  52.784  1.00  0.00     0.049 A 
ENDROOT
BRANCH   7   9
HETATM    9  N1  UNL     1      24.750  -0.594  52.750  1.00  0.00    -0.380 N 
HETATM   10  H5  UNL     1      24.740  -0.803  51.748  1.00  0.00     0.160 HD
BRANCH   9  11
HETATM   11  C8  UNL     1      25.927  -0.585  53.541  1.00  0.00     0.135 C 
HETATM   12  C9  UNL     1      27.103  -1.418  52.881  1.00  0.00     0.111 C 
HETATM   13  N2  UNL     1      26.945  -0.279  52.156  1.00  0.00    -0.281 NA
HETATM   14  C10 UNL     1      27.316   0.732  53.292  1.00  0.00     0.127 A 
HETATM   15  C11 UNL     1      27.713   0.481  54.570  1.00  0.00     0.000 A 
HETATM   16  C14 UNL     1      26.394   1.727  52.619  1.00  0.00     0.078 C 
HETATM   17  C12 UNL     1      26.263   0.557  54.371  1.00  0.00     0.086 A 
HETATM   18  C13 UNL     1      26.246   2.047  53.951  1.00  0.00     0.021 C 
BRANCH  16  19
HETATM   19  O1  UNL     1      25.595   2.574  51.897  1.00  0.00    -0.351 OA
BRANCH  19  20
HETATM   20  C15 UNL     1      25.895   2.608  50.472  1.00  0.00     0.201 C 
BRANCH  20  21
HETATM   21  C16 UNL     1      26.218   3.988  50.051  1.00  0.00     0.193 C 
BRANCH  21  22
HETATM   22  O2  UNL     1      27.456   4.095  49.444  1.00  0.00    -0.394 OA
HETATM   23  C17 UNL     1      27.502   5.173  48.577  1.00  0.00     0.201 C 
ENDBRANCH  21  22
ENDBRANCH  20  21
ENDBRANCH  19  20
ENDBRANCH  16  19
ENDBRANCH   9  11
ENDBRANCH   7   9
TORSDOF 6
ENDMDL
MODEL 3
REMARK VINA RESULT:      -7.0      2.464      4.457
REMARK  6 active torsions:
REMARK  status: ('A' for Active; 'I' for Inactive)
REMARK    1  A    between atoms: C7_7  and  N1_8 
REMARK    2  A    between atoms: N1_8  and  C8_9 
REMARK    3  A    between atoms: C14_16  and  O1_17 
REMARK    4  A    between atoms: O1_17  and  C15_18 
REMARK    5  A    between atoms: C15_18  and  C16_19 
REMARK    6  A    between atoms: C16_19  and  O2_20 
ROOT
HETATM    1  C1  UNL     1      30.319   5.484  47.986  1.00  0.00     0.018 C 
HETATM    2  C2  UNL     1      29.133   5.536  48.225  1.00  0.00    -0.078 C 
HETATM    3  C3  UNL     1      27.711   5.598  48.484  1.00  0.00     0.019 A 
HETATM    4  C4  UNL     1      27.023   6.719  48.119  1.00  0.00     0.021 A 
HETATM    5  C5  UNL     1      25.670   6.760  48.372  1.00  0.00     0.004 A 
HETATM    6  C6  UNL     1      25.075   5.680  48.978  1.00  0.00     0.029 A 
HETATM    7  C7  UNL     1      25.729   4.509  49.374  1.00  0.00     0.029 A 
HETATM    8  C18 UNL     1      27.091   4.545  49.083  1.00  0.00     0.049 A 
ENDROOT
BRANCH   7   9
HETATM    9  N1  UNL     1      25.066   3.418  49.999  1.00  0.00    -0.380 N 
HETATM   10  H5  UNL     1      25.596   2.543  49.962  1.00  0.00     0.160 HD
BRANCH   9  11
HETATM   11  C8  UNL     1      23.795   3.542  50.617  1.00  0.00     0.135 C 
HETATM   12  C9  UNL     1      22.678   2.702  49.869  1.00  0.00     0.111 C 
HETATM   13  N2  UNL     1      23.493   1.825  50.511  1.00  0.00    -0.281 NA
HETATM   14  C10 UNL     1      23.192   2.304  51.970  1.00  0.00     0.127 A 
HETATM   15  C11 UNL     1      22.332   3.270  52.397  1.00  0.00     0.000 A 
HETATM   16  C14 UNL     1      24.592   1.861  52.336  1.00  0.00     0.078 C 
HETATM   17  C12 UNL     1      23.675   3.741  52.050  1.00  0.00     0.086 A 
HETATM   18  C13 UNL     1      24.406   2.949  53.161  1.00  0.00     0.021 C 
BRANCH  16  19
HETATM   19  O1  UNL     1      25.847   1.366  52.579  1.00  0.00    -0.351 OA
BRANCH  19  20
HETATM   20  C15 UNL     1      26.270   1.469  53.969  1.00  0.00     0.201 C 
BRANCH  20  21
HETATM   21  C16 UNL     1      26.236   0.138  54.613  1.00  0.00     0.193 C 
BRANCH  21  22
HETATM   22  O2  UNL     1      27.441  -0.535  54.534  1.00  0.00    -0.394 OA
HETATM   23  C17 UNL     1      28.510   0.312  54.773  1.00  0.00     0.201 C 
ENDBRANCH  21  22
ENDBRANCH  20  21
ENDBRANCH  19  20
ENDBRANCH  16  19
ENDBRANCH   9  11
ENDBRANCH   7   9
TORSDOF 6
ENDMDL
MODEL 4
REMARK VINA RESULT:      -6.8      2.999      5.766
REMARK  6 active torsions:
REMARK  status: ('A' for Active; 'I' for Inactive)
REMARK    1  A    between atoms: C7_7  and  N1_8 
REMARK    2  A    between atoms: N1_8  and  C8_9 
REMARK    3  A    between atoms: C14_16  and  O1_17 
REMARK    4  A    between atoms: O1_17  and  C15_18 
REMARK    5  A    between atoms: C15_18  and  C16_19 
REMARK    6  A    between atoms: C16_19  and  O2_20 
ROOT
HETATM    1  C1  UNL     1      26.606   3.670  49.664  1.00  0.00     0.018 C 
HETATM    2  C2  UNL     1      26.224   2.824  50.440  1.00  0.00    -0.078 C 
HETATM    3  C3  UNL     1      25.783   1.823  51.387  1.00  0.00     0.019 A 
HETATM    4  C4  UNL     1      26.662   0.858  51.784  1.00  0.00     0.021 A 
HETATM    5  C5  UNL     1      26.226  -0.087  52.686  1.00  0.00     0.004 A 
HETATM    6  C6  UNL     1      24.933  -0.018  53.145  1.00  0.00     0.029 A 
HETATM    7  C7  UNL     1      23.989   0.945  52.773  1.00  0.00     0.029 A 
HETATM    8  C18 UNL     1      24.507   1.862  51.861  1.00  0.00     0.049 A 
ENDROOT
BRANCH   7   9
HETATM    9  N1  UNL     1      22.660   0.972  53.277  1.00  0.00    -0.380 N 
HETATM   10  H5  UNL     1      22.529   1.636  54.045  1.00  0.00     0.160 HD
BRANCH   9  11
HETATM   11  C8  UNL     1      21.624   0.156  52.755  1.00  0.00     0.135 C 
HETATM   12  C9  UNL     1      20.866  -0.654  53.888  1.00  0.00     0.111 C 
HETATM   13  N2  UNL     1      20.505   0.651  54.001  1.00  0.00    -0.281 NA
HETATM   14  C10 UNL     1      19.804   0.785  52.608  1.00  0.00     0.127 A 
HETATM   15  C11 UNL     1      19.608  -0.163  51.651  1.00  0.00     0.000 A 
HETATM   16  C14 UNL     1      20.200   2.246  52.623  1.00  0.00     0.078 C 
HETATM   17  C12 UNL     1      20.885   0.550  51.570  1.00  0.00     0.086 A 
HETATM   18  C13 UNL     1      20.266   1.939  51.281  1.00  0.00     0.021 C 
BRANCH  16  19
HETATM   19  O1  UNL     1      20.543   3.566  52.764  1.00  0.00    -0.351 OA
BRANCH  19  20
HETATM   20  C15 UNL     1      21.316   4.104  51.653  1.00  0.00     0.201 C 
BRANCH  20  21
HETATM   21  C16 UNL     1      22.413   4.957  52.161  1.00  0.00     0.193 C 
BRANCH  21  22
HETATM   22  O2  UNL     1      22.719   6.008  51.316  1.00  0.00    -0.394 OA
HETATM   23  C17 UNL     1      24.084   6.105  51.103  1.00  0.00     0.201 C 
ENDBRANCH  21  22
ENDBRANCH  20  21
ENDBRANCH  19  20
ENDBRANCH  16  19
ENDBRANCH   9  11
ENDBRANCH   7   9
TORSDOF 6
ENDMDL
MODEL 5
REMARK VINA RESULT:      -6.7      2.375      4.648
REMARK  6 active torsions:
REMARK  status: ('A' for Active; 'I' for Inactive)
REMARK    1  A    between atoms: C7_7  and  N1_8 
REMARK    2  A    between atoms: N1_8  and  C8_9 
REMARK    3  A    between atoms: C14_16  and  O1_17 
REMARK    4  A    between atoms: O1_17  and  C15_18 
REMARK    5  A    between atoms: C15_18  and  C16_19 
REMARK    6  A    between atoms: C16_19  and  O2_20 
ROOT
HETATM    1  C1  UNL     1      24.947   8.907  47.806  1.00  0.00     0.018 C 
HETATM    2  C2  UNL     1      25.419   7.829  48.091  1.00  0.00    -0.078 C 
HETATM    3  C3  UNL     1      25.995   6.552  48.451  1.00  0.00     0.019 A 
HETATM    4  C4  UNL     1      27.333   6.355  48.260  1.00  0.00     0.021 A 
HETATM    5  C5  UNL     1      27.866   5.134  48.608  1.00  0.00     0.004 A 
HETATM    6  C6  UNL     1      27.035   4.173  49.129  1.00  0.00     0.029 A 
HETATM    7  C7  UNL     1      25.660   4.317  49.345  1.00  0.00     0.029 A 
HETATM    8  C18 UNL     1      25.199   5.577  48.969  1.00  0.00     0.049 A 
ENDROOT
BRANCH   7   9
HETATM    9  N1  UNL     1      24.842   3.288  49.887  1.00  0.00    -0.380 N 
HETATM   10  H5  UNL     1      25.245   2.352  49.787  1.00  0.00     0.160 HD
BRANCH   9  11
HETATM   11  C8  UNL     1      23.593   3.545  50.509  1.00  0.00     0.135 C 
HETATM   12  C9  UNL     1      22.377   2.954  49.682  1.00  0.00     0.111 C 
HETATM   13  N2  UNL     1      23.041   1.910  50.244  1.00  0.00    -0.281 NA
HETATM   14  C10 UNL     1      22.788   2.294  51.740  1.00  0.00     0.127 A 
HETATM   15  C11 UNL     1      22.074   3.336  52.250  1.00  0.00     0.000 A 
HETATM   16  C14 UNL     1      24.100   1.615  52.068  1.00  0.00     0.078 C 
HETATM   17  C12 UNL     1      23.479   3.629  51.953  1.00  0.00     0.086 A 
HETATM   18  C13 UNL     1      24.063   2.639  52.990  1.00  0.00     0.021 C 
BRANCH  16  19
HETATM   19  O1  UNL     1      25.262   0.917  52.270  1.00  0.00    -0.351 OA
BRANCH  19  20
HETATM   20  C15 UNL     1      25.671   0.828  53.665  1.00  0.00     0.201 C 
BRANCH  20  21
HETATM   21  C16 UNL     1      26.579  -0.323  53.859  1.00  0.00     0.193 C 
BRANCH  21  22
HETATM   22  O2  UNL     1      27.331  -0.233  55.016  1.00  0.00    -0.394 OA
HETATM   23  C17 UNL     1      28.661   0.031  54.736  1.00  0.00     0.201 C 
ENDBRANCH  21  22
ENDBRANCH  20  21
ENDBRANCH  19  20
ENDBRANCH  16  19
ENDBRANCH   9  11
ENDBRANCH   7   9
TORSDOF 6
ENDMDL
MODEL 6
REMARK VINA RESULT:      -6.6      2.365      5.952
REMARK  6 active torsions:
REMARK  status: ('A' for Active; 'I' for Inactive)
REMARK    1  A    between atoms: C7_7  and  N1_8 
REMARK    2  A    between atoms: N1_8  and  C8_9 
REMARK    3  A    between atoms: C14_16  and  O1_17 
REMARK    4  A    between atoms: O1_17  and  C15_18 
REMARK    5  A    between atoms: C15_18  and  C16_19 
REMARK    6  A    between atoms: C16_19  and  O2_20 
ROOT
HETATM    1  C1  UNL     1      18.006  -1.961  53.748  1.00  0.00     0.018 C 
HETATM    2  C2  UNL     1      18.701  -1.193  53.122  1.00  0.00    -0.078 C 
HETATM    3  C3  UNL     1      19.515  -0.256  52.378  1.00  0.00     0.019 A 
HETATM    4  C4  UNL     1      19.034   0.248  51.205  1.00  0.00     0.021 A 
HETATM    5  C5  UNL     1      19.821   1.140  50.510  1.00  0.00     0.004 A 
HETATM    6  C6  UNL     1      21.048   1.481  51.024  1.00  0.00     0.029 A 
HETATM    7  C7  UNL     1      21.592   0.997  52.219  1.00  0.00     0.029 A 
HETATM    8  C18 UNL     1      20.737   0.103  52.860  1.00  0.00     0.049 A 
ENDROOT
BRANCH   7   9
HETATM    9  N1  UNL     1      22.870   1.382  52.708  1.00  0.00    -0.380 N 
HETATM   10  H5  UNL     1      23.096   0.977  53.620  1.00  0.00     0.160 HD
BRANCH   9  11
HETATM   11  C8  UNL     1      23.742   2.240  51.990  1.00  0.00     0.135 C 
HETATM   12  C9  UNL     1      23.806   3.694  52.617  1.00  0.00     0.111 C 
HETATM   13  N2  UNL     1      24.467   2.853  53.455  1.00  0.00    -0.281 NA
HETATM   14  C10 UNL     1      25.603   2.435  52.464  1.00  0.00     0.127 A 
HETATM   15  C11 UNL     1      25.830   2.859  51.190  1.00  0.00     0.000 A 
HETATM   16  C14 UNL     1      25.663   1.110  53.193  1.00  0.00     0.078 C 
HETATM   17  C12 UNL     1      24.917   1.720  51.315  1.00  0.00     0.086 A 
HETATM   18  C13 UNL     1      25.968   0.745  51.899  1.00  0.00     0.021 C 
BRANCH  16  19
HETATM   19  O1  UNL     1      25.686  -0.025  53.961  1.00  0.00    -0.351 OA
BRANCH  19  20
HETATM   20  C15 UNL     1      26.449   0.104  55.194  1.00  0.00     0.201 C 
BRANCH  20  21
HETATM   21  C16 UNL     1      27.897   0.142  54.897  1.00  0.00     0.193 C 
BRANCH  21  22
HETATM   22  O2  UNL     1      28.363  -1.021  54.312  1.00  0.00    -0.394 OA
HETATM   23  C17 UNL     1      29.360  -0.759  53.388  1.00  0.00     0.201 C 
ENDBRANCH  21  22
ENDBRANCH  20  21
ENDBRANCH  19  20
ENDBRANCH  16  19
ENDBRANCH   9  11
ENDBRANCH   7   9
TORSDOF 6
ENDMDL
MODEL 7
REMARK VINA RESULT:      -6.6      3.048      6.088
REMARK  6 active torsions:
REMARK  status: ('A' for Active; 'I' for Inactive)
REMARK    1  A    between atoms: C7_7  and  N1_8 
REMARK    2  A    between atoms: N1_8  and  C8_9 
REMARK    3  A    between atoms: C14_16  and  O1_17 
REMARK    4  A    between atoms: O1_17  and  C15_18 
REMARK    5  A    between atoms: C15_18  and  C16_19 
REMARK    6  A    between atoms: C16_19  and  O2_20 
ROOT
HETATM    1  C1  UNL     1      28.323  -1.213  53.257  1.00  0.00     0.018 C 
HETATM    2  C2  UNL     1      27.454  -0.441  52.916  1.00  0.00    -0.078 C 
HETATM    3  C3  UNL     1      26.416   0.470  52.485  1.00  0.00     0.019 A 
HETATM    4  C4  UNL     1      26.717   1.417  51.550  1.00  0.00     0.021 A 
HETATM    5  C5  UNL     1      25.717   2.276  51.151  1.00  0.00     0.004 A 
HETATM    6  C6  UNL     1      24.468   2.143  51.707  1.00  0.00     0.029 A 
HETATM    7  C7  UNL     1      24.103   1.194  52.668  1.00  0.00     0.029 A 
HETATM    8  C18 UNL     1      25.167   0.365  53.017  1.00  0.00     0.049 A 
ENDROOT
BRANCH   7   9
HETATM    9  N1  UNL     1      22.794   1.098  53.214  1.00  0.00    -0.380 N 
HETATM   10  H5  UNL     1      22.642   1.714  54.017  1.00  0.00     0.160 HD
BRANCH   9  11
HETATM   11  C8  UNL     1      21.801   0.234  52.685  1.00  0.00     0.135 C 
HETATM   12  C9  UNL     1      21.094  -0.631  53.810  1.00  0.00     0.111 C 
HETATM   13  N2  UNL     1      20.663   0.651  53.942  1.00  0.00    -0.281 NA
HETATM   14  C10 UNL     1      19.949   0.765  52.554  1.00  0.00     0.127 A 
HETATM   15  C11 UNL     1      19.800  -0.179  51.584  1.00  0.00     0.000 A 
HETATM   16  C14 UNL     1      20.264   2.245  52.586  1.00  0.00     0.078 C 
HETATM   17  C12 UNL     1      21.036   0.604  51.508  1.00  0.00     0.086 A 
HETATM   18  C13 UNL     1      20.341   1.960  51.240  1.00  0.00     0.021 C 
BRANCH  16  19
HETATM   19  O1  UNL     1      20.535   3.579  52.744  1.00  0.00    -0.351 OA
BRANCH  19  20
HETATM   20  C15 UNL     1      21.204   4.192  51.605  1.00  0.00     0.201 C 
BRANCH  20  21
HETATM   21  C16 UNL     1      22.347   5.011  52.063  1.00  0.00     0.193 C 
BRANCH  21  22
HETATM   22  O2  UNL     1      22.669   6.032  51.188  1.00  0.00    -0.394 OA
HETATM   23  C17 UNL     1      21.550   6.767  50.835  1.00  0.00     0.201 C 
ENDBRANCH  21  22
ENDBRANCH  20  21
ENDBRANCH  19  20
ENDBRANCH  16  19
ENDBRANCH   9  11
ENDBRANCH   7   9
TORSDOF 6
ENDMDL
MODEL 8
REMARK VINA RESULT:      -6.5      2.649      6.065
REMARK  6 active torsions:
REMARK  status: ('A' for Active; 'I' for Inactive)
REMARK    1  A    between atoms: C7_7  and  N1_8 
REMARK    2  A    between atoms: N1_8  and  C8_9 
REMARK    3  A    between atoms: C14_16  and  O1_17 
REMARK    4  A    between atoms: O1_17  and  C15_18 
REMARK    5  A    between atoms: C15_18  and  C16_19 
REMARK    6  A    between atoms: C16_19  and  O2_20 
ROOT
HETATM    1  C1  UNL     1      21.550  -1.226  54.580  1.00  0.00     0.018 C 
HETATM    2  C2  UNL     1      22.479  -0.700  54.008  1.00  0.00    -0.078 C 
HETATM    3  C3  UNL     1      23.592  -0.093  53.312  1.00  0.00     0.019 A 
HETATM    4  C4  UNL     1      24.858  -0.517  53.597  1.00  0.00     0.021 A 
HETATM    5  C5  UNL     1      25.906   0.071  52.925  1.00  0.00     0.004 A 
HETATM    6  C6  UNL     1      25.636   1.051  52.002  1.00  0.00     0.029 A 
HETATM    7  C7  UNL     1      24.362   1.525  51.669  1.00  0.00     0.029 A 
HETATM    8  C18 UNL     1      23.358   0.882  52.391  1.00  0.00     0.049 A 
ENDROOT
BRANCH   7   9
HETATM    9  N1  UNL     1      24.135   2.545  50.705  1.00  0.00    -0.380 N 
HETATM   10  H5  UNL     1      23.727   2.198  49.833  1.00  0.00     0.160 HD
BRANCH   9  11
HETATM   11  C8  UNL     1      24.443   3.909  50.942  1.00  0.00     0.135 C 
HETATM   12  C9  UNL     1      24.981   4.640  49.642  1.00  0.00     0.111 C 
HETATM   13  N2  UNL     1      23.651   4.421  49.473  1.00  0.00    -0.281 NA
HETATM   14  C10 UNL     1      23.149   5.314  50.656  1.00  0.00     0.127 A 
HETATM   15  C11 UNL     1      23.871   6.083  51.517  1.00  0.00     0.000 A 
HETATM   16  C14 UNL     1      21.961   4.382  50.769  1.00  0.00     0.078 C 
HETATM   17  C12 UNL     1      23.704   4.685  51.921  1.00  0.00     0.086 A 
HETATM   18  C13 UNL     1      22.165   4.755  52.080  1.00  0.00     0.021 C 
BRANCH  16  19
HETATM   19  O1  UNL     1      20.893   3.525  50.743  1.00  0.00    -0.351 OA
BRANCH  19  20
HETATM   20  C15 UNL     1      20.443   3.090  52.059  1.00  0.00     0.201 C 
BRANCH  20  21
HETATM   21  C16 UNL     1      19.319   2.139  51.926  1.00  0.00     0.193 C 
BRANCH  21  22
HETATM   22  O2  UNL     1      19.520   0.960  52.621  1.00  0.00    -0.394 OA
HETATM   23  C17 UNL     1      18.992  -0.124  51.939  1.00  0.00     0.201 C 
ENDBRANCH  21  22
ENDBRANCH  20  21
ENDBRANCH  19  20
ENDBRANCH  16  19
ENDBRANCH   9  11
ENDBRANCH   7   9
TORSDOF 6
ENDMDL
MODEL 9
REMARK VINA RESULT:      -6.3      6.180      9.911
REMARK  6 active torsions:
REMARK  status: ('A' for Active; 'I' for Inactive)
REMARK    1  A    between atoms: C7_7  and  N1_8 
REMARK    2  A    between atoms: N1_8  and  C8_9 
REMARK    3  A    between atoms: C14_16  and  O1_17 
REMARK    4  A    between atoms: O1_17  and  C15_18 
REMARK    5  A    between atoms: C15_18  and  C16_19 
REMARK    6  A    between atoms: C16_19  and  O2_20 
ROOT
HETATM    1  C1  UNL     1      26.271   2.854  50.061  1.00  0.00     0.018 C 
HETATM    2  C2  UNL     1      26.670   3.850  49.499  1.00  0.00    -0.078 C 
HETATM    3  C3  UNL     1      27.143   5.053  48.850  1.00  0.00     0.019 A 
HETATM    4  C4  UNL     1      26.260   6.066  48.615  1.00  0.00     0.021 A 
HETATM    5  C5  UNL     1      26.728   7.205  47.997  1.00  0.00     0.004 A 
HETATM    6  C6  UNL     1      28.054   7.272  47.647  1.00  0.00     0.029 A 
HETATM    7  C7  UNL     1      29.003   6.266  47.862  1.00  0.00     0.029 A 
HETATM    8  C18 UNL     1      28.452   5.151  48.489  1.00  0.00     0.049 A 
ENDROOT
BRANCH   7   9
HETATM    9  N1  UNL     1      30.367   6.385  47.478  1.00  0.00    -0.380 N 
HETATM   10  H5  UNL     1      30.688   5.622  46.876  1.00  0.00     0.160 HD
BRANCH   9  11
HETATM   11  C8  UNL     1      31.191   7.463  47.891  1.00  0.00     0.135 C 
HETATM   12  C9  UNL     1      31.852   7.206  49.308  1.00  0.00     0.111 C 
HETATM   13  N2  UNL     1      32.464   6.387  48.413  1.00  0.00    -0.281 NA
HETATM   14  C10 UNL     1      33.084   7.506  47.511  1.00  0.00     0.127 A 
HETATM   15  C11 UNL     1      33.031   8.858  47.661  1.00  0.00     0.000 A 
HETATM   16  C14 UNL     1      32.977   6.539  46.351  1.00  0.00     0.078 C 
HETATM   17  C12 UNL     1      31.911   8.269  46.922  1.00  0.00     0.086 A 
HETATM   18  C13 UNL     1      32.764   7.754  45.737  1.00  0.00     0.021 C 
BRANCH  16  19
HETATM   19  O1  UNL     1      32.903   5.568  45.386  1.00  0.00    -0.351 OA
BRANCH  19  20
HETATM   20  C15 UNL     1      33.675   4.370  45.684  1.00  0.00     0.201 C 
BRANCH  20  21
HETATM   21  C16 UNL     1      32.863   3.425  46.481  1.00  0.00     0.193 C 
BRANCH  21  22
HETATM   22  O2  UNL     1      33.587   2.791  47.475  1.00  0.00    -0.394 OA
HETATM   23  C17 UNL     1      34.773   3.456  47.739  1.00  0.00     0.201 C 
ENDBRANCH  21  22
ENDBRANCH  20  21
ENDBRANCH  19  20
ENDBRANCH  16  19
ENDBRANCH   9  11
ENDBRANCH   7   9
TORSDOF 6
ENDMDL
