MODEL 1
REMARK VINA RESULT:      -8.2      0.000      0.000
REMARK  6 active torsions:
REMARK  status: ('A' for Active; 'I' for Inactive)
REMARK    1  A    between atoms: S1_2  and  N1_4 
REMARK    2  A    between atoms: N1_4  and  C2_5 
REMARK    3  A    between atoms: C6_10  and  C7_11 
REMARK    4  A    between atoms: C7_11  and  C8_12 
REMARK    5  A    between atoms: C12_17  and  O2_18 
REMARK    6  A    between atoms: O2_18  and  O3_19 
ROOT
HETATM    1  C2  UNL     1      25.620   2.086  53.089  1.00  0.00     0.079 A 
HETATM    2  C3  UNL     1      24.267   1.761  53.120  1.00  0.00     0.036 A 
HETATM    3  C4  UNL     1      23.538   1.923  51.964  1.00  0.00     0.045 A 
HETATM    4  C5  UNL     1      24.104   2.394  50.777  1.00  0.00     0.126 A 
HETATM    5  F1  UNL     1      23.436   2.569  49.615  1.00  0.00    -0.205 F 
HETATM    6  C6  UNL     1      25.438   2.720  50.716  1.00  0.00     0.026 A 
HETATM    7  C15 UNL     1      26.136   2.538  51.919  1.00  0.00     0.153 A 
HETATM    8  F2  UNL     1      27.467   2.819  52.001  1.00  0.00    -0.203 F 
ENDROOT
BRANCH   6   9
HETATM    9  C7  UNL     1      26.234   3.220  49.600  1.00  0.00     0.086 C 
BRANCH   9  10
HETATM   10  C8  UNL     1      25.958   4.655  49.353  1.00  0.00    -0.026 C 
HETATM   11  C9  UNL     1      25.086   5.323  50.246  1.00  0.00     0.092 C 
HETATM   12  N2  UNL     1      26.093   6.554  50.358  1.00  0.00    -0.387 N 
HETATM   13  C10 UNL     1      26.759   7.323  49.346  1.00  0.00     0.131 C 
HETATM   14  H10 UNL     1      26.292   6.961  51.353  1.00  0.00     0.159 HD
HETATM   15  C11 UNL     1      27.824   6.948  48.330  1.00  0.00     0.043 C 
HETATM   16  C14 UNL     1      25.666   7.169  48.301  1.00  0.00     0.017 C 
HETATM   17  C12 UNL     1      27.649   5.590  48.436  1.00  0.00     0.117 C 
HETATM   18  C13 UNL     1      26.103   5.904  48.451  1.00  0.00     0.007 C 
BRANCH  17  19
HETATM   19  O2  UNL     1      28.876   4.884  48.458  1.00  0.00    -0.179 OA
BRANCH  19  20
HETATM   20  O3  UNL     1      30.014   5.581  48.637  1.00  0.00    -0.114 OA
HETATM   21 CL1  UNL     1      31.232   5.010  47.588  1.00  0.00     0.100 Cl
ENDBRANCH  19  20
ENDBRANCH  17  19
ENDBRANCH   9  10
ENDBRANCH   6   9
BRANCH   1  22
HETATM   22  N1  UNL     1      26.385   1.916  54.296  1.00  0.00    -0.303 N 
HETATM   23  H4  UNL     1      26.639   2.641  54.996  1.00  0.00     0.176 HD
BRANCH  22  24
HETATM   24  S1  UNL     1      26.838   0.225  54.423  1.00  0.00     0.110 S 
HETATM   25  C1  UNL     1      28.570   0.125  54.845  1.00  0.00     0.152 C 
HETATM   26  O1  UNL     1      26.029  -0.494  55.485  1.00  0.00    -0.236 OA
ENDBRANCH  22  24
ENDBRANCH   1  22
TORSDOF 6
ENDMDL
MODEL 2
REMARK VINA RESULT:      -7.8      3.684      4.576
REMARK  6 active torsions:
REMARK  status: ('A' for Active; 'I' for Inactive)
REMARK    1  A    between atoms: S1_2  and  N1_4 
REMARK    2  A    between atoms: N1_4  and  C2_5 
REMARK    3  A    between atoms: C6_10  and  C7_11 
REMARK    4  A    between atoms: C7_11  and  C8_12 
REMARK    5  A    between atoms: C12_17  and  O2_18 
REMARK    6  A    between atoms: O2_18  and  O3_19 
ROOT
HETATM    1  C2  UNL     1      26.393   0.889  52.947  1.00  0.00     0.079 A 
HETATM    2  C3  UNL     1      26.207  -0.438  53.324  1.00  0.00     0.036 A 
HETATM    3  C4  UNL     1      24.916  -0.900  53.441  1.00  0.00     0.045 A 
HETATM    4  C5  UNL     1      23.803  -0.092  53.198  1.00  0.00     0.126 A 
HETATM    5  F1  UNL     1      22.516  -0.495  53.296  1.00  0.00    -0.205 F 
HETATM    6  C6  UNL     1      23.957   1.221  52.823  1.00  0.00     0.026 A 
HETATM    7  C15 UNL     1      25.290   1.643  52.717  1.00  0.00     0.153 A 
HETATM    8  F2  UNL     1      25.588   2.921  52.351  1.00  0.00    -0.203 F 
ENDROOT
BRANCH   6   9
HETATM    9  C7  UNL     1      22.953   2.235  52.517  1.00  0.00     0.086 C 
BRANCH   9  10
HETATM   10  C8  UNL     1      22.301   1.961  51.215  1.00  0.00    -0.026 C 
HETATM   11  C9  UNL     1      20.917   1.660  51.220  1.00  0.00     0.092 C 
HETATM   12  N2  UNL     1      20.660   2.672  50.015  1.00  0.00    -0.387 N 
HETATM   13  C10 UNL     1      21.325   2.822  48.752  1.00  0.00     0.131 C 
HETATM   14  H10 UNL     1      19.800   3.342  50.088  1.00  0.00     0.159 HD
HETATM   15  C11 UNL     1      22.738   3.253  48.400  1.00  0.00     0.043 C 
HETATM   16  C14 UNL     1      21.704   1.357  48.609  1.00  0.00     0.017 C 
HETATM   17  C12 UNL     1      23.260   3.068  49.656  1.00  0.00     0.117 C 
HETATM   18  C13 UNL     1      22.416   1.736  49.688  1.00  0.00     0.007 C 
BRANCH  17  19
HETATM   19  O2  UNL     1      24.133   4.114  50.042  1.00  0.00    -0.179 OA
BRANCH  19  20
HETATM   20  O3  UNL     1      25.189   4.391  49.252  1.00  0.00    -0.114 OA
HETATM   21 CL1  UNL     1      26.387   3.188  49.418  1.00  0.00     0.100 Cl
ENDBRANCH  19  20
ENDBRANCH  17  19
ENDBRANCH   9  10
ENDBRANCH   6   9
BRANCH   1  22
HETATM   22  N1  UNL     1      27.743   1.374  52.822  1.00  0.00    -0.303 N 
HETATM   23  H4  UNL     1      28.138   1.968  52.066  1.00  0.00     0.176 HD
BRANCH  22  24
HETATM   24  S1  UNL     1      28.662   0.796  54.201  1.00  0.00     0.110 S 
HETATM   25  C1  UNL     1      29.887  -0.369  53.627  1.00  0.00     0.152 C 
HETATM   26  O1  UNL     1      29.360   1.931  54.924  1.00  0.00    -0.236 OA
ENDBRANCH  22  24
ENDBRANCH   1  22
TORSDOF 6
ENDMDL
MODEL 3
REMARK VINA RESULT:      -7.5      4.996      6.512
REMARK  6 active torsions:
REMARK  status: ('A' for Active; 'I' for Inactive)
REMARK    1  A    between atoms: S1_2  and  N1_4 
REMARK    2  A    between atoms: N1_4  and  C2_5 
REMARK    3  A    between atoms: C6_10  and  C7_11 
REMARK    4  A    between atoms: C7_11  and  C8_12 
REMARK    5  A    between atoms: C12_17  and  O2_18 
REMARK    6  A    between atoms: O2_18  and  O3_19 
ROOT
HETATM    1  C2  UNL     1      26.084  -0.283  52.766  1.00  0.00     0.079 A 
HETATM    2  C3  UNL     1      26.711   0.504  51.804  1.00  0.00     0.036 A 
HETATM    3  C4  UNL     1      26.036   1.608  51.334  1.00  0.00     0.045 A 
HETATM    4  C5  UNL     1      24.762   1.959  51.784  1.00  0.00     0.126 A 
HETATM    5  F1  UNL     1      24.057   3.032  51.358  1.00  0.00    -0.205 F 
HETATM    6  C6  UNL     1      24.120   1.201  52.735  1.00  0.00     0.026 A 
HETATM    7  C15 UNL     1      24.848   0.090  53.181  1.00  0.00     0.153 A 
HETATM    8  F2  UNL     1      24.332  -0.747  54.124  1.00  0.00    -0.203 F 
ENDROOT
BRANCH   6   9
HETATM    9  C7  UNL     1      22.807   1.377  53.347  1.00  0.00     0.086 C 
BRANCH   9  10
HETATM   10  C8  UNL     1      21.731   0.918  52.437  1.00  0.00    -0.026 C 
HETATM   11  C9  UNL     1      21.265  -0.411  52.584  1.00  0.00     0.092 C 
HETATM   12  N2  UNL     1      19.749   0.081  52.524  1.00  0.00    -0.387 N 
HETATM   13  C10 UNL     1      19.075   0.946  51.598  1.00  0.00     0.131 C 
HETATM   14  H10 UNL     1      19.049  -0.336  53.252  1.00  0.00     0.159 HD
HETATM   15  C11 UNL     1      19.239   2.425  51.297  1.00  0.00     0.043 C 
HETATM   16  C14 UNL     1      19.931   0.576  50.398  1.00  0.00     0.017 C 
HETATM   17  C12 UNL     1      20.469   2.556  51.893  1.00  0.00     0.117 C 
HETATM   18  C13 UNL     1      20.820   1.176  51.214  1.00  0.00     0.007 C 
BRANCH  17  19
HETATM   19  O2  UNL     1      20.581   3.746  52.652  1.00  0.00    -0.179 OA
BRANCH  19  20
HETATM   20  O3  UNL     1      21.637   4.552  52.428  1.00  0.00    -0.114 OA
HETATM   21 CL1  UNL     1      21.443   5.390  50.955  1.00  0.00     0.100 Cl
ENDBRANCH  19  20
ENDBRANCH  17  19
ENDBRANCH   9  10
ENDBRANCH   6   9
BRANCH   1  22
HETATM   22  N1  UNL     1      26.788  -1.437  53.260  1.00  0.00    -0.303 N 
HETATM   23  H4  UNL     1      26.393  -2.365  53.510  1.00  0.00     0.176 HD
BRANCH  22  24
HETATM   24  S1  UNL     1      28.492  -1.029  53.375  1.00  0.00     0.110 S 
HETATM   25  C1  UNL     1      28.736   0.023  54.796  1.00  0.00     0.152 C 
HETATM   26  O1  UNL     1      29.355  -2.268  53.523  1.00  0.00    -0.236 OA
ENDBRANCH  22  24
ENDBRANCH   1  22
TORSDOF 6
ENDMDL
MODEL 4
REMARK VINA RESULT:      -7.4      4.096      4.919
REMARK  6 active torsions:
REMARK  status: ('A' for Active; 'I' for Inactive)
REMARK    1  A    between atoms: S1_2  and  N1_4 
REMARK    2  A    between atoms: N1_4  and  C2_5 
REMARK    3  A    between atoms: C6_10  and  C7_11 
REMARK    4  A    between atoms: C7_11  and  C8_12 
REMARK    5  A    between atoms: C12_17  and  O2_18 
REMARK    6  A    between atoms: O2_18  and  O3_19 
ROOT
HETATM    1  C2  UNL     1      25.533   1.615  53.792  1.00  0.00     0.079 A 
HETATM    2  C3  UNL     1      25.602   0.226  53.828  1.00  0.00     0.036 A 
HETATM    3  C4  UNL     1      24.520  -0.487  53.363  1.00  0.00     0.045 A 
HETATM    4  C5  UNL     1      23.372   0.131  52.863  1.00  0.00     0.126 A 
HETATM    5  F1  UNL     1      22.283  -0.519  52.392  1.00  0.00    -0.205 F 
HETATM    6  C6  UNL     1      23.277   1.502  52.813  1.00  0.00     0.026 A 
HETATM    7  C15 UNL     1      24.404   2.180  53.298  1.00  0.00     0.153 A 
HETATM    8  F2  UNL     1      24.447   3.542  53.305  1.00  0.00    -0.203 F 
ENDROOT
BRANCH   6   9
HETATM    9  C7  UNL     1      22.192   2.352  52.334  1.00  0.00     0.086 C 
BRANCH   9  10
HETATM   10  C8  UNL     1      22.006   2.202  50.872  1.00  0.00    -0.026 C 
HETATM   11  C9  UNL     1      20.746   1.748  50.409  1.00  0.00     0.092 C 
HETATM   12  N2  UNL     1      20.706   2.892  49.299  1.00  0.00    -0.387 N 
HETATM   13  C10 UNL     1      21.685   3.302  48.332  1.00  0.00     0.131 C 
HETATM   14  H10 UNL     1      19.771   3.442  49.168  1.00  0.00     0.159 HD
HETATM   15  C11 UNL     1      23.055   3.938  48.490  1.00  0.00     0.043 C 
HETATM   16  C14 UNL     1      22.310   1.927  48.161  1.00  0.00     0.017 C 
HETATM   17  C12 UNL     1      23.202   3.629  49.820  1.00  0.00     0.117 C 
HETATM   18  C13 UNL     1      22.601   2.220  49.443  1.00  0.00     0.007 C 
BRANCH  17  19
HETATM   19  O2  UNL     1      23.750   4.698  50.569  1.00  0.00    -0.179 OA
BRANCH  19  20
HETATM   20  O3  UNL     1      23.127   5.892  50.533  1.00  0.00    -0.114 OA
HETATM   21 CL1  UNL     1      21.635   5.808  51.357  1.00  0.00     0.100 Cl
ENDBRANCH  19  20
ENDBRANCH  17  19
ENDBRANCH   9  10
ENDBRANCH   6   9
BRANCH   1  22
HETATM   22  N1  UNL     1      26.664   2.362  54.276  1.00  0.00    -0.303 N 
HETATM   23  H4  UNL     1      26.747   2.883  55.172  1.00  0.00     0.176 HD
BRANCH  22  24
HETATM   24  S1  UNL     1      27.945   2.249  53.082  1.00  0.00     0.110 S 
HETATM   25  C1  UNL     1      29.007   0.879  53.507  1.00  0.00     0.152 C 
HETATM   26  O1  UNL     1      27.392   2.032  51.686  1.00  0.00    -0.236 OA
ENDBRANCH  22  24
ENDBRANCH   1  22
TORSDOF 6
ENDMDL
MODEL 5
REMARK VINA RESULT:      -7.3      5.243      7.507
REMARK  6 active torsions:
REMARK  status: ('A' for Active; 'I' for Inactive)
REMARK    1  A    between atoms: S1_2  and  N1_4 
REMARK    2  A    between atoms: N1_4  and  C2_5 
REMARK    3  A    between atoms: C6_10  and  C7_11 
REMARK    4  A    between atoms: C7_11  and  C8_12 
REMARK    5  A    between atoms: C12_17  and  O2_18 
REMARK    6  A    between atoms: O2_18  and  O3_19 
ROOT
HETATM    1  C2  UNL     1      22.901   3.206  49.540  1.00  0.00     0.079 A 
HETATM    2  C3  UNL     1      22.957   4.597  49.526  1.00  0.00     0.036 A 
HETATM    3  C4  UNL     1      23.231   5.245  50.709  1.00  0.00     0.045 A 
HETATM    4  C5  UNL     1      23.454   4.561  51.906  1.00  0.00     0.126 A 
HETATM    5  F1  UNL     1      23.730   5.146  53.094  1.00  0.00    -0.205 F 
HETATM    6  C6  UNL     1      23.409   3.188  51.950  1.00  0.00     0.026 A 
HETATM    7  C15 UNL     1      23.125   2.577  50.720  1.00  0.00     0.153 A 
HETATM    8  F2  UNL     1      23.052   1.220  50.618  1.00  0.00    -0.203 F 
ENDROOT
BRANCH   6   9
HETATM    9  C7  UNL     1      23.610   2.275  53.070  1.00  0.00     0.086 C 
BRANCH   9  10
HETATM   10  C8  UNL     1      24.996   1.752  53.086  1.00  0.00    -0.026 C 
HETATM   11  C9  UNL     1      25.985   2.519  53.749  1.00  0.00     0.092 C 
HETATM   12  N2  UNL     1      26.539   1.220  54.491  1.00  0.00    -0.387 N 
HETATM   13  C10 UNL     1      26.900  -0.073  53.984  1.00  0.00     0.131 C 
HETATM   14  H10 UNL     1      26.761   1.299  55.558  1.00  0.00     0.159 HD
HETATM   15  C11 UNL     1      26.072  -1.175  53.346  1.00  0.00     0.043 C 
HETATM   16  C14 UNL     1      27.348   0.423  52.618  1.00  0.00     0.017 C 
HETATM   17  C12 UNL     1      24.983  -0.387  53.063  1.00  0.00     0.117 C 
HETATM   18  C13 UNL     1      26.030   0.703  52.610  1.00  0.00     0.007 C 
BRANCH  17  19
HETATM   19  O2  UNL     1      23.756  -1.034  53.345  1.00  0.00    -0.179 OA
BRANCH  19  20
HETATM   20  O3  UNL     1      23.231  -0.903  54.579  1.00  0.00    -0.114 OA
HETATM   21 CL1  UNL     1      21.526  -0.900  54.502  1.00  0.00     0.100 Cl
ENDBRANCH  19  20
ENDBRANCH  17  19
ENDBRANCH   9  10
ENDBRANCH   6   9
BRANCH   1  22
HETATM   22  N1  UNL     1      22.616   2.528  48.304  1.00  0.00    -0.303 N 
HETATM   23  H4  UNL     1      23.035   1.644  47.951  1.00  0.00     0.176 HD
BRANCH  22  24
HETATM   24  S1  UNL     1      21.395   3.449  47.443  1.00  0.00     0.110 S 
HETATM   25  C1  UNL     1      21.909   3.638  45.745  1.00  0.00     0.152 C 
HETATM   26  O1  UNL     1      20.045   2.758  47.477  1.00  0.00    -0.236 OA
ENDBRANCH  22  24
ENDBRANCH   1  22
TORSDOF 6
ENDMDL
MODEL 6
REMARK VINA RESULT:      -7.3      3.437      4.174
REMARK  6 active torsions:
REMARK  status: ('A' for Active; 'I' for Inactive)
REMARK    1  A    between atoms: S1_2  and  N1_4 
REMARK    2  A    between atoms: N1_4  and  C2_5 
REMARK    3  A    between atoms: C6_10  and  C7_11 
REMARK    4  A    between atoms: C7_11  and  C8_12 
REMARK    5  A    between atoms: C12_17  and  O2_18 
REMARK    6  A    between atoms: O2_18  and  O3_19 
ROOT
HETATM    1  C2  UNL     1      22.085   0.829  51.048  1.00  0.00     0.079 A 
HETATM    2  C3  UNL     1      21.383   0.681  49.855  1.00  0.00     0.036 A 
HETATM    3  C4  UNL     1      21.678   1.542  48.822  1.00  0.00     0.045 A 
HETATM    4  C5  UNL     1      22.645   2.543  48.930  1.00  0.00     0.126 A 
HETATM    5  F1  UNL     1      22.975   3.412  47.948  1.00  0.00    -0.205 F 
HETATM    6  C6  UNL     1      23.355   2.711  50.095  1.00  0.00     0.026 A 
HETATM    7  C15 UNL     1      23.018   1.811  51.116  1.00  0.00     0.153 A 
HETATM    8  F2  UNL     1      23.645   1.862  52.324  1.00  0.00    -0.203 F 
ENDROOT
BRANCH   6   9
HETATM    9  C7  UNL     1      24.399   3.674  50.429  1.00  0.00     0.086 C 
BRANCH   9  10
HETATM   10  C8  UNL     1      23.818   5.003  50.732  1.00  0.00    -0.026 C 
HETATM   11  C9  UNL     1      23.582   5.326  52.091  1.00  0.00     0.092 C 
HETATM   12  N2  UNL     1      24.251   6.760  51.899  1.00  0.00    -0.387 N 
HETATM   13  C10 UNL     1      24.039   7.774  50.906  1.00  0.00     0.131 C 
HETATM   14  H10 UNL     1      24.950   7.103  52.666  1.00  0.00     0.159 HD
HETATM   15  C11 UNL     1      24.308   7.796  49.411  1.00  0.00     0.043 C 
HETATM   16  C14 UNL     1      22.574   7.445  50.667  1.00  0.00     0.017 C 
HETATM   17  C12 UNL     1      24.439   6.436  49.271  1.00  0.00     0.117 C 
HETATM   18  C13 UNL     1      23.196   6.330  50.236  1.00  0.00     0.007 C 
BRANCH  17  19
HETATM   19  O2  UNL     1      25.515   6.078  48.423  1.00  0.00    -0.179 OA
BRANCH  19  20
HETATM   20  O3  UNL     1      26.769   6.151  48.912  1.00  0.00    -0.114 OA
HETATM   21 CL1  UNL     1      27.583   4.670  48.681  1.00  0.00     0.100 Cl
ENDBRANCH  19  20
ENDBRANCH  17  19
ENDBRANCH   9  10
ENDBRANCH   6   9
BRANCH   1  22
HETATM   22  N1  UNL     1      21.779  -0.071  52.129  1.00  0.00    -0.303 N 
HETATM   23  H4  UNL     1      22.254  -0.964  52.367  1.00  0.00     0.176 HD
BRANCH  22  24
HETATM   24  S1  UNL     1      20.432   0.598  53.033  1.00  0.00     0.110 S 
HETATM   25  C1  UNL     1      18.937  -0.245  52.542  1.00  0.00     0.152 C 
HETATM   26  O1  UNL     1      20.623   0.433  54.528  1.00  0.00    -0.236 OA
ENDBRANCH  22  24
ENDBRANCH   1  22
TORSDOF 6
ENDMDL
MODEL 7
REMARK VINA RESULT:      -7.3      4.308      4.888
REMARK  6 active torsions:
REMARK  status: ('A' for Active; 'I' for Inactive)
REMARK    1  A    between atoms: S1_2  and  N1_4 
REMARK    2  A    between atoms: N1_4  and  C2_5 
REMARK    3  A    between atoms: C6_10  and  C7_11 
REMARK    4  A    between atoms: C7_11  and  C8_12 
REMARK    5  A    between atoms: C12_17  and  O2_18 
REMARK    6  A    between atoms: O2_18  and  O3_19 
ROOT
HETATM    1  C2  UNL     1      25.676   0.246  53.978  1.00  0.00     0.079 A 
HETATM    2  C3  UNL     1      24.661  -0.669  53.709  1.00  0.00     0.036 A 
HETATM    3  C4  UNL     1      23.494  -0.194  53.155  1.00  0.00     0.045 A 
HETATM    4  C5  UNL     1      23.298   1.156  52.858  1.00  0.00     0.126 A 
HETATM    5  F1  UNL     1      22.175   1.675  52.312  1.00  0.00    -0.205 F 
HETATM    6  C6  UNL     1      24.283   2.082  53.110  1.00  0.00     0.026 A 
HETATM    7  C15 UNL     1      25.451   1.548  53.674  1.00  0.00     0.153 A 
HETATM    8  F2  UNL     1      26.509   2.351  53.974  1.00  0.00    -0.203 F 
ENDROOT
BRANCH   6   9
HETATM    9  C7  UNL     1      24.301   3.522  52.881  1.00  0.00     0.086 C 
BRANCH   9  10
HETATM   10  C8  UNL     1      24.308   3.829  51.432  1.00  0.00    -0.026 C 
HETATM   11  C9  UNL     1      25.089   3.004  50.586  1.00  0.00     0.092 C 
HETATM   12  N2  UNL     1      23.887   2.878  49.546  1.00  0.00    -0.387 N 
HETATM   13  C10 UNL     1      23.050   3.878  48.946  1.00  0.00     0.131 C 
HETATM   14  H10 UNL     1      23.666   1.888  49.140  1.00  0.00     0.159 HD
HETATM   15  C11 UNL     1      22.022   4.824  49.542  1.00  0.00     0.043 C 
HETATM   16  C14 UNL     1      24.104   4.974  48.949  1.00  0.00     0.017 C 
HETATM   17  C12 UNL     1      22.438   4.684  50.843  1.00  0.00     0.117 C 
HETATM   18  C13 UNL     1      23.904   4.762  50.264  1.00  0.00     0.007 C 
BRANCH  17  19
HETATM   19  O2  UNL     1      21.357   4.576  51.751  1.00  0.00    -0.179 OA
BRANCH  19  20
HETATM   20  O3  UNL     1      20.108   4.488  51.254  1.00  0.00    -0.114 OA
HETATM   21 CL1  UNL     1      19.339   3.077  51.825  1.00  0.00     0.100 Cl
ENDBRANCH  19  20
ENDBRANCH  17  19
ENDBRANCH   9  10
ENDBRANCH   6   9
BRANCH   1  22
HETATM   22  N1  UNL     1      26.897  -0.250  54.556  1.00  0.00    -0.303 N 
HETATM   23  H4  UNL     1      27.168  -0.261  55.560  1.00  0.00     0.176 HD
BRANCH  22  24
HETATM   24  S1  UNL     1      27.904  -0.868  53.258  1.00  0.00     0.110 S 
HETATM   25  C1  UNL     1      29.616  -0.571  53.668  1.00  0.00     0.152 C 
HETATM   26  O1  UNL     1      27.698  -2.356  53.050  1.00  0.00    -0.236 OA
ENDBRANCH  22  24
ENDBRANCH   1  22
TORSDOF 6
ENDMDL
MODEL 8
REMARK VINA RESULT:      -7.2      4.155      7.386
REMARK  6 active torsions:
REMARK  status: ('A' for Active; 'I' for Inactive)
REMARK    1  A    between atoms: S1_2  and  N1_4 
REMARK    2  A    between atoms: N1_4  and  C2_5 
REMARK    3  A    between atoms: C6_10  and  C7_11 
REMARK    4  A    between atoms: C7_11  and  C8_12 
REMARK    5  A    between atoms: C12_17  and  O2_18 
REMARK    6  A    between atoms: O2_18  and  O3_19 
ROOT
HETATM    1  C2  UNL     1      25.308   5.903  50.153  1.00  0.00     0.079 A 
HETATM    2  C3  UNL     1      26.347   5.835  49.229  1.00  0.00     0.036 A 
HETATM    3  C4  UNL     1      26.885   4.599  48.953  1.00  0.00     0.045 A 
HETATM    4  C5  UNL     1      26.429   3.427  49.561  1.00  0.00     0.126 A 
HETATM    5  F1  UNL     1      26.920   2.189  49.324  1.00  0.00    -0.205 F 
HETATM    6  C6  UNL     1      25.404   3.463  50.475  1.00  0.00     0.026 A 
HETATM    7  C15 UNL     1      24.890   4.744  50.722  1.00  0.00     0.153 A 
HETATM    8  F2  UNL     1      23.869   4.927  51.605  1.00  0.00    -0.203 F 
ENDROOT
BRANCH   6   9
HETATM    9  C7  UNL     1      24.771   2.381  51.222  1.00  0.00     0.086 C 
BRANCH   9  10
HETATM   10  C8  UNL     1      25.753   1.691  52.091  1.00  0.00    -0.026 C 
HETATM   11  C9  UNL     1      26.719   2.485  52.756  1.00  0.00     0.092 C 
HETATM   12  N2  UNL     1      26.451   1.716  54.127  1.00  0.00    -0.387 N 
HETATM   13  C10 UNL     1      26.393   0.314  54.426  1.00  0.00     0.131 C 
HETATM   14  H10 UNL     1      26.356   2.315  55.037  1.00  0.00     0.159 HD
HETATM   15  C11 UNL     1      25.423  -0.772  53.992  1.00  0.00     0.043 C 
HETATM   16  C14 UNL     1      27.389  -0.107  53.358  1.00  0.00     0.017 C 
HETATM   17  C12 UNL     1      24.885  -0.069  52.943  1.00  0.00     0.117 C 
HETATM   18  C13 UNL     1      26.366   0.374  52.626  1.00  0.00     0.007 C 
BRANCH  17  19
HETATM   19  O2  UNL     1      23.478  -0.206  52.860  1.00  0.00    -0.179 OA
BRANCH  19  20
HETATM   20  O3  UNL     1      22.710   0.573  53.647  1.00  0.00    -0.114 OA
HETATM   21 CL1  UNL     1      21.822  -0.384  54.745  1.00  0.00     0.100 Cl
ENDBRANCH  19  20
ENDBRANCH  17  19
ENDBRANCH   9  10
ENDBRANCH   6   9
BRANCH   1  22
HETATM   22  N1  UNL     1      24.743   7.194  50.442  1.00  0.00    -0.303 N 
HETATM   23  H4  UNL     1      25.093   7.907  51.112  1.00  0.00     0.176 HD
BRANCH  22  24
HETATM   24  S1  UNL     1      23.315   7.401  49.443  1.00  0.00     0.110 S 
HETATM   25  C1  UNL     1      21.886   7.538  50.505  1.00  0.00     0.152 C 
HETATM   26  O1  UNL     1      23.410   8.646  48.581  1.00  0.00    -0.236 OA
ENDBRANCH  22  24
ENDBRANCH   1  22
TORSDOF 6
ENDMDL
MODEL 9
REMARK VINA RESULT:      -7.1      4.664      7.289
REMARK  6 active torsions:
REMARK  status: ('A' for Active; 'I' for Inactive)
REMARK    1  A    between atoms: S1_2  and  N1_4 
REMARK    2  A    between atoms: N1_4  and  C2_5 
REMARK    3  A    between atoms: C6_10  and  C7_11 
REMARK    4  A    between atoms: C7_11  and  C8_12 
REMARK    5  A    between atoms: C12_17  and  O2_18 
REMARK    6  A    between atoms: O2_18  and  O3_19 
ROOT
HETATM    1  C2  UNL     1      23.497   3.784  49.419  1.00  0.00     0.079 A 
HETATM    2  C3  UNL     1      22.716   2.898  48.682  1.00  0.00     0.036 A 
HETATM    3  C4  UNL     1      22.232   1.779  49.321  1.00  0.00     0.045 A 
HETATM    4  C5  UNL     1      22.494   1.507  50.665  1.00  0.00     0.126 A 
HETATM    5  F1  UNL     1      22.043   0.427  51.341  1.00  0.00    -0.205 F 
HETATM    6  C6  UNL     1      23.260   2.366  51.419  1.00  0.00     0.026 A 
HETATM    7  C15 UNL     1      23.728   3.489  50.723  1.00  0.00     0.153 A 
HETATM    8  F2  UNL     1      24.498   4.424  51.348  1.00  0.00    -0.203 F 
ENDROOT
BRANCH   6   9
HETATM    9  C7  UNL     1      23.655   2.288  52.821  1.00  0.00     0.086 C 
BRANCH   9  10
HETATM   10  C8  UNL     1      25.017   1.721  52.958  1.00  0.00    -0.026 C 
HETATM   11  C9  UNL     1      26.011   2.526  53.566  1.00  0.00     0.092 C 
HETATM   12  N2  UNL     1      26.483   1.308  54.481  1.00  0.00    -0.387 N 
HETATM   13  C10 UNL     1      26.809  -0.049  54.149  1.00  0.00     0.131 C 
HETATM   14  H10 UNL     1      26.668   1.509  55.539  1.00  0.00     0.159 HD
HETATM   15  C11 UNL     1      25.961  -1.189  53.613  1.00  0.00     0.043 C 
HETATM   16  C14 UNL     1      27.328   0.260  52.753  1.00  0.00     0.017 C 
HETATM   17  C12 UNL     1      24.917  -0.403  53.191  1.00  0.00     0.117 C 
HETATM   18  C13 UNL     1      26.024   0.585  52.656  1.00  0.00     0.007 C 
BRANCH  17  19
HETATM   19  O2  UNL     1      23.655  -0.966  53.497  1.00  0.00    -0.179 OA
BRANCH  19  20
HETATM   20  O3  UNL     1      23.206  -0.884  54.765  1.00  0.00    -0.114 OA
HETATM   21 CL1  UNL     1      21.510  -0.700  54.784  1.00  0.00     0.100 Cl
ENDBRANCH  19  20
ENDBRANCH  17  19
ENDBRANCH   9  10
ENDBRANCH   6   9
BRANCH   1  22
HETATM   22  N1  UNL     1      24.002   4.955  48.754  1.00  0.00    -0.303 N 
HETATM   23  H4  UNL     1      24.850   5.033  48.158  1.00  0.00     0.176 HD
BRANCH  22  24
HETATM   24  S1  UNL     1      22.921   6.293  49.105  1.00  0.00     0.110 S 
HETATM   25  C1  UNL     1      21.279   5.648  49.379  1.00  0.00     0.152 C 
HETATM   26  O1  UNL     1      23.362   7.060  50.337  1.00  0.00    -0.236 OA
ENDBRANCH  22  24
ENDBRANCH   1  22
TORSDOF 6
ENDMDL
