MODEL 1
REMARK VINA RESULT:      -8.2      0.000      0.000
REMARK  7 active torsions:
REMARK  status: ('A' for Active; 'I' for Inactive)
REMARK    1  A    between atoms: O1_2  and  C2_3 
REMARK    2  A    between atoms: C6_8  and  C7_9 
REMARK    3  A    between atoms: C7_9  and  N1_10 
REMARK    4  A    between atoms: C11_14  and  N2_15 
REMARK    5  A    between atoms: N2_15  and  C12_16 
REMARK    6  A    between atoms: C13_17  and  C14_19 
REMARK    7  A    between atoms: C15_22  and  N4_23 
ROOT
HETATM    1  N1  UNL     1      23.423   0.931  52.229  1.00  0.00    -0.337 N 
HETATM    2  C8  UNL     1      23.387   0.394  53.472  1.00  0.00     0.094 A 
HETATM    3  C9  UNL     1      22.098  -0.023  53.768  1.00  0.00     0.036 A 
HETATM    4  C10 UNL     1      21.352   0.285  52.648  1.00  0.00     0.058 A 
HETATM    5  C11 UNL     1      20.010   0.083  52.412  1.00  0.00     0.145 A 
HETATM    6  N3  UNL     1      19.507   0.470  51.234  1.00  0.00    -0.200 NA
HETATM    7  C15 UNL     1      20.317   1.049  50.302  1.00  0.00     0.203 A 
HETATM    8  N5  UNL     1      21.627   1.246  50.537  1.00  0.00    -0.200 NA
HETATM    9  C16 UNL     1      22.159   0.864  51.716  1.00  0.00     0.147 A 
ENDROOT
BRANCH   1  10
HETATM   10  C7  UNL     1      24.514   1.504  51.462  1.00  0.00     0.166 C 
BRANCH  10  11
HETATM   11  C6  UNL     1      25.848   1.259  52.078  1.00  0.00    -0.042 C 
HETATM   12  C5  UNL     1      26.600   2.514  52.264  1.00  0.00     0.203 C 
HETATM   13  O2  UNL     1      27.975   2.325  52.304  1.00  0.00    -0.383 OA
HETATM   14  C4  UNL     1      28.464   2.204  53.588  1.00  0.00     0.198 C 
HETATM   15  C3  UNL     1      28.899   0.798  53.780  1.00  0.00     0.031 C 
HETATM   16  C2  UNL     1      28.355  -0.356  53.501  1.00  0.00     0.047 C 
HETATM   17  C18 UNL     1      27.151  -0.950  52.908  1.00  0.00     0.091 C 
HETATM   18  C17 UNL     1      26.177   0.004  52.368  1.00  0.00    -0.014 C 
BRANCH  16  19
HETATM   19  O1  UNL     1      29.124  -1.455  53.860  1.00  0.00    -0.360 OA
HETATM   20  C1  UNL     1      28.983  -2.653  53.129  1.00  0.00     0.209 C 
ENDBRANCH  16  19
ENDBRANCH  10  11
ENDBRANCH   1  10
BRANCH   5  21
HETATM   21  N2  UNL     1      19.202  -0.519  53.394  1.00  0.00    -0.349 N 
HETATM   22  H13 UNL     1      19.515  -0.565  54.389  1.00  0.00     0.167 HD
BRANCH  21  23
HETATM   23  C12 UNL     1      17.941  -1.070  53.030  1.00  0.00     0.105 C 
HETATM   24  C13 UNL     1      17.222  -2.174  53.102  1.00  0.00     0.018 C 
HETATM   25 BR1  UNL     1      15.471  -2.341  52.383  1.00  0.00    -0.053 Br
BRANCH  24  26
HETATM   26  C14 UNL     1      17.611  -3.448  53.729  1.00  0.00     0.162 C 
HETATM   27 CL1  UNL     1      16.215  -4.575  53.753  1.00  0.00    -0.125 Cl
ENDBRANCH  24  26
ENDBRANCH  21  23
ENDBRANCH   5  21
BRANCH   7  28
HETATM   28  N4  UNL     1      19.758   1.456  49.049  1.00  0.00    -0.271 NA
HETATM   29  H17 UNL     1      20.304   2.285  48.715  1.00  0.00     0.127 HD
HETATM   30  H18 UNL     1      20.328   2.294  48.735  1.00  0.00     0.127 HD
ENDBRANCH   7  28
TORSDOF 7
ENDMDL
MODEL 2
REMARK VINA RESULT:      -8.0      6.895      9.438
REMARK  7 active torsions:
REMARK  status: ('A' for Active; 'I' for Inactive)
REMARK    1  A    between atoms: O1_2  and  C2_3 
REMARK    2  A    between atoms: C6_8  and  C7_9 
REMARK    3  A    between atoms: C7_9  and  N1_10 
REMARK    4  A    between atoms: C11_14  and  N2_15 
REMARK    5  A    between atoms: N2_15  and  C12_16 
REMARK    6  A    between atoms: C13_17  and  C14_19 
REMARK    7  A    between atoms: C15_22  and  N4_23 
ROOT
HETATM    1  N1  UNL     1      25.146   3.837  50.596  1.00  0.00    -0.337 N 
HETATM    2  C8  UNL     1      26.006   3.035  49.923  1.00  0.00     0.094 A 
HETATM    3  C9  UNL     1      26.866   3.807  49.155  1.00  0.00     0.036 A 
HETATM    4  C10 UNL     1      26.490   5.113  49.392  1.00  0.00     0.058 A 
HETATM    5  C11 UNL     1      27.017   6.279  48.880  1.00  0.00     0.145 A 
HETATM    6  N3  UNL     1      26.476   7.442  49.263  1.00  0.00    -0.200 NA
HETATM    7  C15 UNL     1      25.431   7.454  50.140  1.00  0.00     0.203 A 
HETATM    8  N5  UNL     1      24.920   6.315  50.636  1.00  0.00    -0.200 NA
HETATM    9  C16 UNL     1      25.446   5.129  50.267  1.00  0.00     0.147 A 
ENDROOT
BRANCH   1  10
HETATM   10  C7  UNL     1      24.068   3.530  51.518  1.00  0.00     0.166 C 
BRANCH  10  11
HETATM   11  C6  UNL     1      24.357   2.344  52.374  1.00  0.00    -0.042 C 
HETATM   12  C5  UNL     1      23.227   1.398  52.393  1.00  0.00     0.203 C 
HETATM   13  O2  UNL     1      23.197   0.606  53.533  1.00  0.00    -0.383 OA
HETATM   14  C4  UNL     1      23.814  -0.614  53.356  1.00  0.00     0.198 C 
HETATM   15  C3  UNL     1      25.066  -0.613  54.154  1.00  0.00     0.031 C 
HETATM   16  C2  UNL     1      26.033   0.251  54.305  1.00  0.00     0.047 C 
HETATM   17  C18 UNL     1      26.469   1.583  53.866  1.00  0.00     0.091 C 
HETATM   18  C17 UNL     1      25.537   2.292  52.983  1.00  0.00    -0.014 C 
BRANCH  16  19
HETATM   19  O1  UNL     1      27.040  -0.159  55.168  1.00  0.00    -0.360 OA
HETATM   20  C1  UNL     1      28.378   0.148  54.848  1.00  0.00     0.209 C 
ENDBRANCH  16  19
ENDBRANCH  10  11
ENDBRANCH   1  10
BRANCH   5  21
HETATM   21  N2  UNL     1      28.096   6.231  47.979  1.00  0.00    -0.349 N 
HETATM   22  H13 UNL     1      28.078   5.586  47.159  1.00  0.00     0.167 HD
BRANCH  21  23
HETATM   23  C12 UNL     1      29.226   7.072  48.186  1.00  0.00     0.105 C 
HETATM   24  C13 UNL     1      30.498   7.047  48.536  1.00  0.00     0.018 C 
HETATM   25 BR1  UNL     1      31.591   8.597  48.648  1.00  0.00    -0.053 Br
BRANCH  24  26
HETATM   26  C14 UNL     1      31.299   5.864  48.892  1.00  0.00     0.162 C 
HETATM   27 CL1  UNL     1      31.282   4.680  47.544  1.00  0.00    -0.125 Cl
ENDBRANCH  24  26
ENDBRANCH  21  23
ENDBRANCH   5  21
BRANCH   7  28
HETATM   28  N4  UNL     1      24.869   8.710  50.535  1.00  0.00    -0.271 NA
HETATM   29  H17 UNL     1      25.511   9.464  50.194  1.00  0.00     0.127 HD
HETATM   30  H18 UNL     1      25.536   9.453  50.178  1.00  0.00     0.127 HD
ENDBRANCH   7  28
TORSDOF 7
ENDMDL
MODEL 3
REMARK VINA RESULT:      -7.8      6.823      8.816
REMARK  7 active torsions:
REMARK  status: ('A' for Active; 'I' for Inactive)
REMARK    1  A    between atoms: O1_2  and  C2_3 
REMARK    2  A    between atoms: C6_8  and  C7_9 
REMARK    3  A    between atoms: C7_9  and  N1_10 
REMARK    4  A    between atoms: C11_14  and  N2_15 
REMARK    5  A    between atoms: N2_15  and  C12_16 
REMARK    6  A    between atoms: C13_17  and  C14_19 
REMARK    7  A    between atoms: C15_22  and  N4_23 
ROOT
HETATM    1  N1  UNL     1      25.743   3.504  50.541  1.00  0.00    -0.337 N 
HETATM    2  C8  UNL     1      26.761   3.363  49.658  1.00  0.00     0.094 A 
HETATM    3  C9  UNL     1      26.915   4.532  48.926  1.00  0.00     0.036 A 
HETATM    4  C10 UNL     1      25.944   5.388  49.405  1.00  0.00     0.058 A 
HETATM    5  C11 UNL     1      25.658   6.681  49.024  1.00  0.00     0.145 A 
HETATM    6  N3  UNL     1      24.656   7.318  49.642  1.00  0.00    -0.200 NA
HETATM    7  C15 UNL     1      23.948   6.688  50.623  1.00  0.00     0.203 A 
HETATM    8  N5  UNL     1      24.230   5.426  50.992  1.00  0.00    -0.200 NA
HETATM    9  C16 UNL     1      25.235   4.762  50.385  1.00  0.00     0.147 A 
ENDROOT
BRANCH   1  10
HETATM   10  C7  UNL     1      25.188   2.587  51.520  1.00  0.00     0.166 C 
BRANCH  10  11
HETATM   11  C6  UNL     1      26.215   1.693  52.125  1.00  0.00    -0.042 C 
HETATM   12  C5  UNL     1      27.281   2.462  52.794  1.00  0.00     0.203 C 
HETATM   13  O2  UNL     1      28.481   1.769  52.882  1.00  0.00    -0.383 OA
HETATM   14  C4  UNL     1      28.633   1.108  54.081  1.00  0.00     0.198 C 
HETATM   15  C3  UNL     1      28.538  -0.350  53.814  1.00  0.00     0.031 C 
HETATM   16  C2  UNL     1      27.717  -1.081  53.110  1.00  0.00     0.047 C 
HETATM   17  C18 UNL     1      26.531  -0.982  52.249  1.00  0.00     0.091 C 
HETATM   18  C17 UNL     1      26.052   0.380  51.992  1.00  0.00    -0.014 C 
BRANCH  16  19
HETATM   19  O1  UNL     1      27.996  -2.441  53.132  1.00  0.00    -0.360 OA
HETATM   20  C1  UNL     1      29.313  -2.861  53.411  1.00  0.00     0.209 C 
ENDBRANCH  16  19
ENDBRANCH  10  11
ENDBRANCH   1  10
BRANCH   5  21
HETATM   21  N2  UNL     1      26.409   7.302  48.010  1.00  0.00    -0.349 N 
HETATM   22  H13 UNL     1      26.116   7.232  47.010  1.00  0.00     0.167 HD
BRANCH  21  23
HETATM   23  C12 UNL     1      27.581   8.035  48.348  1.00  0.00     0.105 C 
HETATM   24  C13 UNL     1      28.871   8.125  48.084  1.00  0.00     0.018 C 
HETATM   25 BR1  UNL     1      30.028   9.392  48.901  1.00  0.00    -0.053 Br
BRANCH  24  26
HETATM   26  C14 UNL     1      29.645   7.300  47.141  1.00  0.00     0.162 C 
HETATM   27 CL1  UNL     1      30.036   5.716  47.887  1.00  0.00    -0.125 Cl
ENDBRANCH  24  26
ENDBRANCH  21  23
ENDBRANCH   5  21
BRANCH   7  28
HETATM   28  N4  UNL     1      22.880   7.388  51.271  1.00  0.00    -0.271 NA
HETATM   29  H17 UNL     1      23.217   7.665  52.223  1.00  0.00     0.127 HD
HETATM   30  H18 UNL     1      23.248   7.656  52.229  1.00  0.00     0.127 HD
ENDBRANCH   7  28
TORSDOF 7
ENDMDL
MODEL 4
REMARK VINA RESULT:      -7.8      6.599      8.764
REMARK  7 active torsions:
REMARK  status: ('A' for Active; 'I' for Inactive)
REMARK    1  A    between atoms: O1_2  and  C2_3 
REMARK    2  A    between atoms: C6_8  and  C7_9 
REMARK    3  A    between atoms: C7_9  and  N1_10 
REMARK    4  A    between atoms: C11_14  and  N2_15 
REMARK    5  A    between atoms: N2_15  and  C12_16 
REMARK    6  A    between atoms: C13_17  and  C14_19 
REMARK    7  A    between atoms: C15_22  and  N4_23 
ROOT
HETATM    1  N1  UNL     1      23.033   3.476  50.749  1.00  0.00    -0.337 N 
HETATM    2  C8  UNL     1      22.154   4.349  51.297  1.00  0.00     0.094 A 
HETATM    3  C9  UNL     1      22.696   5.627  51.293  1.00  0.00     0.036 A 
HETATM    4  C10 UNL     1      23.943   5.489  50.719  1.00  0.00     0.058 A 
HETATM    5  C11 UNL     1      24.900   6.449  50.474  1.00  0.00     0.145 A 
HETATM    6  N3  UNL     1      26.048   6.070  49.899  1.00  0.00    -0.200 NA
HETATM    7  C15 UNL     1      26.247   4.761  49.570  1.00  0.00     0.203 A 
HETATM    8  N5  UNL     1      25.311   3.827  49.812  1.00  0.00    -0.200 NA
HETATM    9  C16 UNL     1      24.145   4.183  50.390  1.00  0.00     0.147 A 
ENDROOT
BRANCH   1  10
HETATM   10  C7  UNL     1      22.950   2.044  50.523  1.00  0.00     0.166 C 
BRANCH  10  11
HETATM   11  C6  UNL     1      23.240   1.246  51.748  1.00  0.00    -0.042 C 
HETATM   12  C5  UNL     1      22.005   0.731  52.367  1.00  0.00     0.203 C 
HETATM   13  O2  UNL     1      22.141   0.477  53.726  1.00  0.00    -0.383 OA
HETATM   14  C4  UNL     1      22.457  -0.837  53.998  1.00  0.00     0.198 C 
HETATM   15  C3  UNL     1      23.856  -0.876  54.493  1.00  0.00     0.031 C 
HETATM   16  C2  UNL     1      24.968  -0.323  54.087  1.00  0.00     0.047 C 
HETATM   17  C18 UNL     1      25.502   0.563  53.045  1.00  0.00     0.091 C 
HETATM   18  C17 UNL     1      24.511   1.107  52.111  1.00  0.00    -0.014 C 
BRANCH  16  19
HETATM   19  O1  UNL     1      26.078  -0.633  54.860  1.00  0.00    -0.360 OA
HETATM   20  C1  UNL     1      27.264   0.107  54.676  1.00  0.00     0.209 C 
ENDBRANCH  16  19
ENDBRANCH  10  11
ENDBRANCH   1  10
BRANCH   5  21
HETATM   21  N2  UNL     1      24.663   7.791  50.825  1.00  0.00    -0.349 N 
HETATM   22  H13 UNL     1      24.192   8.032  51.724  1.00  0.00     0.167 HD
BRANCH  21  23
HETATM   23  C12 UNL     1      25.069   8.832  49.944  1.00  0.00     0.105 C 
HETATM   24  C13 UNL     1      26.125   9.522  49.555  1.00  0.00     0.018 C 
HETATM   25 BR1  UNL     1      26.063  10.897  48.245  1.00  0.00    -0.053 Br
BRANCH  24  26
HETATM   26  C14 UNL     1      27.509   9.373  50.036  1.00  0.00     0.162 C 
HETATM   27 CL1  UNL     1      28.592  10.496  49.152  1.00  0.00    -0.125 Cl
ENDBRANCH  24  26
ENDBRANCH  21  23
ENDBRANCH   5  21
BRANCH   7  28
HETATM   28  N4  UNL     1      27.482   4.377  48.956  1.00  0.00    -0.271 NA
HETATM   29  H17 UNL     1      28.149   5.177  49.064  1.00  0.00     0.127 HD
HETATM   30  H18 UNL     1      28.137   5.202  49.080  1.00  0.00     0.127 HD
ENDBRANCH   7  28
TORSDOF 7
ENDMDL
MODEL 5
REMARK VINA RESULT:      -7.7      6.502      8.798
REMARK  7 active torsions:
REMARK  status: ('A' for Active; 'I' for Inactive)
REMARK    1  A    between atoms: O1_2  and  C2_3 
REMARK    2  A    between atoms: C6_8  and  C7_9 
REMARK    3  A    between atoms: C7_9  and  N1_10 
REMARK    4  A    between atoms: C11_14  and  N2_15 
REMARK    5  A    between atoms: N2_15  and  C12_16 
REMARK    6  A    between atoms: C13_17  and  C14_19 
REMARK    7  A    between atoms: C15_22  and  N4_23 
ROOT
HETATM    1  N1  UNL     1      24.328   3.340  49.990  1.00  0.00    -0.337 N 
HETATM    2  C8  UNL     1      25.633   3.231  49.644  1.00  0.00     0.094 A 
HETATM    3  C9  UNL     1      26.241   4.477  49.700  1.00  0.00     0.036 A 
HETATM    4  C10 UNL     1      25.246   5.347  50.096  1.00  0.00     0.058 A 
HETATM    5  C11 UNL     1      25.311   6.707  50.307  1.00  0.00     0.145 A 
HETATM    6  N3  UNL     1      24.198   7.344  50.694  1.00  0.00    -0.200 NA
HETATM    7  C15 UNL     1      23.038   6.647  50.870  1.00  0.00     0.203 A 
HETATM    8  N5  UNL     1      22.979   5.320  50.661  1.00  0.00    -0.200 NA
HETATM    9  C16 UNL     1      24.086   4.655  50.272  1.00  0.00     0.147 A 
ENDROOT
BRANCH   1  10
HETATM   10  C7  UNL     1      23.274   2.346  50.088  1.00  0.00     0.166 C 
BRANCH  10  11
HETATM   11  C6  UNL     1      23.370   1.520  51.324  1.00  0.00    -0.042 C 
HETATM   12  C5  UNL     1      22.037   1.159  51.842  1.00  0.00     0.203 C 
HETATM   13  O2  UNL     1      22.035   0.891  53.205  1.00  0.00    -0.383 OA
HETATM   14  C4  UNL     1      22.168  -0.451  53.489  1.00  0.00     0.198 C 
HETATM   15  C3  UNL     1      23.509  -0.661  54.089  1.00  0.00     0.031 C 
HETATM   16  C2  UNL     1      24.708  -0.247  53.775  1.00  0.00     0.047 C 
HETATM   17  C18 UNL     1      25.425   0.567  52.786  1.00  0.00     0.091 C 
HETATM   18  C17 UNL     1      24.583   1.227  51.783  1.00  0.00    -0.014 C 
BRANCH  16  19
HETATM   19  O1  UNL     1      25.709  -0.689  54.628  1.00  0.00    -0.360 OA
HETATM   20  C1  UNL     1      26.780   0.178  54.929  1.00  0.00     0.209 C 
ENDBRANCH  16  19
ENDBRANCH  10  11
ENDBRANCH   1  10
BRANCH   5  21
HETATM   21  N2  UNL     1      26.523   7.395  50.119  1.00  0.00    -0.349 N 
HETATM   22  H13 UNL     1      27.138   7.624  50.930  1.00  0.00     0.167 HD
BRANCH  21  23
HETATM   23  C12 UNL     1      26.916   7.785  48.807  1.00  0.00     0.105 C 
HETATM   24  C13 UNL     1      27.770   7.498  47.842  1.00  0.00     0.018 C 
HETATM   25 BR1  UNL     1      27.839   8.424  46.186  1.00  0.00    -0.053 Br
BRANCH  24  26
HETATM   26  C14 UNL     1      28.798   6.444  47.851  1.00  0.00     0.162 C 
HETATM   27 CL1  UNL     1      30.362   7.104  47.270  1.00  0.00    -0.125 Cl
ENDBRANCH  24  26
ENDBRANCH  21  23
ENDBRANCH   5  21
BRANCH   7  28
HETATM   28  N4  UNL     1      21.861   7.348  51.283  1.00  0.00    -0.271 NA
HETATM   29  H17 UNL     1      21.060   6.675  51.233  1.00  0.00     0.127 HD
HETATM   30  H18 UNL     1      21.068   6.646  51.223  1.00  0.00     0.127 HD
ENDBRANCH   7  28
TORSDOF 7
ENDMDL
MODEL 6
REMARK VINA RESULT:      -7.7      7.824     10.411
REMARK  7 active torsions:
REMARK  status: ('A' for Active; 'I' for Inactive)
REMARK    1  A    between atoms: O1_2  and  C2_3 
REMARK    2  A    between atoms: C6_8  and  C7_9 
REMARK    3  A    between atoms: C7_9  and  N1_10 
REMARK    4  A    between atoms: C11_14  and  N2_15 
REMARK    5  A    between atoms: N2_15  and  C12_16 
REMARK    6  A    between atoms: C13_17  and  C14_19 
REMARK    7  A    between atoms: C15_22  and  N4_23 
ROOT
HETATM    1  N1  UNL     1      25.638   4.594  49.324  1.00  0.00    -0.337 N 
HETATM    2  C8  UNL     1      24.742   5.575  49.586  1.00  0.00     0.094 A 
HETATM    3  C9  UNL     1      25.333   6.815  49.390  1.00  0.00     0.036 A 
HETATM    4  C10 UNL     1      26.627   6.542  48.998  1.00  0.00     0.058 A 
HETATM    5  C11 UNL     1      27.643   7.415  48.677  1.00  0.00     0.145 A 
HETATM    6  N3  UNL     1      28.829   6.906  48.322  1.00  0.00    -0.200 NA
HETATM    7  C15 UNL     1      29.009   5.554  48.283  1.00  0.00     0.203 A 
HETATM    8  N5  UNL     1      28.015   4.706  48.598  1.00  0.00    -0.200 NA
HETATM    9  C16 UNL     1      26.810   5.193  48.959  1.00  0.00     0.147 A 
ENDROOT
BRANCH   1  10
HETATM   10  C7  UNL     1      25.521   3.147  49.378  1.00  0.00     0.166 C 
BRANCH  10  11
HETATM   11  C6  UNL     1      25.547   2.615  50.770  1.00  0.00    -0.042 C 
HETATM   12  C5  UNL     1      24.195   2.267  51.245  1.00  0.00     0.203 C 
HETATM   13  O2  UNL     1      24.077   2.298  52.628  1.00  0.00    -0.383 OA
HETATM   14  C4  UNL     1      24.264   1.064  53.212  1.00  0.00     0.198 C 
HETATM   15  C3  UNL     1      25.551   1.098  53.951  1.00  0.00     0.031 C 
HETATM   16  C2  UNL     1      26.747   1.529  53.651  1.00  0.00     0.047 C 
HETATM   17  C18 UNL     1      27.505   2.167  52.568  1.00  0.00     0.091 C 
HETATM   18  C17 UNL     1      26.725   2.527  51.379  1.00  0.00    -0.014 C 
BRANCH  16  19
HETATM   19  O1  UNL     1      27.686   1.363  54.660  1.00  0.00    -0.360 OA
HETATM   20  C1  UNL     1      28.472   0.192  54.672  1.00  0.00     0.209 C 
ENDBRANCH  16  19
ENDBRANCH  10  11
ENDBRANCH   1  10
BRANCH   5  21
HETATM   21  N2  UNL     1      27.425   8.804  48.726  1.00  0.00    -0.349 N 
HETATM   22  H13 UNL     1      26.746   9.213  49.405  1.00  0.00     0.167 HD
BRANCH  21  23
HETATM   23  C12 UNL     1      28.137   9.662  47.841  1.00  0.00     0.105 C 
HETATM   24  C13 UNL     1      29.145  10.513  47.794  1.00  0.00     0.018 C 
HETATM   25 BR1  UNL     1      29.677  11.429  46.218  1.00  0.00    -0.053 Br
BRANCH  24  26
HETATM   26  C14 UNL     1      30.026  10.907  48.905  1.00  0.00     0.162 C 
HETATM   27 CL1  UNL     1      30.908   9.476  49.530  1.00  0.00    -0.125 Cl
ENDBRANCH  24  26
ENDBRANCH  21  23
ENDBRANCH   5  21
BRANCH   7  28
HETATM   28  N4  UNL     1      30.286   5.032  47.900  1.00  0.00    -0.271 NA
HETATM   29  H17 UNL     1      31.000   5.774  48.091  1.00  0.00     0.127 HD
HETATM   30  H18 UNL     1      30.987   5.801  48.104  1.00  0.00     0.127 HD
ENDBRANCH   7  28
TORSDOF 7
ENDMDL
MODEL 7
REMARK VINA RESULT:      -7.6      5.542      7.139
REMARK  7 active torsions:
REMARK  status: ('A' for Active; 'I' for Inactive)
REMARK    1  A    between atoms: O1_2  and  C2_3 
REMARK    2  A    between atoms: C6_8  and  C7_9 
REMARK    3  A    between atoms: C7_9  and  N1_10 
REMARK    4  A    between atoms: C11_14  and  N2_15 
REMARK    5  A    between atoms: N2_15  and  C12_16 
REMARK    6  A    between atoms: C13_17  and  C14_19 
REMARK    7  A    between atoms: C15_22  and  N4_23 
ROOT
HETATM    1  N1  UNL     1      23.945   5.814  49.835  1.00  0.00    -0.337 N 
HETATM    2  C8  UNL     1      24.091   6.062  51.158  1.00  0.00     0.094 A 
HETATM    3  C9  UNL     1      23.711   4.947  51.891  1.00  0.00     0.036 A 
HETATM    4  C10 UNL     1      23.329   4.011  50.952  1.00  0.00     0.058 A 
HETATM    5  C11 UNL     1      22.865   2.727  51.140  1.00  0.00     0.145 A 
HETATM    6  N3  UNL     1      22.553   2.000  50.060  1.00  0.00    -0.200 NA
HETATM    7  C15 UNL     1      22.698   2.533  48.812  1.00  0.00     0.203 A 
HETATM    8  N5  UNL     1      23.150   3.786  48.634  1.00  0.00    -0.200 NA
HETATM    9  C16 UNL     1      23.472   4.540  49.705  1.00  0.00     0.147 A 
ENDROOT
BRANCH   1  10
HETATM   10  C7  UNL     1      24.201   6.642  48.669  1.00  0.00     0.166 C 
BRANCH  10  11
HETATM   11  C6  UNL     1      25.648   6.733  48.329  1.00  0.00    -0.042 C 
HETATM   12  C5  UNL     1      25.975   8.017  47.681  1.00  0.00     0.203 C 
HETATM   13  O2  UNL     1      27.107   7.951  46.879  1.00  0.00    -0.383 OA
HETATM   14  C4  UNL     1      28.254   8.344  47.535  1.00  0.00     0.198 C 
HETATM   15  C3  UNL     1      29.099   7.141  47.739  1.00  0.00     0.031 C 
HETATM   16  C2  UNL     1      28.849   5.931  48.162  1.00  0.00     0.047 C 
HETATM   17  C18 UNL     1      27.754   5.078  48.640  1.00  0.00     0.091 C 
HETATM   18  C17 UNL     1      26.425   5.699  48.635  1.00  0.00    -0.014 C 
BRANCH  16  19
HETATM   19  O1  UNL     1      29.958   5.096  48.201  1.00  0.00    -0.360 OA
HETATM   20  C1  UNL     1      31.229   5.663  48.430  1.00  0.00     0.209 C 
ENDBRANCH  16  19
ENDBRANCH  10  11
ENDBRANCH   1  10
BRANCH   5  21
HETATM   21  N2  UNL     1      22.728   2.207  52.440  1.00  0.00    -0.349 N 
HETATM   22  H13 UNL     1      21.963   2.536  53.068  1.00  0.00     0.167 HD
BRANCH  21  23
HETATM   23  C12 UNL     1      23.644   1.222  52.905  1.00  0.00     0.105 C 
HETATM   24  C13 UNL     1      24.926   1.010  53.135  1.00  0.00     0.018 C 
HETATM   25 BR1  UNL     1      25.621  -0.625  53.808  1.00  0.00    -0.053 Br
BRANCH  24  26
HETATM   26  C14 UNL     1      26.034   1.958  52.927  1.00  0.00     0.162 C 
HETATM   27 CL1  UNL     1      26.453   2.043  51.185  1.00  0.00    -0.125 Cl
ENDBRANCH  24  26
ENDBRANCH  21  23
ENDBRANCH   5  21
BRANCH   7  28
HETATM   28  N4  UNL     1      22.359   1.737  47.671  1.00  0.00    -0.271 NA
HETATM   29  H17 UNL     1      23.252   1.480  47.190  1.00  0.00     0.127 HD
HETATM   30  H18 UNL     1      23.278   1.491  47.205  1.00  0.00     0.127 HD
ENDBRANCH   7  28
TORSDOF 7
ENDMDL
MODEL 8
REMARK VINA RESULT:      -7.6      5.471      7.216
REMARK  7 active torsions:
REMARK  status: ('A' for Active; 'I' for Inactive)
REMARK    1  A    between atoms: O1_2  and  C2_3 
REMARK    2  A    between atoms: C6_8  and  C7_9 
REMARK    3  A    between atoms: C7_9  and  N1_10 
REMARK    4  A    between atoms: C11_14  and  N2_15 
REMARK    5  A    between atoms: N2_15  and  C12_16 
REMARK    6  A    between atoms: C13_17  and  C14_19 
REMARK    7  A    between atoms: C15_22  and  N4_23 
ROOT
HETATM    1  N1  UNL     1      22.364   2.706  51.335  1.00  0.00    -0.337 N 
HETATM    2  C8  UNL     1      21.318   3.440  51.785  1.00  0.00     0.094 A 
HETATM    3  C9  UNL     1      21.631   4.791  51.726  1.00  0.00     0.036 A 
HETATM    4  C10 UNL     1      22.914   4.843  51.221  1.00  0.00     0.058 A 
HETATM    5  C11 UNL     1      23.704   5.942  50.961  1.00  0.00     0.145 A 
HETATM    6  N3  UNL     1      24.931   5.739  50.466  1.00  0.00    -0.200 NA
HETATM    7  C15 UNL     1      25.371   4.470  50.230  1.00  0.00     0.203 A 
HETATM    8  N5  UNL     1      24.597   3.401  50.485  1.00  0.00    -0.200 NA
HETATM    9  C16 UNL     1      23.357   3.577  50.984  1.00  0.00     0.147 A 
ENDROOT
BRANCH   1  10
HETATM   10  C7  UNL     1      22.542   1.272  51.197  1.00  0.00     0.166 C 
BRANCH  10  11
HETATM   11  C6  UNL     1      23.042   0.627  52.443  1.00  0.00    -0.042 C 
HETATM   12  C5  UNL     1      21.942   0.037  53.229  1.00  0.00     0.203 C 
HETATM   13  O2  UNL     1      22.237  -0.075  54.582  1.00  0.00    -0.383 OA
HETATM   14  C4  UNL     1      22.732  -1.315  54.923  1.00  0.00     0.198 C 
HETATM   15  C3  UNL     1      24.167  -1.155  55.268  1.00  0.00     0.031 C 
HETATM   16  C2  UNL     1      25.161  -0.522  54.704  1.00  0.00     0.047 C 
HETATM   17  C18 UNL     1      25.483   0.318  53.544  1.00  0.00     0.091 C 
HETATM   18  C17 UNL     1      24.349   0.662  52.680  1.00  0.00    -0.014 C 
BRANCH  16  19
HETATM   19  O1  UNL     1      26.369  -0.636  55.377  1.00  0.00    -0.360 OA
HETATM   20  C1  UNL     1      27.495   0.050  54.876  1.00  0.00     0.209 C 
ENDBRANCH  16  19
ENDBRANCH  10  11
ENDBRANCH   1  10
BRANCH   5  21
HETATM   21  N2  UNL     1      23.219   7.238  51.215  1.00  0.00    -0.349 N 
HETATM   22  H13 UNL     1      23.047   7.561  52.192  1.00  0.00     0.167 HD
BRANCH  21  23
HETATM   23  C12 UNL     1      22.960   8.119  50.128  1.00  0.00     0.105 C 
HETATM   24  C13 UNL     1      21.980   8.713  49.472  1.00  0.00     0.018 C 
HETATM   25 BR1  UNL     1      22.252   9.868  47.989  1.00  0.00    -0.053 Br
BRANCH  24  26
HETATM   26  C14 UNL     1      20.537   8.607  49.745  1.00  0.00     0.162 C 
HETATM   27 CL1  UNL     1      19.962   6.946  49.387  1.00  0.00    -0.125 Cl
ENDBRANCH  24  26
ENDBRANCH  21  23
ENDBRANCH   5  21
BRANCH   7  28
HETATM   28  N4  UNL     1      26.687   4.276  49.700  1.00  0.00    -0.271 NA
HETATM   29  H17 UNL     1      26.908   3.255  49.771  1.00  0.00     0.127 HD
HETATM   30  H18 UNL     1      26.884   3.237  49.784  1.00  0.00     0.127 HD
ENDBRANCH   7  28
TORSDOF 7
ENDMDL
MODEL 9
REMARK VINA RESULT:      -7.4      5.908      7.748
REMARK  7 active torsions:
REMARK  status: ('A' for Active; 'I' for Inactive)
REMARK    1  A    between atoms: O1_2  and  C2_3 
REMARK    2  A    between atoms: C6_8  and  C7_9 
REMARK    3  A    between atoms: C7_9  and  N1_10 
REMARK    4  A    between atoms: C11_14  and  N2_15 
REMARK    5  A    between atoms: N2_15  and  C12_16 
REMARK    6  A    between atoms: C13_17  and  C14_19 
REMARK    7  A    between atoms: C15_22  and  N4_23 
ROOT
HETATM    1  N1  UNL     1      26.273   5.380  49.106  1.00  0.00    -0.337 N 
HETATM    2  C8  UNL     1      27.083   4.310  48.922  1.00  0.00     0.094 A 
HETATM    3  C9  UNL     1      26.670   3.263  49.733  1.00  0.00     0.036 A 
HETATM    4  C10 UNL     1      25.573   3.746  50.417  1.00  0.00     0.058 A 
HETATM    5  C11 UNL     1      24.781   3.115  51.352  1.00  0.00     0.145 A 
HETATM    6  N3  UNL     1      23.760   3.798  51.884  1.00  0.00    -0.200 NA
HETATM    7  C15 UNL     1      23.524   5.085  51.498  1.00  0.00     0.203 A 
HETATM    8  N5  UNL     1      24.299   5.697  50.586  1.00  0.00    -0.200 NA
HETATM    9  C16 UNL     1      25.334   5.031  50.035  1.00  0.00     0.147 A 
ENDROOT
BRANCH   1  10
HETATM   10  C7  UNL     1      26.280   6.703  48.506  1.00  0.00     0.166 C 
BRANCH  10  11
HETATM   11  C6  UNL     1      27.629   7.336  48.512  1.00  0.00    -0.042 C 
HETATM   12  C5  UNL     1      27.589   8.696  49.080  1.00  0.00     0.203 C 
HETATM   13  O2  UNL     1      28.624   9.505  48.630  1.00  0.00    -0.383 OA
HETATM   14  C4  UNL     1      29.708   9.515  49.482  1.00  0.00     0.198 C 
HETATM   15  C3  UNL     1      30.821   8.797  48.813  1.00  0.00     0.031 C 
HETATM   16  C2  UNL     1      30.897   7.668  48.161  1.00  0.00     0.047 C 
HETATM   17  C18 UNL     1      30.077   6.534  47.718  1.00  0.00     0.091 C 
HETATM   18  C17 UNL     1      28.647   6.631  48.029  1.00  0.00    -0.014 C 
BRANCH  16  19
HETATM   19  O1  UNL     1      32.166   7.363  47.688  1.00  0.00    -0.360 OA
HETATM   20  C1  UNL     1      33.290   7.822  48.406  1.00  0.00     0.209 C 
ENDBRANCH  16  19
ENDBRANCH  10  11
ENDBRANCH   1  10
BRANCH   5  21
HETATM   21  N2  UNL     1      25.051   1.787  51.727  1.00  0.00    -0.349 N 
HETATM   22  H13 UNL     1      25.963   1.339  51.486  1.00  0.00     0.167 HD
BRANCH  21  23
HETATM   23  C12 UNL     1      24.072   1.043  52.444  1.00  0.00     0.105 C 
HETATM   24  C13 UNL     1      23.935   0.106  53.363  1.00  0.00     0.018 C 
HETATM   25 BR1  UNL     1      22.255  -0.538  53.971  1.00  0.00    -0.053 Br
BRANCH  24  26
HETATM   26  C14 UNL     1      25.012  -0.601  54.077  1.00  0.00     0.162 C 
HETATM   27 CL1  UNL     1      26.217  -1.231  52.907  1.00  0.00    -0.125 Cl
ENDBRANCH  24  26
ENDBRANCH  21  23
ENDBRANCH   5  21
BRANCH   7  28
HETATM   28  N4  UNL     1      22.426   5.796  52.080  1.00  0.00    -0.271 NA
HETATM   29  H17 UNL     1      22.640   5.928  53.097  1.00  0.00     0.127 HD
HETATM   30  H18 UNL     1      22.668   5.916  53.105  1.00  0.00     0.127 HD
ENDBRANCH   7  28
TORSDOF 7
ENDMDL
