MODEL 1
REMARK VINA RESULT:      -8.2      0.000      0.000
REMARK  3 active torsions:
REMARK  status: ('A' for Active; 'I' for Inactive)
REMARK    1  A    between atoms: C3_3  and  O1_4 
REMARK    2  A    between atoms: O1_4  and  C4_5 
REMARK    3  A    between atoms: C4_5  and  N1_6 
ROOT
HETATM    1  C1  UNL     1      26.418   8.106  50.083  1.00  0.00     0.114 C 
HETATM    2  C2  UNL     1      25.265   7.235  50.321  1.00  0.00    -0.081 C 
HETATM    3  C3  UNL     1      24.307   6.499  50.510  1.00  0.00     0.058 C 
ENDROOT
BRANCH   3   4
HETATM    4  O1  UNL     1      23.227   5.664  50.704  1.00  0.00    -0.237 OA
BRANCH   4   5
HETATM    5  C4  UNL     1      23.458   4.316  51.165  1.00  0.00     0.389 C 
HETATM    6  C5  UNL     1      24.461   3.729  50.279  1.00  0.00     0.081 C 
HETATM    7  C6  UNL     1      24.010   3.600  49.005  1.00  0.00     0.035 C 
HETATM    8  C19 UNL     1      25.853   3.234  50.375  1.00  0.00     0.185 C 
HETATM    9  C7  UNL     1      22.621   3.454  48.516  1.00  0.00     0.029 A 
HETATM   10  C8  UNL     1      22.292   3.335  47.193  1.00  0.00     0.133 A 
HETATM   11  C10 UNL     1      21.740   3.464  49.606  1.00  0.00     0.146 A 
HETATM   12  N2  UNL     1      20.971   3.218  46.979  1.00  0.00    -0.253 NA
HETATM   13  C9  UNL     1      20.078   3.222  47.983  1.00  0.00     0.234 A 
HETATM   14  N3  UNL     1      20.416   3.340  49.287  1.00  0.00    -0.223 NA
HETATM   15  N4  UNL     1      22.218   3.601  50.973  1.00  0.00    -0.278 N 
HETATM   16  C11 UNL     1      21.285   2.960  51.834  1.00  0.00     0.097 C 
HETATM   17  C12 UNL     1      21.165   1.991  52.712  1.00  0.00     0.029 C 
HETATM   18  C13 UNL     1      22.014   0.989  53.310  1.00  0.00     0.212 A 
HETATM   19  C14 UNL     1      23.183   0.399  53.455  1.00  0.00     0.201 A 
HETATM   20  F1  UNL     1      23.282   1.429  52.544  1.00  0.00    -0.364 F 
HETATM   21  C15 UNL     1      24.585   0.338  53.110  1.00  0.00     0.053 A 
HETATM   22 CL1  UNL     1      24.041  -0.892  54.265  1.00  0.00    -0.135 Cl
HETATM   23  C16 UNL     1      25.844   0.373  52.727  1.00  0.00     0.023 C 
HETATM   24  C17 UNL     1      26.690   1.160  51.854  1.00  0.00     0.005 C 
HETATM   25  C18 UNL     1      26.688   2.183  51.016  1.00  0.00     0.055 C 
HETATM   26  O2  UNL     1      26.469   4.064  49.597  1.00  0.00    -0.288 OA
BRANCH   5  27
HETATM   27  N1  UNL     1      23.842   4.464  52.531  1.00  0.00     0.141 N 
HETATM   28  H4  UNL     1      24.448   5.297  52.657  1.00  0.00     0.319 HD
HETATM   29  H5  UNL     1      23.116   4.329  53.239  1.00  0.00     0.319 HD
ENDBRANCH   5  27
ENDBRANCH   4   5
ENDBRANCH   3   4
TORSDOF 3
ENDMDL
MODEL 2
REMARK VINA RESULT:      -7.6      1.308      1.653
REMARK  3 active torsions:
REMARK  status: ('A' for Active; 'I' for Inactive)
REMARK    1  A    between atoms: C3_3  and  O1_4 
REMARK    2  A    between atoms: O1_4  and  C4_5 
REMARK    3  A    between atoms: C4_5  and  N1_6 
ROOT
HETATM    1  C1  UNL     1      20.826   7.745  50.783  1.00  0.00     0.114 C 
HETATM    2  C2  UNL     1      21.932   6.788  50.850  1.00  0.00    -0.081 C 
HETATM    3  C3  UNL     1      22.865   5.999  50.902  1.00  0.00     0.058 C 
ENDROOT
BRANCH   3   4
HETATM    4  O1  UNL     1      23.927   5.119  50.948  1.00  0.00    -0.237 OA
BRANCH   4   5
HETATM    5  C4  UNL     1      23.718   3.797  51.487  1.00  0.00     0.389 C 
HETATM    6  C5  UNL     1      24.653   2.905  50.802  1.00  0.00     0.081 C 
HETATM    7  C6  UNL     1      24.384   2.799  49.477  1.00  0.00     0.035 C 
HETATM    8  C19 UNL     1      25.832   2.080  51.149  1.00  0.00     0.185 C 
HETATM    9  C7  UNL     1      23.098   2.976  48.766  1.00  0.00     0.029 A 
HETATM   10  C8  UNL     1      22.956   2.843  47.412  1.00  0.00     0.133 A 
HETATM   11  C10 UNL     1      22.096   3.296  49.692  1.00  0.00     0.146 A 
HETATM   12  N2  UNL     1      21.700   3.052  46.983  1.00  0.00    -0.253 NA
HETATM   13  C9  UNL     1      20.697   3.363  47.823  1.00  0.00     0.234 A 
HETATM   14  N3  UNL     1      20.851   3.491  49.159  1.00  0.00    -0.223 NA
HETATM   15  N4  UNL     1      22.377   3.411  51.115  1.00  0.00    -0.278 N 
HETATM   16  C11 UNL     1      21.187   3.099  51.828  1.00  0.00     0.097 C 
HETATM   17  C12 UNL     1      20.682   2.265  52.707  1.00  0.00     0.029 C 
HETATM   18  C13 UNL     1      21.132   1.128  53.473  1.00  0.00     0.212 A 
HETATM   19  C14 UNL     1      22.066   0.271  53.833  1.00  0.00     0.201 A 
HETATM   20  F1  UNL     1      22.574   1.168  52.916  1.00  0.00    -0.364 F 
HETATM   21  C15 UNL     1      23.437  -0.173  53.730  1.00  0.00     0.053 A 
HETATM   22 CL1  UNL     1      22.416  -1.130  54.820  1.00  0.00    -0.135 Cl
HETATM   23  C16 UNL     1      24.704  -0.492  53.563  1.00  0.00     0.023 C 
HETATM   24  C17 UNL     1      25.851  -0.018  52.818  1.00  0.00     0.005 C 
HETATM   25  C18 UNL     1      26.250   0.902  51.957  1.00  0.00     0.055 C 
HETATM   26  O2  UNL     1      26.757   2.661  50.456  1.00  0.00    -0.288 OA
BRANCH   5  27
HETATM   27  N1  UNL     1      23.915   3.947  52.892  1.00  0.00     0.141 N 
HETATM   28  H4  UNL     1      23.355   3.252  53.420  1.00  0.00     0.319 HD
HETATM   29  H5  UNL     1      24.875   4.087  53.217  1.00  0.00     0.319 HD
ENDBRANCH   5  27
ENDBRANCH   4   5
ENDBRANCH   3   4
TORSDOF 3
ENDMDL
MODEL 3
REMARK VINA RESULT:      -7.5      4.257      5.653
REMARK  3 active torsions:
REMARK  status: ('A' for Active; 'I' for Inactive)
REMARK    1  A    between atoms: C3_3  and  O1_4 
REMARK    2  A    between atoms: O1_4  and  C4_5 
REMARK    3  A    between atoms: C4_5  and  N1_6 
ROOT
HETATM    1  C1  UNL     1      30.688  10.727  49.020  1.00  0.00     0.114 C 
HETATM    2  C2  UNL     1      29.250  10.461  49.105  1.00  0.00    -0.081 C 
HETATM    3  C3  UNL     1      28.049  10.240  49.162  1.00  0.00     0.058 C 
ENDROOT
BRANCH   3   4
HETATM    4  O1  UNL     1      26.691  10.003  49.211  1.00  0.00    -0.237 OA
BRANCH   4   5
HETATM    5  C4  UNL     1      26.222   8.647  49.369  1.00  0.00     0.389 C 
HETATM    6  C5  UNL     1      26.768   7.874  48.255  1.00  0.00     0.081 C 
HETATM    7  C6  UNL     1      26.281   8.284  47.057  1.00  0.00     0.035 C 
HETATM    8  C19 UNL     1      27.722   6.759  48.060  1.00  0.00     0.185 C 
HETATM    9  C7  UNL     1      24.997   8.951  46.749  1.00  0.00     0.029 A 
HETATM   10  C8  UNL     1      24.619   9.321  45.487  1.00  0.00     0.133 A 
HETATM   11  C10 UNL     1      24.270   9.131  47.933  1.00  0.00     0.146 A 
HETATM   12  N2  UNL     1      23.414   9.915  45.442  1.00  0.00    -0.253 NA
HETATM   13  C9  UNL     1      22.671  10.115  46.544  1.00  0.00     0.234 A 
HETATM   14  N3  UNL     1      23.056   9.744  47.786  1.00  0.00    -0.223 NA
HETATM   15  N4  UNL     1      24.786   8.693  49.221  1.00  0.00    -0.278 N 
HETATM   16  C11 UNL     1      23.679   8.403  50.066  1.00  0.00     0.097 C 
HETATM   17  C12 UNL     1      23.111   7.439  50.752  1.00  0.00     0.029 C 
HETATM   18  C13 UNL     1      23.352   6.043  51.023  1.00  0.00     0.212 A 
HETATM   19  C14 UNL     1      24.066   4.944  50.888  1.00  0.00     0.201 A 
HETATM   20  F1  UNL     1      24.649   5.978  50.185  1.00  0.00    -0.364 F 
HETATM   21  C15 UNL     1      25.237   4.294  50.344  1.00  0.00     0.053 A 
HETATM   22 CL1  UNL     1      24.176   3.250  51.309  1.00  0.00    -0.135 Cl
HETATM   23  C16 UNL     1      26.331   3.802  49.802  1.00  0.00     0.023 C 
HETATM   24  C17 UNL     1      27.436   4.259  48.985  1.00  0.00     0.005 C 
HETATM   25  C18 UNL     1      27.929   5.318  48.365  1.00  0.00     0.055 C 
HETATM   26  O2  UNL     1      28.652   7.342  47.375  1.00  0.00    -0.288 OA
BRANCH   5  27
HETATM   27  N1  UNL     1      26.664   8.264  50.670  1.00  0.00     0.141 N 
HETATM   28  H4  UNL     1      27.693   8.140  50.690  1.00  0.00     0.319 HD
HETATM   29  H5  UNL     1      26.260   8.763  51.467  1.00  0.00     0.319 HD
ENDBRANCH   5  27
ENDBRANCH   4   5
ENDBRANCH   3   4
TORSDOF 3
ENDMDL
MODEL 4
REMARK VINA RESULT:      -7.5      1.864      4.863
REMARK  3 active torsions:
REMARK  status: ('A' for Active; 'I' for Inactive)
REMARK    1  A    between atoms: C3_3  and  O1_4 
REMARK    2  A    between atoms: O1_4  and  C4_5 
REMARK    3  A    between atoms: C4_5  and  N1_6 
ROOT
HETATM    1  C1  UNL     1      19.117   3.251  46.464  1.00  0.00     0.114 C 
HETATM    2  C2  UNL     1      20.396   3.634  47.065  1.00  0.00    -0.081 C 
HETATM    3  C3  UNL     1      21.471   3.944  47.559  1.00  0.00     0.058 C 
ENDROOT
BRANCH   3   4
HETATM    4  O1  UNL     1      22.691   4.276  48.112  1.00  0.00    -0.237 OA
BRANCH   4   5
HETATM    5  C4  UNL     1      23.133   3.582  49.297  1.00  0.00     0.389 C 
HETATM    6  C5  UNL     1      22.202   3.930  50.368  1.00  0.00     0.081 C 
HETATM    7  C6  UNL     1      22.253   5.249  50.685  1.00  0.00     0.035 C 
HETATM    8  C19 UNL     1      21.198   3.244  51.214  1.00  0.00     0.185 C 
HETATM    9  C7  UNL     1      23.372   6.204  50.532  1.00  0.00     0.029 A 
HETATM   10  C8  UNL     1      23.297   7.523  50.889  1.00  0.00     0.133 A 
HETATM   11  C10 UNL     1      24.474   5.544  49.973  1.00  0.00     0.146 A 
HETATM   12  N2  UNL     1      24.431   8.205  50.657  1.00  0.00    -0.253 NA
HETATM   13  C9  UNL     1      25.520   7.627  50.123  1.00  0.00     0.234 A 
HETATM   14  N3  UNL     1      25.582   6.322  49.774  1.00  0.00    -0.223 NA
HETATM   15  N4  UNL     1      24.427   4.130  49.632  1.00  0.00    -0.278 N 
HETATM   16  C11 UNL     1      25.748   3.610  49.715  1.00  0.00     0.097 C 
HETATM   17  C12 UNL     1      26.484   2.719  50.338  1.00  0.00     0.029 C 
HETATM   18  C13 UNL     1      26.300   1.712  51.355  1.00  0.00     0.212 A 
HETATM   19  C14 UNL     1      25.542   1.054  52.208  1.00  0.00     0.201 A 
HETATM   20  F1  UNL     1      24.790   1.991  51.531  1.00  0.00    -0.364 F 
HETATM   21  C15 UNL     1      24.231   0.828  52.774  1.00  0.00     0.053 A 
HETATM   22 CL1  UNL     1      25.523  -0.191  53.437  1.00  0.00    -0.135 Cl
HETATM   23  C16 UNL     1      22.998   0.704  53.219  1.00  0.00     0.023 C 
HETATM   24  C17 UNL     1      21.696   1.289  52.979  1.00  0.00     0.005 C 
HETATM   25  C18 UNL     1      21.057   2.196  52.260  1.00  0.00     0.055 C 
HETATM   26  O2  UNL     1      20.110   3.837  50.840  1.00  0.00    -0.288 OA
BRANCH   5  27
HETATM   27  N1  UNL     1      23.162   2.207  48.918  1.00  0.00     0.141 N 
HETATM   28  H4  UNL     1      22.294   1.943  48.415  1.00  0.00     0.319 HD
HETATM   29  H5  UNL     1      24.034   1.849  48.521  1.00  0.00     0.319 HD
ENDBRANCH   5  27
ENDBRANCH   4   5
ENDBRANCH   3   4
TORSDOF 3
ENDMDL
MODEL 5
REMARK VINA RESULT:      -7.3      3.013      5.652
REMARK  3 active torsions:
REMARK  status: ('A' for Active; 'I' for Inactive)
REMARK    1  A    between atoms: C3_3  and  O1_4 
REMARK    2  A    between atoms: O1_4  and  C4_5 
REMARK    3  A    between atoms: C4_5  and  N1_6 
ROOT
HETATM    1  C1  UNL     1      22.789   0.669  53.196  1.00  0.00     0.114 C 
HETATM    2  C2  UNL     1      22.665   2.046  52.715  1.00  0.00    -0.081 C 
HETATM    3  C3  UNL     1      22.552   3.198  52.323  1.00  0.00     0.058 C 
ENDROOT
BRANCH   3   4
HETATM    4  O1  UNL     1      22.406   4.499  51.887  1.00  0.00    -0.237 OA
BRANCH   4   5
HETATM    5  C4  UNL     1      23.377   5.044  50.970  1.00  0.00     0.389 C 
HETATM    6  C5  UNL     1      22.686   6.050  50.165  1.00  0.00     0.081 C 
HETATM    7  C6  UNL     1      21.720   5.507  49.383  1.00  0.00     0.035 C 
HETATM    8  C19 UNL     1      22.737   7.516  49.964  1.00  0.00     0.185 C 
HETATM    9  C7  UNL     1      21.618   4.134  48.840  1.00  0.00     0.029 A 
HETATM   10  C8  UNL     1      20.582   3.703  48.058  1.00  0.00     0.133 A 
HETATM   11  C10 UNL     1      22.726   3.385  49.259  1.00  0.00     0.146 A 
HETATM   12  N2  UNL     1      20.694   2.418  47.682  1.00  0.00    -0.253 NA
HETATM   13  C9  UNL     1      21.733   1.650  48.052  1.00  0.00     0.234 A 
HETATM   14  N3  UNL     1      22.751   2.088  48.825  1.00  0.00    -0.223 NA
HETATM   15  N4  UNL     1      23.766   3.962  50.097  1.00  0.00    -0.278 N 
HETATM   16  C11 UNL     1      24.981   3.271  49.834  1.00  0.00     0.097 C 
HETATM   17  C12 UNL     1      26.209   3.440  49.401  1.00  0.00     0.029 C 
HETATM   18  C13 UNL     1      27.028   4.531  48.930  1.00  0.00     0.212 A 
HETATM   19  C14 UNL     1      27.206   5.804  48.640  1.00  0.00     0.201 A 
HETATM   20  F1  UNL     1      25.925   5.599  49.108  1.00  0.00    -0.364 F 
HETATM   21  C15 UNL     1      26.672   7.146  48.603  1.00  0.00     0.053 A 
HETATM   22 CL1  UNL     1      28.339   6.983  48.022  1.00  0.00    -0.135 Cl
HETATM   23  C16 UNL     1      26.089   8.326  48.613  1.00  0.00     0.023 C 
HETATM   24  C17 UNL     1      24.813   8.902  48.986  1.00  0.00     0.005 C 
HETATM   25  C18 UNL     1      23.618   8.608  49.469  1.00  0.00     0.055 C 
HETATM   26  O2  UNL     1      21.566   7.868  50.389  1.00  0.00    -0.288 OA
BRANCH   5  27
HETATM   27  N1  UNL     1      24.427   5.528  51.806  1.00  0.00     0.141 N 
HETATM   28  H4  UNL     1      25.071   4.760  52.074  1.00  0.00     0.319 HD
HETATM   29  H5  UNL     1      24.872   6.409  51.535  1.00  0.00     0.319 HD
ENDBRANCH   5  27
ENDBRANCH   4   5
ENDBRANCH   3   4
TORSDOF 3
ENDMDL
MODEL 6
REMARK VINA RESULT:      -7.1      3.162      5.576
REMARK  3 active torsions:
REMARK  status: ('A' for Active; 'I' for Inactive)
REMARK    1  A    between atoms: C3_3  and  O1_4 
REMARK    2  A    between atoms: O1_4  and  C4_5 
REMARK    3  A    between atoms: C4_5  and  N1_6 
ROOT
HETATM    1  C1  UNL     1      27.959   2.142  53.058  1.00  0.00     0.114 C 
HETATM    2  C2  UNL     1      26.648   2.003  52.420  1.00  0.00    -0.081 C 
HETATM    3  C3  UNL     1      25.548   1.884  51.900  1.00  0.00     0.058 C 
ENDROOT
BRANCH   3   4
HETATM    4  O1  UNL     1      24.302   1.734  51.327  1.00  0.00    -0.237 OA
BRANCH   4   5
HETATM    5  C4  UNL     1      23.767   2.807  50.524  1.00  0.00     0.389 C 
HETATM    6  C5  UNL     1      23.272   3.825  51.448  1.00  0.00     0.081 C 
HETATM    7  C6  UNL     1      22.228   3.380  52.192  1.00  0.00     0.035 C 
HETATM    8  C19 UNL     1      23.595   5.223  51.815  1.00  0.00     0.185 C 
HETATM    9  C7  UNL     1      21.239   2.326  51.877  1.00  0.00     0.029 A 
HETATM   10  C8  UNL     1      20.224   1.962  52.720  1.00  0.00     0.133 A 
HETATM   11  C10 UNL     1      21.519   1.786  50.615  1.00  0.00     0.146 A 
HETATM   12  N2  UNL     1      19.448   0.980  52.231  1.00  0.00    -0.253 NA
HETATM   13  C9  UNL     1      19.668   0.423  51.028  1.00  0.00     0.234 A 
HETATM   14  N3  UNL     1      20.674   0.792  50.204  1.00  0.00    -0.223 NA
HETATM   15  N4  UNL     1      22.636   2.260  49.812  1.00  0.00    -0.278 N 
HETATM   16  C11 UNL     1      22.318   2.050  48.442  1.00  0.00     0.097 C 
HETATM   17  C12 UNL     1      22.139   2.675  47.302  1.00  0.00     0.029 C 
HETATM   18  C13 UNL     1      22.186   4.033  46.816  1.00  0.00     0.212 A 
HETATM   19  C14 UNL     1      22.377   5.323  47.002  1.00  0.00     0.201 A 
HETATM   20  F1  UNL     1      22.570   4.640  48.185  1.00  0.00    -0.364 F 
HETATM   21  C15 UNL     1      22.732   6.400  47.898  1.00  0.00     0.053 A 
HETATM   22 CL1  UNL     1      22.360   6.896  46.236  1.00  0.00    -0.135 Cl
HETATM   23  C16 UNL     1      23.068   7.303  48.796  1.00  0.00     0.023 C 
HETATM   24  C17 UNL     1      23.441   7.353  50.194  1.00  0.00     0.005 C 
HETATM   25  C18 UNL     1      23.629   6.607  51.269  1.00  0.00     0.055 C 
HETATM   26  O2  UNL     1      23.954   5.082  53.050  1.00  0.00    -0.288 OA
BRANCH   5  27
HETATM   27  N1  UNL     1      24.851   3.202  49.685  1.00  0.00     0.141 N 
HETATM   28  H4  UNL     1      24.541   3.299  48.700  1.00  0.00     0.319 HD
HETATM   29  H5  UNL     1      25.467   3.942  50.033  1.00  0.00     0.319 HD
ENDBRANCH   5  27
ENDBRANCH   4   5
ENDBRANCH   3   4
TORSDOF 3
ENDMDL
MODEL 7
REMARK VINA RESULT:      -7.0      4.643      6.625
REMARK  3 active torsions:
REMARK  status: ('A' for Active; 'I' for Inactive)
REMARK    1  A    between atoms: C3_3  and  O1_4 
REMARK    2  A    between atoms: O1_4  and  C4_5 
REMARK    3  A    between atoms: C4_5  and  N1_6 
ROOT
HETATM    1  C1  UNL     1      32.038   8.093  49.344  1.00  0.00     0.114 C 
HETATM    2  C2  UNL     1      30.655   8.555  49.206  1.00  0.00    -0.081 C 
HETATM    3  C3  UNL     1      29.499   8.931  49.080  1.00  0.00     0.058 C 
ENDROOT
BRANCH   3   4
HETATM    4  O1  UNL     1      28.195   9.353  48.918  1.00  0.00    -0.237 OA
BRANCH   4   5
HETATM    5  C4  UNL     1      27.132   8.379  48.970  1.00  0.00     0.389 C 
HETATM    6  C5  UNL     1      27.580   7.219  48.202  1.00  0.00     0.081 C 
HETATM    7  C6  UNL     1      27.740   7.504  46.886  1.00  0.00     0.035 C 
HETATM    8  C19 UNL     1      27.920   5.801  48.458  1.00  0.00     0.185 C 
HETATM    9  C7  UNL     1      27.077   8.543  46.067  1.00  0.00     0.029 A 
HETATM   10  C8  UNL     1      27.330   8.735  44.736  1.00  0.00     0.133 A 
HETATM   11  C10 UNL     1      26.184   9.267  46.868  1.00  0.00     0.146 A 
HETATM   12  N2  UNL     1      26.616   9.737  44.195  1.00  0.00    -0.253 NA
HETATM   13  C9  UNL     1      25.746  10.467  44.914  1.00  0.00     0.234 A 
HETATM   14  N3  UNL     1      25.505  10.267  46.228  1.00  0.00    -0.223 NA
HETATM   15  N4  UNL     1      26.007   8.965  48.281  1.00  0.00    -0.278 N 
HETATM   16  C11 UNL     1      24.690   9.350  48.653  1.00  0.00     0.097 C 
HETATM   17  C12 UNL     1      23.558   8.883  49.128  1.00  0.00     0.029 C 
HETATM   18  C13 UNL     1      23.031   7.611  49.559  1.00  0.00     0.212 A 
HETATM   19  C14 UNL     1      23.161   6.318  49.777  1.00  0.00     0.201 A 
HETATM   20  F1  UNL     1      24.342   6.837  49.288  1.00  0.00    -0.364 F 
HETATM   21  C15 UNL     1      24.005   5.144  49.766  1.00  0.00     0.053 A 
HETATM   22 CL1  UNL     1      22.341   4.870  50.314  1.00  0.00    -0.135 Cl
HETATM   23  C16 UNL     1      24.857   4.142  49.717  1.00  0.00     0.023 C 
HETATM   24  C17 UNL     1      26.242   3.914  49.358  1.00  0.00     0.005 C 
HETATM   25  C18 UNL     1      27.333   4.510  48.910  1.00  0.00     0.055 C 
HETATM   26  O2  UNL     1      29.176   5.784  48.147  1.00  0.00    -0.288 OA
BRANCH   5  27
HETATM   27  N1  UNL     1      26.915   8.159  50.363  1.00  0.00     0.141 N 
HETATM   28  H4  UNL     1      26.488   7.228  50.528  1.00  0.00     0.319 HD
HETATM   29  H5  UNL     1      27.669   8.424  51.002  1.00  0.00     0.319 HD
ENDBRANCH   5  27
ENDBRANCH   4   5
ENDBRANCH   3   4
TORSDOF 3
ENDMDL
MODEL 8
REMARK VINA RESULT:      -7.0      1.676      2.145
REMARK  3 active torsions:
REMARK  status: ('A' for Active; 'I' for Inactive)
REMARK    1  A    between atoms: C3_3  and  O1_4 
REMARK    2  A    between atoms: O1_4  and  C4_5 
REMARK    3  A    between atoms: C4_5  and  N1_6 
ROOT
HETATM    1  C1  UNL     1      20.021   8.618  50.083  1.00  0.00     0.114 C 
HETATM    2  C2  UNL     1      21.119   7.650  50.116  1.00  0.00    -0.081 C 
HETATM    3  C3  UNL     1      22.027   6.832  50.139  1.00  0.00     0.058 C 
ENDROOT
BRANCH   3   4
HETATM    4  O1  UNL     1      23.039   5.894  50.170  1.00  0.00    -0.237 OA
BRANCH   4   5
HETATM    5  C4  UNL     1      22.782   4.607  50.770  1.00  0.00     0.389 C 
HETATM    6  C5  UNL     1      23.753   3.672  50.205  1.00  0.00     0.081 C 
HETATM    7  C6  UNL     1      23.575   3.488  48.873  1.00  0.00     0.035 C 
HETATM    8  C19 UNL     1      24.898   2.862  50.680  1.00  0.00     0.185 C 
HETATM    9  C7  UNL     1      22.343   3.630  48.066  1.00  0.00     0.029 A 
HETATM   10  C8  UNL     1      22.292   3.418  46.715  1.00  0.00     0.133 A 
HETATM   11  C10 UNL     1      21.282   4.009  48.900  1.00  0.00     0.146 A 
HETATM   12  N2  UNL     1      21.071   3.607  46.189  1.00  0.00    -0.253 NA
HETATM   13  C9  UNL     1      20.016   3.972  46.938  1.00  0.00     0.234 A 
HETATM   14  N3  UNL     1      20.078   4.178  48.272  1.00  0.00    -0.223 NA
HETATM   15  N4  UNL     1      21.466   4.207  50.329  1.00  0.00    -0.278 N 
HETATM   16  C11 UNL     1      20.227   3.943  50.976  1.00  0.00     0.097 C 
HETATM   17  C12 UNL     1      19.656   3.165  51.865  1.00  0.00     0.029 C 
HETATM   18  C13 UNL     1      20.042   2.073  52.726  1.00  0.00     0.212 A 
HETATM   19  C14 UNL     1      20.941   1.234  53.199  1.00  0.00     0.201 A 
HETATM   20  F1  UNL     1      21.519   2.072  52.269  1.00  0.00    -0.364 F 
HETATM   21  C15 UNL     1      22.312   0.777  53.217  1.00  0.00     0.053 A 
HETATM   22 CL1  UNL     1      21.210  -0.108  54.288  1.00  0.00    -0.135 Cl
HETATM   23  C16 UNL     1      23.585   0.443  53.157  1.00  0.00     0.023 C 
HETATM   24  C17 UNL     1      24.785   0.867  52.466  1.00  0.00     0.005 C 
HETATM   25  C18 UNL     1      25.249   1.733  51.582  1.00  0.00     0.055 C 
HETATM   26  O2  UNL     1      25.874   3.398  50.020  1.00  0.00    -0.288 OA
BRANCH   5  27
HETATM   27  N1  UNL     1      22.883   4.839  52.174  1.00  0.00     0.141 N 
HETATM   28  H4  UNL     1      22.594   5.806  52.411  1.00  0.00     0.319 HD
HETATM   29  H5  UNL     1      22.536   4.104  52.796  1.00  0.00     0.319 HD
ENDBRANCH   5  27
ENDBRANCH   4   5
ENDBRANCH   3   4
TORSDOF 3
ENDMDL
MODEL 9
REMARK VINA RESULT:      -6.8      4.857      6.446
REMARK  3 active torsions:
REMARK  status: ('A' for Active; 'I' for Inactive)
REMARK    1  A    between atoms: C3_3  and  O1_4 
REMARK    2  A    between atoms: O1_4  and  C4_5 
REMARK    3  A    between atoms: C4_5  and  N1_6 
ROOT
HETATM    1  C1  UNL     1      28.020  13.186  48.534  1.00  0.00     0.114 C 
HETATM    2  C2  UNL     1      27.063  12.148  48.147  1.00  0.00    -0.081 C 
HETATM    3  C3  UNL     1      26.254  11.287  47.833  1.00  0.00     0.058 C 
ENDROOT
BRANCH   3   4
HETATM    4  O1  UNL     1      25.332  10.317  47.496  1.00  0.00    -0.237 OA
BRANCH   4   5
HETATM    5  C4  UNL     1      25.674   8.928  47.690  1.00  0.00     0.389 C 
HETATM    6  C5  UNL     1      26.777   8.629  46.778  1.00  0.00     0.081 C 
HETATM    7  C6  UNL     1      26.408   8.729  45.476  1.00  0.00     0.035 C 
HETATM    8  C19 UNL     1      28.205   8.250  46.873  1.00  0.00     0.185 C 
HETATM    9  C7  UNL     1      25.069   8.565  44.869  1.00  0.00     0.029 A 
HETATM   10  C8  UNL     1      24.823   8.695  43.529  1.00  0.00     0.133 A 
HETATM   11  C10 UNL     1      24.136   8.271  45.872  1.00  0.00     0.146 A 
HETATM   12  N2  UNL     1      23.534   8.509  43.201  1.00  0.00    -0.253 NA
HETATM   13  C9  UNL     1      22.594   8.225  44.119  1.00  0.00     0.234 A 
HETATM   14  N3  UNL     1      22.849   8.099  45.440  1.00  0.00    -0.223 NA
HETATM   15  N4  UNL     1      24.525   8.162  47.270  1.00  0.00    -0.278 N 
HETATM   16  C11 UNL     1      23.618   7.276  47.914  1.00  0.00     0.097 C 
HETATM   17  C12 UNL     1      23.552   6.140  48.568  1.00  0.00     0.029 C 
HETATM   18  C13 UNL     1      24.465   5.114  49.011  1.00  0.00     0.212 A 
HETATM   19  C14 UNL     1      25.678   4.612  49.117  1.00  0.00     0.201 A 
HETATM   20  F1  UNL     1      25.720   5.814  48.443  1.00  0.00    -0.364 F 
HETATM   21  C15 UNL     1      27.095   4.749  48.869  1.00  0.00     0.053 A 
HETATM   22 CL1  UNL     1      26.619   3.262  49.710  1.00  0.00    -0.135 Cl
HETATM   23  C16 UNL     1      28.363   4.974  48.592  1.00  0.00     0.023 C 
HETATM   24  C17 UNL     1      29.169   5.997  47.960  1.00  0.00     0.005 C 
HETATM   25  C18 UNL     1      29.108   7.167  47.347  1.00  0.00     0.055 C 
HETATM   26  O2  UNL     1      28.773   9.275  46.325  1.00  0.00    -0.288 OA
BRANCH   5  27
HETATM   27  N1  UNL     1      25.970   8.823  49.082  1.00  0.00     0.141 N 
HETATM   28  H4  UNL     1      25.716   9.696  49.582  1.00  0.00     0.319 HD
HETATM   29  H5  UNL     1      25.713   7.950  49.550  1.00  0.00     0.319 HD
ENDBRANCH   5  27
ENDBRANCH   4   5
ENDBRANCH   3   4
TORSDOF 3
ENDMDL
