MODEL 1
REMARK VINA RESULT:      -9.0      0.000      0.000
REMARK  4 active torsions:
REMARK  status: ('A' for Active; 'I' for Inactive)
REMARK    1  A    between atoms: C5_7  and  C6_8 
REMARK    2  A    between atoms: C6_8  and  C7_9 
REMARK    3  A    between atoms: C7_9  and  C8_10 
REMARK       I    between atoms: C8_10  and  N2_12 
REMARK    4  A    between atoms: N2_12  and  C9_13 
ROOT
HETATM    1  C9  UNL     1      25.027   3.357  52.064  1.00  0.00     0.125 C 
HETATM    2  C10 UNL     1      23.696   3.008  52.530  1.00  0.00     0.001 C 
HETATM    3  C11 UNL     1      22.990   1.953  52.857  1.00  0.00     0.017 C 
HETATM    4  C12 UNL     1      22.340   0.704  53.184  1.00  0.00     0.116 C 
HETATM    5  N3  UNL     1      22.548  -0.641  53.256  1.00  0.00    -0.271 NA
HETATM    6  C13 UNL     1      23.924  -0.883  52.874  1.00  0.00     0.142 C 
HETATM    7  C14 UNL     1      24.959  -0.201  53.297  1.00  0.00     0.044 C 
HETATM    8  C15 UNL     1      25.872   0.709  53.924  1.00  0.00     0.177 C 
HETATM    9  N4  UNL     1      26.484   1.564  52.871  1.00  0.00    -0.387 N 
HETATM   10  C16 UNL     1      27.882   1.930  53.295  1.00  0.00     0.194 A 
HETATM   11  C17 UNL     1      28.404   0.680  53.338  1.00  0.00     0.140 A 
HETATM   12 CL1  UNL     1      29.499   2.035  53.754  1.00  0.00    -0.172 Cl
HETATM   13  C18 UNL     1      29.609  -0.128  53.599  1.00  0.00     0.122 C 
HETATM   14  F1  UNL     1      30.950  -0.135  53.959  1.00  0.00    -0.209 F 
HETATM   15  C19 UNL     1      29.098  -1.362  53.380  1.00  0.00     0.041 C 
HETATM   16  C20 UNL     1      28.078  -2.323  53.044  1.00  0.00     0.020 C 
HETATM   17  C21 UNL     1      26.832  -1.994  52.706  1.00  0.00     0.088 C 
HETATM   18  N5  UNL     1      25.888  -0.965  52.483  1.00  0.00    -0.367 N 
HETATM   19  C22 UNL     1      25.916   2.182  51.618  1.00  0.00     0.147 C 
HETATM   20  H23 UNL     1      25.936  -0.764  51.419  1.00  0.00     0.165 HD
ENDROOT
BRANCH   1  21
HETATM   21  N2  UNL     1      24.927   4.326  50.950  1.00  0.00    -0.348 N 
HETATM   22  C8  UNL     1      24.396   4.362  49.668  1.00  0.00     0.241 C 
HETATM   23  O2  UNL     1      23.753   3.517  49.051  1.00  0.00    -0.269 OA
HETATM   24  H11 UNL     1      25.464   5.121  51.385  1.00  0.00     0.163 HD
BRANCH  22  25
HETATM   25  C7  UNL     1      24.674   5.609  48.992  1.00  0.00     0.072 C 
BRANCH  25  26
HETATM   26  C6  UNL     1      25.573   6.544  48.780  1.00  0.00     0.020 C 
BRANCH  26  27
HETATM   27  C5  UNL     1      26.637   7.537  48.537  1.00  0.00     0.299 C 
HETATM   28  C2  UNL     1      26.019   8.787  47.943  1.00  0.00     0.073 C 
HETATM   29  C1  UNL     1      25.018   8.566  47.147  1.00  0.00     0.048 C 
HETATM   30  O1  UNL     1      26.423  10.128  48.189  1.00  0.00    -0.352 OA
HETATM   31  C3  UNL     1      27.628  10.187  48.973  1.00  0.00     0.205 C 
HETATM   32  C4  UNL     1      27.324   9.226  50.121  1.00  0.00     0.297 C 
HETATM   33  N1  UNL     1      27.397   7.866  49.699  1.00  0.00     0.100 N 
HETATM   34  H7  UNL     1      27.056   7.263  50.521  1.00  0.00     0.317 HD
ENDBRANCH  26  27
ENDBRANCH  25  26
ENDBRANCH  22  25
ENDBRANCH   1  21
TORSDOF 4
ENDMDL
MODEL 2
REMARK VINA RESULT:      -9.0      4.657      8.383
REMARK  4 active torsions:
REMARK  status: ('A' for Active; 'I' for Inactive)
REMARK    1  A    between atoms: C5_7  and  C6_8 
REMARK    2  A    between atoms: C6_8  and  C7_9 
REMARK    3  A    between atoms: C7_9  and  C8_10 
REMARK       I    between atoms: C8_10  and  N2_12 
REMARK    4  A    between atoms: N2_12  and  C9_13 
ROOT
HETATM    1  C9  UNL     1      23.119   3.167  52.294  1.00  0.00     0.125 C 
HETATM    2  C10 UNL     1      22.909   4.587  52.069  1.00  0.00     0.001 C 
HETATM    3  C11 UNL     1      22.102   5.393  51.423  1.00  0.00     0.017 C 
HETATM    4  C12 UNL     1      21.139   6.153  50.659  1.00  0.00     0.116 C 
HETATM    5  N3  UNL     1      20.043   6.022  49.858  1.00  0.00    -0.271 NA
HETATM    6  C13 UNL     1      19.752   4.607  49.756  1.00  0.00     0.142 C 
HETATM    7  C14 UNL     1      19.733   3.764  50.759  1.00  0.00     0.044 C 
HETATM    8  C15 UNL     1      19.786   3.100  52.027  1.00  0.00     0.177 C 
HETATM    9  N4  UNL     1      20.918   2.135  52.008  1.00  0.00    -0.387 N 
HETATM   10  C16 UNL     1      20.572   0.962  52.887  1.00  0.00     0.194 A 
HETATM   11  C17 UNL     1      19.486   0.525  52.204  1.00  0.00     0.140 A 
HETATM   12 CL1  UNL     1      19.954  -0.397  53.667  1.00  0.00    -0.172 Cl
HETATM   13  C18 UNL     1      18.419  -0.490  52.133  1.00  0.00     0.122 C 
HETATM   14  F1  UNL     1      17.849  -1.622  52.703  1.00  0.00    -0.209 F 
HETATM   15  C19 UNL     1      17.769  -0.052  51.030  1.00  0.00     0.041 C 
HETATM   16  C20 UNL     1      17.524   0.816  49.906  1.00  0.00     0.020 C 
HETATM   17  C21 UNL     1      18.295   1.856  49.591  1.00  0.00     0.088 C 
HETATM   18  N5  UNL     1      19.437   2.633  49.897  1.00  0.00    -0.367 N 
HETATM   19  C22 UNL     1      22.299   2.213  51.406  1.00  0.00     0.147 C 
HETATM   20  H23 UNL     1      20.233   2.213  49.296  1.00  0.00     0.165 HD
ENDROOT
BRANCH   1  21
HETATM   21  N2  UNL     1      24.555   2.845  52.138  1.00  0.00    -0.348 N 
HETATM   22  C8  UNL     1      25.528   2.955  51.155  1.00  0.00     0.241 C 
HETATM   23  O2  UNL     1      25.468   3.445  50.030  1.00  0.00    -0.269 OA
HETATM   24  H11 UNL     1      24.721   2.405  53.081  1.00  0.00     0.163 HD
BRANCH  22  25
HETATM   25  C7  UNL     1      26.792   2.386  51.564  1.00  0.00     0.072 C 
BRANCH  25  26
HETATM   26  C6  UNL     1      27.402   1.652  52.469  1.00  0.00     0.020 C 
BRANCH  26  27
HETATM   27  C5  UNL     1      28.030   0.774  53.473  1.00  0.00     0.299 C 
HETATM   28  C2  UNL     1      27.749  -0.671  53.112  1.00  0.00     0.073 C 
HETATM   29  C1  UNL     1      26.583  -0.874  52.578  1.00  0.00     0.048 C 
HETATM   30  O1  UNL     1      28.627  -1.774  53.292  1.00  0.00    -0.352 OA
HETATM   31  C3  UNL     1      29.809  -1.402  54.024  1.00  0.00     0.205 C 
HETATM   32  C4  UNL     1      30.261  -0.134  53.298  1.00  0.00     0.297 C 
HETATM   33  N1  UNL     1      29.434   0.980  53.625  1.00  0.00     0.100 N 
HETATM   34  H7  UNL     1      29.737   1.793  52.991  1.00  0.00     0.317 HD
ENDBRANCH  26  27
ENDBRANCH  25  26
ENDBRANCH  22  25
ENDBRANCH   1  21
TORSDOF 4
ENDMDL
MODEL 3
REMARK VINA RESULT:      -8.9      4.710      9.185
REMARK  4 active torsions:
REMARK  status: ('A' for Active; 'I' for Inactive)
REMARK    1  A    between atoms: C5_7  and  C6_8 
REMARK    2  A    between atoms: C6_8  and  C7_9 
REMARK    3  A    between atoms: C7_9  and  C8_10 
REMARK       I    between atoms: C8_10  and  N2_12 
REMARK    4  A    between atoms: N2_12  and  C9_13 
ROOT
HETATM    1  C9  UNL     1      28.390   5.315  48.329  1.00  0.00     0.125 C 
HETATM    2  C10 UNL     1      27.682   6.584  48.300  1.00  0.00     0.001 C 
HETATM    3  C11 UNL     1      27.913   7.867  48.439  1.00  0.00     0.017 C 
HETATM    4  C12 UNL     1      28.319   9.243  48.618  1.00  0.00     0.116 C 
HETATM    5  N3  UNL     1      29.405  10.031  48.857  1.00  0.00    -0.271 NA
HETATM    6  C13 UNL     1      30.557   9.158  48.954  1.00  0.00     0.142 C 
HETATM    7  C14 UNL     1      30.833   8.175  48.134  1.00  0.00     0.044 C 
HETATM    8  C15 UNL     1      30.866   7.192  47.092  1.00  0.00     0.177 C 
HETATM    9  N4  UNL     1      30.696   5.847  47.705  1.00  0.00    -0.387 N 
HETATM   10  C16 UNL     1      31.452   4.838  46.882  1.00  0.00     0.194 A 
HETATM   11  C17 UNL     1      32.697   5.348  47.049  1.00  0.00     0.140 A 
HETATM   12 CL1  UNL     1      32.549   3.873  46.044  1.00  0.00    -0.172 Cl
HETATM   13  C18 UNL     1      34.129   5.193  46.735  1.00  0.00     0.122 C 
HETATM   14  F1  UNL     1      35.104   4.447  46.084  1.00  0.00    -0.209 F 
HETATM   15  C19 UNL     1      34.617   6.274  47.387  1.00  0.00     0.041 C 
HETATM   16  C20 UNL     1      34.546   7.464  48.195  1.00  0.00     0.020 C 
HETATM   17  C21 UNL     1      33.416   7.939  48.718  1.00  0.00     0.088 C 
HETATM   18  N5  UNL     1      32.018   7.790  48.878  1.00  0.00    -0.367 N 
HETATM   19  C22 UNL     1      29.839   5.362  48.847  1.00  0.00     0.147 C 
HETATM   20  H23 UNL     1      31.898   7.248  49.808  1.00  0.00     0.165 HD
ENDROOT
BRANCH   1  21
HETATM   21  N2  UNL     1      27.627   4.339  49.138  1.00  0.00    -0.348 N 
HETATM   22  C8  UNL     1      26.319   4.165  49.570  1.00  0.00     0.241 C 
HETATM   23  O2  UNL     1      25.312   4.828  49.336  1.00  0.00    -0.269 OA
HETATM   24  H11 UNL     1      28.421   3.698  49.400  1.00  0.00     0.163 HD
BRANCH  22  25
HETATM   25  C7  UNL     1      26.171   3.013  50.430  1.00  0.00     0.072 C 
BRANCH  25  26
HETATM   26  C6  UNL     1      26.415   2.520  51.624  1.00  0.00     0.020 C 
BRANCH  26  27
HETATM   27  C5  UNL     1      26.765   1.971  52.948  1.00  0.00     0.299 C 
HETATM   28  C2  UNL     1      27.217   0.534  52.783  1.00  0.00     0.073 C 
HETATM   29  C1  UNL     1      26.595  -0.122  51.851  1.00  0.00     0.048 C 
HETATM   30  O1  UNL     1      28.235  -0.122  53.527  1.00  0.00    -0.352 OA
HETATM   31  C3  UNL     1      28.719   0.696  54.607  1.00  0.00     0.205 C 
HETATM   32  C4  UNL     1      28.975   2.036  53.918  1.00  0.00     0.297 C 
HETATM   33  N1  UNL     1      27.758   2.724  53.642  1.00  0.00     0.100 N 
HETATM   34  H7  UNL     1      28.012   3.589  53.056  1.00  0.00     0.317 HD
ENDBRANCH  26  27
ENDBRANCH  25  26
ENDBRANCH  22  25
ENDBRANCH   1  21
TORSDOF 4
ENDMDL
MODEL 4
REMARK VINA RESULT:      -8.9      3.469      8.126
REMARK  4 active torsions:
REMARK  status: ('A' for Active; 'I' for Inactive)
REMARK    1  A    between atoms: C5_7  and  C6_8 
REMARK    2  A    between atoms: C6_8  and  C7_9 
REMARK    3  A    between atoms: C7_9  and  C8_10 
REMARK       I    between atoms: C8_10  and  N2_12 
REMARK    4  A    between atoms: N2_12  and  C9_13 
ROOT
HETATM    1  C9  UNL     1      23.685   2.505  50.630  1.00  0.00     0.125 C 
HETATM    2  C10 UNL     1      22.260   2.564  50.355  1.00  0.00     0.001 C 
HETATM    3  C11 UNL     1      21.300   3.445  50.204  1.00  0.00     0.017 C 
HETATM    4  C12 UNL     1      20.352   4.526  50.063  1.00  0.00     0.116 C 
HETATM    5  N3  UNL     1      20.246   5.885  50.081  1.00  0.00    -0.271 NA
HETATM    6  C13 UNL     1      21.573   6.416  50.318  1.00  0.00     0.142 C 
HETATM    7  C14 UNL     1      22.667   6.015  49.720  1.00  0.00     0.044 C 
HETATM    8  C15 UNL     1      23.666   5.377  48.915  1.00  0.00     0.177 C 
HETATM    9  N4  UNL     1      24.587   4.628  49.813  1.00  0.00    -0.387 N 
HETATM   10  C16 UNL     1      25.962   4.617  49.197  1.00  0.00     0.194 A 
HETATM   11  C17 UNL     1      26.184   5.955  49.200  1.00  0.00     0.140 A 
HETATM   12 CL1  UNL     1      27.487   4.913  48.544  1.00  0.00    -0.172 Cl
HETATM   13  C18 UNL     1      27.134   7.032  48.869  1.00  0.00     0.122 C 
HETATM   14  F1  UNL     1      28.381   7.368  48.355  1.00  0.00    -0.209 F 
HETATM   15  C19 UNL     1      26.398   8.101  49.250  1.00  0.00     0.041 C 
HETATM   16  C20 UNL     1      25.245   8.781  49.783  1.00  0.00     0.020 C 
HETATM   17  C21 UNL     1      24.159   8.155  50.236  1.00  0.00     0.088 C 
HETATM   18  N5  UNL     1      23.504   6.925  50.481  1.00  0.00    -0.367 N 
HETATM   19  C22 UNL     1      24.343   3.827  51.067  1.00  0.00     0.147 C 
HETATM   20  H23 UNL     1      23.737   6.682  51.511  1.00  0.00     0.165 HD
ENDROOT
BRANCH   1  21
HETATM   21  N2  UNL     1      23.951   1.478  51.662  1.00  0.00    -0.348 N 
HETATM   22  C8  UNL     1      23.266   0.874  52.708  1.00  0.00     0.241 C 
HETATM   23  O2  UNL     1      22.103   1.012  53.078  1.00  0.00    -0.269 OA
HETATM   24  H11 UNL     1      24.959   1.279  51.429  1.00  0.00     0.163 HD
BRANCH  22  25
HETATM   25  C7  UNL     1      24.095  -0.049  53.448  1.00  0.00     0.072 C 
BRANCH  25  26
HETATM   26  C6  UNL     1      25.296  -0.269  53.936  1.00  0.00     0.020 C 
BRANCH  26  27
HETATM   27  C5  UNL     1      26.672  -0.504  54.410  1.00  0.00     0.299 C 
HETATM   28  C2  UNL     1      27.486  -1.111  53.285  1.00  0.00     0.073 C 
HETATM   29  C1  UNL     1      26.821  -1.917  52.515  1.00  0.00     0.048 C 
HETATM   30  O1  UNL     1      28.859  -0.867  53.008  1.00  0.00    -0.352 OA
HETATM   31  C3  UNL     1      29.477  -0.070  54.034  1.00  0.00     0.205 C 
HETATM   32  C4  UNL     1      28.484   1.080  54.203  1.00  0.00     0.297 C 
HETATM   33  N1  UNL     1      27.319   0.665  54.912  1.00  0.00     0.100 N 
HETATM   34  H7  UNL     1      26.625   1.485  54.884  1.00  0.00     0.317 HD
ENDBRANCH  26  27
ENDBRANCH  25  26
ENDBRANCH  22  25
ENDBRANCH   1  21
TORSDOF 4
ENDMDL
MODEL 5
REMARK VINA RESULT:      -8.7      3.371      8.608
REMARK  4 active torsions:
REMARK  status: ('A' for Active; 'I' for Inactive)
REMARK    1  A    between atoms: C5_7  and  C6_8 
REMARK    2  A    between atoms: C6_8  and  C7_9 
REMARK    3  A    between atoms: C7_9  and  C8_10 
REMARK       I    between atoms: C8_10  and  N2_12 
REMARK    4  A    between atoms: N2_12  and  C9_13 
ROOT
HETATM    1  C9  UNL     1      24.760   4.545  49.475  1.00  0.00     0.125 C 
HETATM    2  C10 UNL     1      23.440   4.921  48.998  1.00  0.00     0.001 C 
HETATM    3  C11 UNL     1      22.745   5.993  48.705  1.00  0.00     0.017 C 
HETATM    4  C12 UNL     1      22.107   7.259  48.424  1.00  0.00     0.116 C 
HETATM    5  N3  UNL     1      22.322   8.605  48.418  1.00  0.00    -0.271 NA
HETATM    6  C13 UNL     1      23.690   8.823  48.839  1.00  0.00     0.142 C 
HETATM    7  C14 UNL     1      24.731   8.156  48.407  1.00  0.00     0.044 C 
HETATM    8  C15 UNL     1      25.653   7.272  47.758  1.00  0.00     0.177 C 
HETATM    9  N4  UNL     1      26.240   6.366  48.783  1.00  0.00    -0.387 N 
HETATM   10  C16 UNL     1      27.645   6.013  48.371  1.00  0.00     0.194 A 
HETATM   11  C17 UNL     1      28.173   7.262  48.397  1.00  0.00     0.140 A 
HETATM   12 CL1  UNL     1      29.272   5.922  47.942  1.00  0.00    -0.172 Cl
HETATM   13  C18 UNL     1      29.386   8.076  48.199  1.00  0.00     0.122 C 
HETATM   14  F1  UNL     1      30.735   8.093  47.868  1.00  0.00    -0.209 F 
HETATM   15  C19 UNL     1      28.876   9.301  48.465  1.00  0.00     0.041 C 
HETATM   16  C20 UNL     1      27.853  10.249  48.823  1.00  0.00     0.020 C 
HETATM   17  C21 UNL     1      26.598   9.911  49.119  1.00  0.00     0.088 C 
HETATM   18  N5  UNL     1      25.645   8.877  49.275  1.00  0.00    -0.367 N 
HETATM   19  C22 UNL     1      25.644   5.694  49.993  1.00  0.00     0.147 C 
HETATM   20  H23 UNL     1      25.670   8.627  50.329  1.00  0.00     0.165 HD
ENDROOT
BRANCH   1  21
HETATM   21  N2  UNL     1      24.632   3.526  50.541  1.00  0.00    -0.348 N 
HETATM   22  C8  UNL     1      23.838   2.420  50.812  1.00  0.00     0.241 C 
HETATM   23  O2  UNL     1      22.949   1.900  50.143  1.00  0.00    -0.269 OA
HETATM   24  H11 UNL     1      25.378   3.886  51.192  1.00  0.00     0.163 HD
BRANCH  22  25
HETATM   25  C7  UNL     1      24.139   1.826  52.094  1.00  0.00     0.072 C 
BRANCH  25  26
HETATM   26  C6  UNL     1      25.048   1.695  53.035  1.00  0.00     0.020 C 
BRANCH  26  27
HETATM   27  C5  UNL     1      26.104   1.610  54.062  1.00  0.00     0.299 C 
HETATM   28  C2  UNL     1      26.456   0.154  54.289  1.00  0.00     0.073 C 
HETATM   29  C1  UNL     1      25.452  -0.663  54.192  1.00  0.00     0.048 C 
HETATM   30  O1  UNL     1      27.746  -0.369  54.576  1.00  0.00    -0.352 OA
HETATM   31  C3  UNL     1      28.710   0.677  54.791  1.00  0.00     0.205 C 
HETATM   32  C4  UNL     1      28.473   1.597  53.594  1.00  0.00     0.297 C 
HETATM   33  N1  UNL     1      27.277   2.358  53.747  1.00  0.00     0.100 N 
HETATM   34  H7  UNL     1      27.118   2.883  52.823  1.00  0.00     0.317 HD
ENDBRANCH  26  27
ENDBRANCH  25  26
ENDBRANCH  22  25
ENDBRANCH   1  21
TORSDOF 4
ENDMDL
MODEL 6
REMARK VINA RESULT:      -8.6      6.589      9.731
REMARK  4 active torsions:
REMARK  status: ('A' for Active; 'I' for Inactive)
REMARK    1  A    between atoms: C5_7  and  C6_8 
REMARK    2  A    between atoms: C6_8  and  C7_9 
REMARK    3  A    between atoms: C7_9  and  C8_10 
REMARK       I    between atoms: C8_10  and  N2_12 
REMARK    4  A    between atoms: N2_12  and  C9_13 
ROOT
HETATM    1  C9  UNL     1      18.609   1.724  51.157  1.00  0.00     0.125 C 
HETATM    2  C10 UNL     1      18.841   1.920  49.737  1.00  0.00     0.001 C 
HETATM    3  C11 UNL     1      19.830   2.106  48.896  1.00  0.00     0.017 C 
HETATM    4  C12 UNL     1      21.016   2.304  48.094  1.00  0.00     0.116 C 
HETATM    5  N3  UNL     1      22.374   2.389  48.170  1.00  0.00    -0.271 NA
HETATM    6  C13 UNL     1      22.740   2.203  49.559  1.00  0.00     0.142 C 
HETATM    7  C14 UNL     1      22.260   1.277  50.351  1.00  0.00     0.044 C 
HETATM    8  C15 UNL     1      21.569   0.179  50.958  1.00  0.00     0.177 C 
HETATM    9  N4  UNL     1      20.667   0.715  52.014  1.00  0.00    -0.387 N 
HETATM   10  C16 UNL     1      20.545  -0.308  53.113  1.00  0.00     0.194 A 
HETATM   11  C17 UNL     1      21.847  -0.342  53.489  1.00  0.00     0.140 A 
HETATM   12 CL1  UNL     1      20.713  -1.406  54.379  1.00  0.00    -0.172 Cl
HETATM   13  C18 UNL     1      22.832  -0.932  54.413  1.00  0.00     0.122 C 
HETATM   14  F1  UNL     1      23.061  -1.809  55.467  1.00  0.00    -0.209 F 
HETATM   15  C19 UNL     1      23.949  -0.308  53.973  1.00  0.00     0.041 C 
HETATM   16  C20 UNL     1      24.716   0.583  53.141  1.00  0.00     0.020 C 
HETATM   17  C21 UNL     1      24.186   1.344  52.183  1.00  0.00     0.088 C 
HETATM   18  N5  UNL     1      23.022   1.753  51.491  1.00  0.00    -0.367 N 
HETATM   19  C22 UNL     1      19.819   1.960  52.079  1.00  0.00     0.147 C 
HETATM   20  H23 UNL     1      22.690   2.648  52.004  1.00  0.00     0.165 HD
ENDROOT
BRANCH   1  21
HETATM   21  N2  UNL     1      17.495   2.589  51.604  1.00  0.00    -0.348 N 
HETATM   22  C8  UNL     1      17.088   3.906  51.435  1.00  0.00     0.241 C 
HETATM   23  O2  UNL     1      17.575   4.804  50.753  1.00  0.00    -0.269 OA
HETATM   24  H11 UNL     1      16.993   1.895  52.218  1.00  0.00     0.163 HD
BRANCH  22  25
HETATM   25  C7  UNL     1      15.906   4.220  52.203  1.00  0.00     0.072 C 
BRANCH  25  26
HETATM   26  C6  UNL     1      14.672   3.860  52.481  1.00  0.00     0.020 C 
BRANCH  26  27
HETATM   27  C5  UNL     1      13.272   3.461  52.716  1.00  0.00     0.299 C 
HETATM   28  C2  UNL     1      13.251   2.107  53.396  1.00  0.00     0.073 C 
HETATM   29  C1  UNL     1      14.197   1.301  53.018  1.00  0.00     0.048 C 
HETATM   30  O1  UNL     1      12.326   1.670  54.383  1.00  0.00    -0.352 OA
HETATM   31  C3  UNL     1      11.266   2.623  54.579  1.00  0.00     0.205 C 
HETATM   32  C4  UNL     1      12.028   3.939  54.730  1.00  0.00     0.297 C 
HETATM   33  N1  UNL     1      12.520   4.406  53.476  1.00  0.00     0.100 N 
HETATM   34  H7  UNL     1      13.140   5.260  53.680  1.00  0.00     0.317 HD
ENDBRANCH  26  27
ENDBRANCH  25  26
ENDBRANCH  22  25
ENDBRANCH   1  21
TORSDOF 4
ENDMDL
MODEL 7
REMARK VINA RESULT:      -8.6      3.203      4.659
REMARK  4 active torsions:
REMARK  status: ('A' for Active; 'I' for Inactive)
REMARK    1  A    between atoms: C5_7  and  C6_8 
REMARK    2  A    between atoms: C6_8  and  C7_9 
REMARK    3  A    between atoms: C7_9  and  C8_10 
REMARK       I    between atoms: C8_10  and  N2_12 
REMARK    4  A    between atoms: N2_12  and  C9_13 
ROOT
HETATM    1  C9  UNL     1      24.792   2.841  51.420  1.00  0.00     0.125 C 
HETATM    2  C10 UNL     1      26.178   2.421  51.307  1.00  0.00     0.001 C 
HETATM    3  C11 UNL     1      27.033   1.611  51.884  1.00  0.00     0.017 C 
HETATM    4  C12 UNL     1      27.858   0.679  52.618  1.00  0.00     0.116 C 
HETATM    5  N3  UNL     1      27.834  -0.213  53.648  1.00  0.00    -0.271 NA
HETATM    6  C13 UNL     1      26.486  -0.220  54.179  1.00  0.00     0.142 C 
HETATM    7  C14 UNL     1      25.390  -0.266  53.462  1.00  0.00     0.044 C 
HETATM    8  C15 UNL     1      24.396  -0.322  52.432  1.00  0.00     0.177 C 
HETATM    9  N4  UNL     1      23.627   0.952  52.450  1.00  0.00    -0.387 N 
HETATM   10  C16 UNL     1      22.214   0.672  52.009  1.00  0.00     0.194 A 
HETATM   11  C17 UNL     1      21.865  -0.176  53.007  1.00  0.00     0.140 A 
HETATM   12 CL1  UNL     1      20.620   0.181  51.769  1.00  0.00    -0.172 Cl
HETATM   13  C18 UNL     1      20.792  -1.012  53.576  1.00  0.00     0.122 C 
HETATM   14  F1  UNL     1      19.482  -1.459  53.464  1.00  0.00    -0.209 F 
HETATM   15  C19 UNL     1      21.451  -1.521  54.643  1.00  0.00     0.041 C 
HETATM   16  C20 UNL     1      22.573  -1.714  55.526  1.00  0.00     0.020 C 
HETATM   17  C21 UNL     1      23.747  -1.100  55.378  1.00  0.00     0.088 C 
HETATM   18  N5  UNL     1      24.535  -0.193  54.632  1.00  0.00    -0.367 N 
HETATM   19  C22 UNL     1      24.047   2.380  52.686  1.00  0.00     0.147 C 
HETATM   20  H23 UNL     1      24.410   0.762  55.129  1.00  0.00     0.165 HD
ENDROOT
BRANCH   1  21
HETATM   21  N2  UNL     1      24.710   4.316  51.330  1.00  0.00    -0.348 N 
HETATM   22  C8  UNL     1      23.750   5.302  51.511  1.00  0.00     0.241 C 
HETATM   23  O2  UNL     1      22.582   5.213  51.879  1.00  0.00    -0.269 OA
HETATM   24  H11 UNL     1      25.696   4.509  51.012  1.00  0.00     0.163 HD
BRANCH  22  25
HETATM   25  C7  UNL     1      24.251   6.621  51.201  1.00  0.00     0.072 C 
BRANCH  25  26
HETATM   26  C6  UNL     1      25.213   7.301  50.617  1.00  0.00     0.020 C 
BRANCH  26  27
HETATM   27  C5  UNL     1      26.338   8.051  50.026  1.00  0.00     0.299 C 
HETATM   28  C2  UNL     1      26.762   7.372  48.740  1.00  0.00     0.073 C 
HETATM   29  C1  UNL     1      26.664   6.078  48.757  1.00  0.00     0.048 C 
HETATM   30  O1  UNL     1      27.227   8.013  47.559  1.00  0.00    -0.352 OA
HETATM   31  C3  UNL     1      27.412   9.426  47.756  1.00  0.00     0.205 C 
HETATM   32  C4  UNL     1      26.100   9.841  48.423  1.00  0.00     0.297 C 
HETATM   33  N1  UNL     1      26.052   9.428  49.786  1.00  0.00     0.100 N 
HETATM   34  H7  UNL     1      25.063   9.646  50.146  1.00  0.00     0.317 HD
ENDBRANCH  26  27
ENDBRANCH  25  26
ENDBRANCH  22  25
ENDBRANCH   1  21
TORSDOF 4
ENDMDL
MODEL 8
REMARK VINA RESULT:      -8.6      4.373      6.253
REMARK  4 active torsions:
REMARK  status: ('A' for Active; 'I' for Inactive)
REMARK    1  A    between atoms: C5_7  and  C6_8 
REMARK    2  A    between atoms: C6_8  and  C7_9 
REMARK    3  A    between atoms: C7_9  and  C8_10 
REMARK       I    between atoms: C8_10  and  N2_12 
REMARK    4  A    between atoms: N2_12  and  C9_13 
ROOT
HETATM    1  C9  UNL     1      25.797   4.917  49.568  1.00  0.00     0.125 C 
HETATM    2  C10 UNL     1      24.983   5.867  48.830  1.00  0.00     0.001 C 
HETATM    3  C11 UNL     1      23.809   5.948  48.250  1.00  0.00     0.017 C 
HETATM    4  C12 UNL     1      22.493   5.888  47.656  1.00  0.00     0.116 C 
HETATM    5  N3  UNL     1      21.418   5.068  47.481  1.00  0.00    -0.271 NA
HETATM    6  C13 UNL     1      21.721   3.816  48.143  1.00  0.00     0.142 C 
HETATM    7  C14 UNL     1      22.241   3.698  49.340  1.00  0.00     0.044 C 
HETATM    8  C15 UNL     1      22.801   3.889  50.644  1.00  0.00     0.177 C 
HETATM    9  N4  UNL     1      24.204   3.393  50.632  1.00  0.00    -0.387 N 
HETATM   10  C16 UNL     1      24.544   2.863  52.000  1.00  0.00     0.194 A 
HETATM   11  C17 UNL     1      23.626   1.867  52.054  1.00  0.00     0.140 A 
HETATM   12 CL1  UNL     1      24.700   2.063  53.475  1.00  0.00    -0.172 Cl
HETATM   13  C18 UNL     1      23.079   0.758  52.856  1.00  0.00     0.122 C 
HETATM   14  F1  UNL     1      23.144   0.034  54.040  1.00  0.00    -0.209 F 
HETATM   15  C19 UNL     1      22.110   0.332  52.012  1.00  0.00     0.041 C 
HETATM   16  C20 UNL     1      21.322   0.336  50.806  1.00  0.00     0.020 C 
HETATM   17  C21 UNL     1      21.522   1.178  49.793  1.00  0.00     0.088 C 
HETATM   18  N5  UNL     1      22.278   2.249  49.261  1.00  0.00    -0.367 N 
HETATM   19  C22 UNL     1      25.289   3.463  49.587  1.00  0.00     0.147 C 
HETATM   20  H23 UNL     1      23.047   1.779  48.661  1.00  0.00     0.165 HD
ENDROOT
BRANCH   1  21
HETATM   21  N2  UNL     1      27.179   4.931  49.042  1.00  0.00    -0.348 N 
HETATM   22  C8  UNL     1      28.043   5.844  48.453  1.00  0.00     0.241 C 
HETATM   23  O2  UNL     1      27.892   7.041  48.220  1.00  0.00    -0.269 OA
HETATM   24  H11 UNL     1      27.417   3.916  49.198  1.00  0.00     0.163 HD
BRANCH  22  25
HETATM   25  C7  UNL     1      29.300   5.245  48.067  1.00  0.00     0.072 C 
BRANCH  25  26
HETATM   26  C6  UNL     1      30.570   5.471  47.815  1.00  0.00     0.020 C 
BRANCH  26  27
HETATM   27  C5  UNL     1      31.977   5.726  47.455  1.00  0.00     0.299 C 
HETATM   28  C2  UNL     1      32.716   6.232  48.677  1.00  0.00     0.073 C 
HETATM   29  C1  UNL     1      32.005   6.983  49.462  1.00  0.00     0.048 C 
HETATM   30  O1  UNL     1      34.065   5.952  49.026  1.00  0.00    -0.352 OA
HETATM   31  C3  UNL     1      34.747   5.231  47.984  1.00  0.00     0.205 C 
HETATM   32  C4  UNL     1      33.760   4.110  47.657  1.00  0.00     0.297 C 
HETATM   33  N1  UNL     1      32.649   4.593  46.907  1.00  0.00     0.100 N 
HETATM   34  H7  UNL     1      31.950   3.782  46.822  1.00  0.00     0.317 HD
ENDBRANCH  26  27
ENDBRANCH  25  26
ENDBRANCH  22  25
ENDBRANCH   1  21
TORSDOF 4
ENDMDL
MODEL 9
REMARK VINA RESULT:      -8.5      3.724      5.491
REMARK  4 active torsions:
REMARK  status: ('A' for Active; 'I' for Inactive)
REMARK    1  A    between atoms: C5_7  and  C6_8 
REMARK    2  A    between atoms: C6_8  and  C7_9 
REMARK    3  A    between atoms: C7_9  and  C8_10 
REMARK       I    between atoms: C8_10  and  N2_12 
REMARK    4  A    between atoms: N2_12  and  C9_13 
ROOT
HETATM    1  C9  UNL     1      24.889   5.495  50.546  1.00  0.00     0.125 C 
HETATM    2  C10 UNL     1      23.911   6.568  50.482  1.00  0.00     0.001 C 
HETATM    3  C11 UNL     1      22.616   6.743  50.380  1.00  0.00     0.017 C 
HETATM    4  C12 UNL     1      21.176   6.779  50.263  1.00  0.00     0.116 C 
HETATM    5  N3  UNL     1      20.074   5.980  50.180  1.00  0.00    -0.271 NA
HETATM    6  C13 UNL     1      20.533   4.608  50.240  1.00  0.00     0.142 C 
HETATM    7  C14 UNL     1      21.417   4.141  51.087  1.00  0.00     0.044 C 
HETATM    8  C15 UNL     1      22.386   3.931  52.120  1.00  0.00     0.177 C 
HETATM    9  N4  UNL     1      23.686   3.582  51.484  1.00  0.00    -0.387 N 
HETATM   10  C16 UNL     1      24.442   2.656  52.401  1.00  0.00     0.194 A 
HETATM   11  C17 UNL     1      23.557   1.629  52.409  1.00  0.00     0.140 A 
HETATM   12 CL1  UNL     1      25.050   1.427  53.380  1.00  0.00    -0.172 Cl
HETATM   13  C18 UNL     1      23.267   0.276  52.917  1.00  0.00     0.122 C 
HETATM   14  F1  UNL     1      23.696  -0.792  53.695  1.00  0.00    -0.209 F 
HETATM   15  C19 UNL     1      22.058   0.079  52.343  1.00  0.00     0.041 C 
HETATM   16  C20 UNL     1      20.914   0.421  51.536  1.00  0.00     0.020 C 
HETATM   17  C21 UNL     1      20.796   1.565  50.864  1.00  0.00     0.088 C 
HETATM   18  N5  UNL     1      21.371   2.808  50.512  1.00  0.00    -0.367 N 
HETATM   19  C22 UNL     1      24.362   4.083  50.233  1.00  0.00     0.147 C 
HETATM   20  H23 UNL     1      21.879   2.628  49.573  1.00  0.00     0.165 HD
ENDROOT
BRANCH   1  21
HETATM   21  N2  UNL     1      26.017   5.795  49.636  1.00  0.00    -0.348 N 
HETATM   22  C8  UNL     1      27.060   5.104  49.036  1.00  0.00     0.241 C 
HETATM   23  O2  UNL     1      27.340   3.908  49.064  1.00  0.00    -0.269 OA
HETATM   24  H11 UNL     1      25.869   6.833  49.539  1.00  0.00     0.163 HD
BRANCH  22  25
HETATM   25  C7  UNL     1      27.928   5.971  48.272  1.00  0.00     0.072 C 
BRANCH  25  26
HETATM   26  C6  UNL     1      29.176   6.261  47.978  1.00  0.00     0.020 C 
BRANCH  26  27
HETATM   27  C5  UNL     1      30.598   6.518  47.681  1.00  0.00     0.299 C 
HETATM   28  C2  UNL     1      31.123   7.560  48.648  1.00  0.00     0.073 C 
HETATM   29  C1  UNL     1      30.259   8.471  48.978  1.00  0.00     0.048 C 
HETATM   30  O1  UNL     1      32.428   7.610  49.210  1.00  0.00    -0.352 OA
HETATM   31  C3  UNL     1      33.296   6.619  48.633  1.00  0.00     0.205 C 
HETATM   32  C4  UNL     1      32.446   5.351  48.708  1.00  0.00     0.297 C 
HETATM   33  N1  UNL     1      31.417   5.351  47.721  1.00  0.00     0.100 N 
HETATM   34  H7  UNL     1      30.796   4.495  47.914  1.00  0.00     0.317 HD
ENDBRANCH  26  27
ENDBRANCH  25  26
ENDBRANCH  22  25
ENDBRANCH   1  21
TORSDOF 4
ENDMDL
