MODEL 1
REMARK VINA RESULT:      -8.1      0.000      0.000
REMARK  0 active torsions:
REMARK  status: ('A' for Active; 'I' for Inactive)
ROOT
HETATM    1  C1  UNL     1      23.284  -0.195  53.821  1.00  0.00     0.048 C 
HETATM    2  C2  UNL     1      23.524   0.894  52.869  1.00  0.00    -0.029 C 
HETATM    3  C3  UNL     1      22.524   0.778  52.071  1.00  0.00     0.007 C 
HETATM    4  C4  UNL     1      21.330   0.279  51.512  1.00  0.00    -0.002 C 
HETATM    5  C5  UNL     1      20.580   0.558  50.514  1.00  0.00    -0.005 C 
HETATM    6  C6  UNL     1      20.264   1.358  49.346  1.00  0.00     0.180 C 
HETATM    7  N1  UNL     1      21.215   2.402  49.019  1.00  0.00    -0.248 N 
HETATM    8  N2  UNL     1      22.329   2.160  48.323  1.00  0.00    -0.182 NA
HETATM    9  C7  UNL     1      23.042   3.277  48.133  1.00  0.00     0.158 A 
HETATM   10  C8  UNL     1      22.316   4.269  48.757  1.00  0.00     0.076 A 
HETATM   11  C9  UNL     1      22.592   5.635  48.870  1.00  0.00     0.140 A 
HETATM   12  N3  UNL     1      21.712   6.408  49.536  1.00  0.00    -0.224 NA
HETATM   13  C10 UNL     1      20.580   5.870  50.085  1.00  0.00     0.237 A 
HETATM   14  N4  UNL     1      20.330   4.531  49.962  1.00  0.00    -0.222 NA
HETATM   15  C11 UNL     1      21.177   3.717  49.307  1.00  0.00     0.163 A 
HETATM   16  N5  UNL     1      23.784   6.170  48.286  1.00  0.00    -0.370 N 
HETATM   17  C12 UNL     1      24.917   6.292  49.210  1.00  0.00     0.160 C 
HETATM   18  C13 UNL     1      25.268   5.006  49.820  1.00  0.00    -0.038 A 
HETATM   19  C14 UNL     1      26.132   4.046  49.333  1.00  0.00     0.012 A 
HETATM   20  C15 UNL     1      26.382   2.856  49.986  1.00  0.00     0.040 A 
HETATM   21  C16 UNL     1      25.770   2.558  51.182  1.00  0.00     0.105 A 
HETATM   22  C17 UNL     1      24.920   3.520  51.650  1.00  0.00     0.106 A 
HETATM   23  C18 UNL     1      24.649   4.697  51.039  1.00  0.00     0.048 A 
HETATM   24  O1  UNL     1      24.367   3.135  52.835  1.00  0.00    -0.313 OA
HETATM   25  C19 UNL     1      24.700   1.767  53.048  1.00  0.00     0.303 C 
HETATM   26  O2  UNL     1      25.743   1.516  52.129  1.00  0.00    -0.313 OA
HETATM   27  H11 UNL     1      23.317   6.265  47.358  1.00  0.00     0.161 HD
ENDROOT
TORSDOF 0
ENDMDL
MODEL 2
REMARK VINA RESULT:      -7.9      9.475     12.786
REMARK  0 active torsions:
REMARK  status: ('A' for Active; 'I' for Inactive)
ROOT
HETATM    1  C1  UNL     1      34.067   8.773  41.895  1.00  0.00     0.048 C 
HETATM    2  C2  UNL     1      33.910   7.799  42.980  1.00  0.00    -0.029 C 
HETATM    3  C3  UNL     1      33.946   8.550  44.021  1.00  0.00     0.007 C 
HETATM    4  C4  UNL     1      34.039   9.717  44.808  1.00  0.00    -0.002 C 
HETATM    5  C5  UNL     1      34.018  10.005  46.053  1.00  0.00    -0.005 C 
HETATM    6  C6  UNL     1      33.921   9.615  47.447  1.00  0.00     0.180 C 
HETATM    7  N1  UNL     1      33.796   8.193  47.698  1.00  0.00    -0.248 N 
HETATM    8  N2  UNL     1      34.855   7.380  47.737  1.00  0.00    -0.182 NA
HETATM    9  C7  UNL     1      34.497   6.116  47.996  1.00  0.00     0.158 A 
HETATM   10  C8  UNL     1      33.124   6.159  48.123  1.00  0.00     0.076 A 
HETATM   11  C9  UNL     1      32.225   5.125  48.396  1.00  0.00     0.140 A 
HETATM   12  N3  UNL     1      30.914   5.426  48.474  1.00  0.00    -0.224 NA
HETATM   13  C10 UNL     1      30.477   6.710  48.290  1.00  0.00     0.237 A 
HETATM   14  N4  UNL     1      31.375   7.706  48.024  1.00  0.00    -0.222 NA
HETATM   15  C11 UNL     1      32.693   7.458  47.936  1.00  0.00     0.163 A 
HETATM   16  N5  UNL     1      32.710   3.791  48.583  1.00  0.00    -0.370 N 
HETATM   17  C12 UNL     1      32.664   2.949  47.383  1.00  0.00     0.160 C 
HETATM   18  C13 UNL     1      33.418   3.537  46.272  1.00  0.00    -0.038 A 
HETATM   19  C14 UNL     1      34.759   3.385  45.985  1.00  0.00     0.012 A 
HETATM   20  C15 UNL     1      35.375   3.999  44.913  1.00  0.00     0.040 A 
HETATM   21  C16 UNL     1      34.669   4.812  44.056  1.00  0.00     0.105 A 
HETATM   22  C17 UNL     1      33.343   4.950  44.355  1.00  0.00     0.106 A 
HETATM   23  C18 UNL     1      32.704   4.366  45.395  1.00  0.00     0.048 A 
HETATM   24  O1  UNL     1      32.732   5.769  43.452  1.00  0.00    -0.313 OA
HETATM   25  C19 UNL     1      33.745   6.370  42.652  1.00  0.00     0.303 C 
HETATM   26  O2  UNL     1      34.896   5.590  42.904  1.00  0.00    -0.313 OA
HETATM   27  H11 UNL     1      32.915   3.980  49.589  1.00  0.00     0.161 HD
ENDROOT
TORSDOF 0
ENDMDL
MODEL 3
REMARK VINA RESULT:      -7.8      2.529      3.879
REMARK  0 active torsions:
REMARK  status: ('A' for Active; 'I' for Inactive)
ROOT
HETATM    1  C1  UNL     1      17.938  -1.208  53.094  1.00  0.00     0.048 C 
HETATM    2  C2  UNL     1      19.220  -0.517  52.927  1.00  0.00    -0.029 C 
HETATM    3  C3  UNL     1      19.045   0.108  51.819  1.00  0.00     0.007 C 
HETATM    4  C4  UNL     1      18.412   0.569  50.646  1.00  0.00    -0.002 C 
HETATM    5  C5  UNL     1      18.711   1.328  49.662  1.00  0.00    -0.005 C 
HETATM    6  C6  UNL     1      19.643   2.189  48.958  1.00  0.00     0.180 C 
HETATM    7  N1  UNL     1      20.949   2.339  49.568  1.00  0.00    -0.248 N 
HETATM    8  N2  UNL     1      21.926   1.446  49.388  1.00  0.00    -0.182 NA
HETATM    9  C7  UNL     1      23.042   1.801  50.037  1.00  0.00     0.158 A 
HETATM   10  C8  UNL     1      22.726   2.992  50.656  1.00  0.00     0.076 A 
HETATM   11  C9  UNL     1      23.518   3.810  51.467  1.00  0.00     0.140 A 
HETATM   12  N3  UNL     1      22.972   4.940  51.957  1.00  0.00    -0.224 NA
HETATM   13  C10 UNL     1      21.677   5.276  51.669  1.00  0.00     0.237 A 
HETATM   14  N4  UNL     1      20.920   4.460  50.873  1.00  0.00    -0.222 NA
HETATM   15  C11 UNL     1      21.419   3.322  50.359  1.00  0.00     0.163 A 
HETATM   16  N5  UNL     1      24.870   3.434  51.752  1.00  0.00    -0.370 N 
HETATM   17  C12 UNL     1      25.051   2.717  53.020  1.00  0.00     0.160 C 
HETATM   18  C13 UNL     1      24.236   1.501  53.083  1.00  0.00    -0.038 A 
HETATM   19  C14 UNL     1      24.568   0.235  52.644  1.00  0.00     0.012 A 
HETATM   20  C15 UNL     1      23.713  -0.845  52.741  1.00  0.00     0.040 A 
HETATM   21  C16 UNL     1      22.459  -0.713  53.291  1.00  0.00     0.105 A 
HETATM   22  C17 UNL     1      22.147   0.546  53.721  1.00  0.00     0.106 A 
HETATM   23  C18 UNL     1      22.957   1.628  53.643  1.00  0.00     0.048 A 
HETATM   24  O1  UNL     1      20.891   0.574  54.250  1.00  0.00    -0.313 OA
HETATM   25  C19 UNL     1      20.266  -0.671  53.957  1.00  0.00     0.303 C 
HETATM   26  O2  UNL     1      21.332  -1.512  53.566  1.00  0.00    -0.313 OA
HETATM   27  H11 UNL     1      25.203   3.863  50.862  1.00  0.00     0.161 HD
ENDROOT
TORSDOF 0
ENDMDL
MODEL 4
REMARK VINA RESULT:      -7.8      1.792      4.928
REMARK  0 active torsions:
REMARK  status: ('A' for Active; 'I' for Inactive)
ROOT
HETATM    1  C1  UNL     1      27.857   5.148  48.495  1.00  0.00     0.048 C 
HETATM    2  C2  UNL     1      26.668   4.631  49.179  1.00  0.00    -0.029 C 
HETATM    3  C3  UNL     1      25.903   5.663  49.204  1.00  0.00     0.007 C 
HETATM    4  C4  UNL     1      25.459   6.986  48.997  1.00  0.00    -0.002 C 
HETATM    5  C5  UNL     1      24.411   7.668  49.258  1.00  0.00    -0.005 C 
HETATM    6  C6  UNL     1      23.079   7.788  49.822  1.00  0.00     0.180 C 
HETATM    7  N1  UNL     1      22.556   6.599  50.465  1.00  0.00    -0.248 N 
HETATM    8  N2  UNL     1      22.860   6.278  51.725  1.00  0.00    -0.182 NA
HETATM    9  C7  UNL     1      22.252   5.148  52.106  1.00  0.00     0.158 A 
HETATM   10  C8  UNL     1      21.527   4.749  51.002  1.00  0.00     0.076 A 
HETATM   11  C9  UNL     1      20.702   3.633  50.836  1.00  0.00     0.140 A 
HETATM   12  N3  UNL     1      20.094   3.464  49.646  1.00  0.00    -0.224 NA
HETATM   13  C10 UNL     1      20.280   4.359  48.629  1.00  0.00     0.237 A 
HETATM   14  N4  UNL     1      21.092   5.444  48.813  1.00  0.00    -0.222 NA
HETATM   15  C11 UNL     1      21.722   5.659  49.982  1.00  0.00     0.163 A 
HETATM   16  N5  UNL     1      20.526   2.712  51.918  1.00  0.00    -0.370 N 
HETATM   17  C12 UNL     1      21.409   1.541  51.875  1.00  0.00     0.160 C 
HETATM   18  C13 UNL     1      22.824   1.923  51.852  1.00  0.00    -0.038 A 
HETATM   19  C14 UNL     1      23.655   2.160  52.928  1.00  0.00     0.012 A 
HETATM   20  C15 UNL     1      24.978   2.530  52.792  1.00  0.00     0.040 A 
HETATM   21  C16 UNL     1      25.550   2.685  51.550  1.00  0.00     0.105 A 
HETATM   22  C17 UNL     1      24.713   2.447  50.496  1.00  0.00     0.106 A 
HETATM   23  C18 UNL     1      23.413   2.083  50.589  1.00  0.00     0.048 A 
HETATM   24  O1  UNL     1      25.369   2.624  49.314  1.00  0.00    -0.313 OA
HETATM   25  C19 UNL     1      26.631   3.218  49.601  1.00  0.00     0.303 C 
HETATM   26  O2  UNL     1      26.795   3.033  50.992  1.00  0.00    -0.313 OA
HETATM   27  H11 UNL     1      19.772   3.303  52.331  1.00  0.00     0.161 HD
ENDROOT
TORSDOF 0
ENDMDL
MODEL 5
REMARK VINA RESULT:      -7.8      9.122     12.134
REMARK  0 active torsions:
REMARK  status: ('A' for Active; 'I' for Inactive)
ROOT
HETATM    1  C1  UNL     1      29.798  12.752  48.121  1.00  0.00     0.048 C 
HETATM    2  C2  UNL     1      30.292  11.372  48.113  1.00  0.00    -0.029 C 
HETATM    3  C3  UNL     1      31.193  11.415  47.198  1.00  0.00     0.007 C 
HETATM    4  C4  UNL     1      32.025  11.935  46.185  1.00  0.00    -0.002 C 
HETATM    5  C5  UNL     1      32.945  11.492  45.416  1.00  0.00    -0.005 C 
HETATM    6  C6  UNL     1      33.792  10.417  44.936  1.00  0.00     0.180 C 
HETATM    7  N1  UNL     1      33.574   9.120  45.547  1.00  0.00    -0.248 N 
HETATM    8  N2  UNL     1      32.608   8.293  45.137  1.00  0.00    -0.182 NA
HETATM    9  C7  UNL     1      32.607   7.153  45.838  1.00  0.00     0.158 A 
HETATM   10  C8  UNL     1      33.643   7.292  46.738  1.00  0.00     0.076 A 
HETATM   11  C9  UNL     1      34.096   6.402  47.716  1.00  0.00     0.140 A 
HETATM   12  N3  UNL     1      35.142   6.774  48.479  1.00  0.00    -0.224 NA
HETATM   13  C10 UNL     1      35.743   7.991  48.301  1.00  0.00     0.237 A 
HETATM   14  N4  UNL     1      35.282   8.846  47.338  1.00  0.00    -0.222 NA
HETATM   15  C11 UNL     1      34.242   8.522  46.551  1.00  0.00     0.163 A 
HETATM   16  N5  UNL     1      33.448   5.136  47.881  1.00  0.00    -0.370 N 
HETATM   17  C12 UNL     1      32.421   5.105  48.928  1.00  0.00     0.160 C 
HETATM   18  C13 UNL     1      31.375   6.105  48.697  1.00  0.00    -0.038 A 
HETATM   19  C14 UNL     1      30.220   5.968  47.953  1.00  0.00     0.012 A 
HETATM   20  C15 UNL     1      29.302   6.986  47.790  1.00  0.00     0.040 A 
HETATM   21  C16 UNL     1      29.494   8.217  48.373  1.00  0.00     0.105 A 
HETATM   22  C17 UNL     1      30.641   8.336  49.107  1.00  0.00     0.106 A 
HETATM   23  C18 UNL     1      31.563   7.363  49.289  1.00  0.00     0.048 A 
HETATM   24  O1  UNL     1      30.739   9.585  49.643  1.00  0.00    -0.313 OA
HETATM   25  C19 UNL     1      29.722  10.392  49.058  1.00  0.00     0.303 C 
HETATM   26  O2  UNL     1      28.844   9.464  48.456  1.00  0.00    -0.313 OA
HETATM   27  H11 UNL     1      34.025   4.714  47.121  1.00  0.00     0.161 HD
ENDROOT
TORSDOF 0
ENDMDL
MODEL 6
REMARK VINA RESULT:      -7.5      6.977      9.634
REMARK  0 active torsions:
REMARK  status: ('A' for Active; 'I' for Inactive)
ROOT
HETATM    1  C1  UNL     1      27.895   5.001  48.598  1.00  0.00     0.048 C 
HETATM    2  C2  UNL     1      28.684   6.176  48.213  1.00  0.00    -0.029 C 
HETATM    3  C3  UNL     1      27.775   6.988  47.807  1.00  0.00     0.007 C 
HETATM    4  C4  UNL     1      26.497   7.489  47.488  1.00  0.00    -0.002 C 
HETATM    5  C5  UNL     1      26.013   8.573  47.012  1.00  0.00    -0.005 C 
HETATM    6  C6  UNL     1      26.175   9.917  46.491  1.00  0.00     0.180 C 
HETATM    7  N1  UNL     1      27.541  10.394  46.388  1.00  0.00    -0.248 N 
HETATM    8  N2  UNL     1      28.324  10.095  45.348  1.00  0.00    -0.182 NA
HETATM    9  C7  UNL     1      29.534  10.656  45.467  1.00  0.00     0.158 A 
HETATM   10  C8  UNL     1      29.487  11.344  46.661  1.00  0.00     0.076 A 
HETATM   11  C9  UNL     1      30.476  12.113  47.282  1.00  0.00     0.140 A 
HETATM   12  N3  UNL     1      30.181  12.694  48.461  1.00  0.00    -0.224 NA
HETATM   13  C10 UNL     1      28.949  12.535  49.034  1.00  0.00     0.237 A 
HETATM   14  N4  UNL     1      27.997  11.777  48.409  1.00  0.00    -0.222 NA
HETATM   15  C11 UNL     1      28.241  11.176  47.231  1.00  0.00     0.163 A 
HETATM   16  N5  UNL     1      31.756  12.263  46.660  1.00  0.00    -0.370 N 
HETATM   17  C12 UNL     1      32.780  11.326  47.134  1.00  0.00     0.160 C 
HETATM   18  C13 UNL     1      32.369   9.930  46.958  1.00  0.00    -0.038 A 
HETATM   19  C14 UNL     1      32.549   9.127  45.849  1.00  0.00     0.012 A 
HETATM   20  C15 UNL     1      32.107   7.821  45.785  1.00  0.00     0.040 A 
HETATM   21  C16 UNL     1      31.450   7.238  46.844  1.00  0.00     0.105 A 
HETATM   22  C17 UNL     1      31.282   8.046  47.933  1.00  0.00     0.106 A 
HETATM   23  C18 UNL     1      31.700   9.329  48.034  1.00  0.00     0.048 A 
HETATM   24  O1  UNL     1      30.626   7.381  48.926  1.00  0.00    -0.313 OA
HETATM   25  C19 UNL     1      30.149   6.153  48.387  1.00  0.00     0.303 C 
HETATM   26  O2  UNL     1      30.864   6.002  47.178  1.00  0.00    -0.313 OA
HETATM   27  H11 UNL     1      31.406  13.050  46.071  1.00  0.00     0.161 HD
ENDROOT
TORSDOF 0
ENDMDL
MODEL 7
REMARK VINA RESULT:      -7.4      8.421     11.724
REMARK  0 active torsions:
REMARK  status: ('A' for Active; 'I' for Inactive)
ROOT
HETATM    1  C1  UNL     1      31.990  12.058  44.306  1.00  0.00     0.048 C 
HETATM    2  C2  UNL     1      32.212  10.891  45.165  1.00  0.00    -0.029 C 
HETATM    3  C3  UNL     1      31.287  11.026  46.046  1.00  0.00     0.007 C 
HETATM    4  C4  UNL     1      30.181  11.573  46.729  1.00  0.00    -0.002 C 
HETATM    5  C5  UNL     1      29.488  11.283  47.764  1.00  0.00    -0.005 C 
HETATM    6  C6  UNL     1      29.197  10.430  48.901  1.00  0.00     0.180 C 
HETATM    7  N1  UNL     1      30.082   9.297  49.084  1.00  0.00    -0.248 N 
HETATM    8  N2  UNL     1      31.261   9.406  49.703  1.00  0.00    -0.182 NA
HETATM    9  C7  UNL     1      31.895   8.229  49.764  1.00  0.00     0.158 A 
HETATM   10  C8  UNL     1      31.047   7.339  49.139  1.00  0.00     0.076 A 
HETATM   11  C9  UNL     1      31.204   5.968  48.917  1.00  0.00     0.140 A 
HETATM   12  N3  UNL     1      30.218   5.311  48.277  1.00  0.00    -0.224 NA
HETATM   13  C10 UNL     1      29.095   5.968  47.854  1.00  0.00     0.237 A 
HETATM   14  N4  UNL     1      28.962   7.311  48.081  1.00  0.00    -0.222 NA
HETATM   15  C11 UNL     1      29.918   8.012  48.717  1.00  0.00     0.163 A 
HETATM   16  N5  UNL     1      32.389   5.305  49.370  1.00  0.00    -0.370 N 
HETATM   17  C12 UNL     1      33.437   5.163  48.352  1.00  0.00     0.160 C 
HETATM   18  C13 UNL     1      33.843   6.458  47.800  1.00  0.00    -0.038 A 
HETATM   19  C14 UNL     1      34.815   7.315  48.276  1.00  0.00     0.012 A 
HETATM   20  C15 UNL     1      35.110   8.525  47.682  1.00  0.00     0.040 A 
HETATM   21  C16 UNL     1      34.437   8.950  46.559  1.00  0.00     0.105 A 
HETATM   22  C17 UNL     1      33.480   8.090  46.101  1.00  0.00     0.106 A 
HETATM   23  C18 UNL     1      33.162   6.897  46.655  1.00  0.00     0.048 A 
HETATM   24  O1  UNL     1      32.873   8.596  44.990  1.00  0.00    -0.313 OA
HETATM   25  C19 UNL     1      33.298   9.946  44.838  1.00  0.00     0.303 C 
HETATM   26  O2  UNL     1      34.423  10.055  45.686  1.00  0.00    -0.313 OA
HETATM   27  H11 UNL     1      31.986   5.182  50.324  1.00  0.00     0.161 HD
ENDROOT
TORSDOF 0
ENDMDL
MODEL 8
REMARK VINA RESULT:      -7.2      2.343      5.199
REMARK  0 active torsions:
REMARK  status: ('A' for Active; 'I' for Inactive)
ROOT
HETATM    1  C1  UNL     1      27.622   4.727  48.719  1.00  0.00     0.048 C 
HETATM    2  C2  UNL     1      26.214   4.683  49.126  1.00  0.00    -0.029 C 
HETATM    3  C3  UNL     1      25.816   5.871  48.842  1.00  0.00     0.007 C 
HETATM    4  C4  UNL     1      25.855   7.205  48.386  1.00  0.00    -0.002 C 
HETATM    5  C5  UNL     1      25.036   8.183  48.294  1.00  0.00    -0.005 C 
HETATM    6  C6  UNL     1      23.717   8.758  48.480  1.00  0.00     0.180 C 
HETATM    7  N1  UNL     1      22.729   7.891  49.091  1.00  0.00    -0.248 N 
HETATM    8  N2  UNL     1      22.643   7.731  50.415  1.00  0.00    -0.182 NA
HETATM    9  C7  UNL     1      21.651   6.896  50.746  1.00  0.00     0.158 A 
HETATM   10  C8  UNL     1      21.093   6.518  49.543  1.00  0.00     0.076 A 
HETATM   11  C9  UNL     1      20.021   5.657  49.292  1.00  0.00     0.140 A 
HETATM   12  N3  UNL     1      19.659   5.449  48.011  1.00  0.00    -0.224 NA
HETATM   13  C10 UNL     1      20.324   6.063  46.985  1.00  0.00     0.237 A 
HETATM   14  N4  UNL     1      21.371   6.901  47.253  1.00  0.00    -0.222 NA
HETATM   15  C11 UNL     1      21.770   7.143  48.515  1.00  0.00     0.163 A 
HETATM   16  N5  UNL     1      19.343   5.028  50.385  1.00  0.00    -0.370 N 
HETATM   17  C12 UNL     1      19.812   3.673  50.697  1.00  0.00     0.160 C 
HETATM   18  C13 UNL     1      21.247   3.646  50.997  1.00  0.00    -0.038 A 
HETATM   19  C14 UNL     1      21.860   3.836  52.219  1.00  0.00     0.012 A 
HETATM   20  C15 UNL     1      23.230   3.802  52.389  1.00  0.00     0.040 A 
HETATM   21  C16 UNL     1      24.073   3.572  51.326  1.00  0.00     0.105 A 
HETATM   22  C17 UNL     1      23.449   3.384  50.125  1.00  0.00     0.106 A 
HETATM   23  C18 UNL     1      22.112   3.410  49.919  1.00  0.00     0.048 A 
HETATM   24  O1  UNL     1      24.365   3.162  49.139  1.00  0.00    -0.313 OA
HETATM   25  C19 UNL     1      25.656   3.432  49.675  1.00  0.00     0.303 C 
HETATM   26  O2  UNL     1      25.454   3.462  51.073  1.00  0.00    -0.313 OA
HETATM   27  H11 UNL     1      18.737   5.865  50.524  1.00  0.00     0.161 HD
ENDROOT
TORSDOF 0
ENDMDL
MODEL 9
REMARK VINA RESULT:      -7.1      2.572      4.580
REMARK  0 active torsions:
REMARK  status: ('A' for Active; 'I' for Inactive)
ROOT
HETATM    1  C1  UNL     1      16.791   2.962  49.886  1.00  0.00     0.048 C 
HETATM    2  C2  UNL     1      18.208   2.940  50.260  1.00  0.00    -0.029 C 
HETATM    3  C3  UNL     1      18.766   3.456  49.224  1.00  0.00     0.007 C 
HETATM    4  C4  UNL     1      18.902   4.037  47.946  1.00  0.00    -0.002 C 
HETATM    5  C5  UNL     1      19.860   4.457  47.210  1.00  0.00    -0.005 C 
HETATM    6  C6  UNL     1      21.271   4.695  46.974  1.00  0.00     0.180 C 
HETATM    7  N1  UNL     1      22.169   4.271  48.030  1.00  0.00    -0.248 N 
HETATM    8  N2  UNL     1      22.591   3.008  48.142  1.00  0.00    -0.182 NA
HETATM    9  C7  UNL     1      23.420   2.858  49.182  1.00  0.00     0.158 A 
HETATM   10  C8  UNL     1      23.511   4.113  49.745  1.00  0.00     0.076 A 
HETATM   11  C9  UNL     1      24.243   4.537  50.857  1.00  0.00     0.140 A 
HETATM   12  N3  UNL     1      24.167   5.835  51.211  1.00  0.00    -0.224 NA
HETATM   13  C10 UNL     1      23.394   6.712  50.501  1.00  0.00     0.237 A 
HETATM   14  N4  UNL     1      22.686   6.275  49.415  1.00  0.00    -0.222 NA
HETATM   15  C11 UNL     1      22.728   4.990  49.021  1.00  0.00     0.163 A 
HETATM   16  N5  UNL     1      25.044   3.598  51.583  1.00  0.00    -0.370 N 
HETATM   17  C12 UNL     1      24.389   3.017  52.760  1.00  0.00     0.160 C 
HETATM   18  C13 UNL     1      23.133   2.346  52.414  1.00  0.00    -0.038 A 
HETATM   19  C14 UNL     1      22.954   1.036  52.017  1.00  0.00     0.012 A 
HETATM   20  C15 UNL     1      21.719   0.507  51.700  1.00  0.00     0.040 A 
HETATM   21  C16 UNL     1      20.578   1.273  51.763  1.00  0.00     0.105 A 
HETATM   22  C17 UNL     1      20.774   2.566  52.158  1.00  0.00     0.106 A 
HETATM   23  C18 UNL     1      21.966   3.121  52.477  1.00  0.00     0.048 A 
HETATM   24  O1  UNL     1      19.590   3.241  52.192  1.00  0.00    -0.313 OA
HETATM   25  C19 UNL     1      18.601   2.418  51.583  1.00  0.00     0.303 C 
HETATM   26  O2  UNL     1      19.195   1.137  51.536  1.00  0.00    -0.313 OA
HETATM   27  H11 UNL     1      25.837   3.723  50.917  1.00  0.00     0.161 HD
ENDROOT
TORSDOF 0
ENDMDL
