MODEL 1
REMARK VINA RESULT:      -7.9      0.000      0.000
REMARK  3 active torsions:
REMARK  status: ('A' for Active; 'I' for Inactive)
REMARK    1  A    between atoms: C1_2  and  O1_3 
REMARK    2  A    between atoms: O1_3  and  C2_4 
REMARK    3  A    between atoms: C12_18  and  C13_19 
ROOT
HETATM    1  C2  UNL     1      27.860  -0.267  52.751  1.00  0.00     0.160 C 
HETATM    2  C3  UNL     1      26.545  -0.083  52.029  1.00  0.00     0.153 C 
HETATM    3  N2  UNL     1      25.386   0.056  52.901  1.00  0.00    -0.386 N 
HETATM    4  C4  UNL     1      24.127   0.767  52.679  1.00  0.00     0.058 A 
HETATM    5  C5  UNL     1      23.060   0.101  52.117  1.00  0.00     0.075 A 
HETATM    6  C6  UNL     1      21.803   0.640  51.825  1.00  0.00     0.140 A 
HETATM    7  F1  UNL     1      20.873  -0.162  51.273  1.00  0.00    -0.204 F 
HETATM    8  C7  UNL     1      21.673   1.971  52.154  1.00  0.00     0.074 A 
HETATM    9 CL1  UNL     1      20.118   2.703  51.812  1.00  0.00    -0.081 Cl
HETATM   10  C8  UNL     1      22.710   2.678  52.718  1.00  0.00     0.058 A 
HETATM   11  C9  UNL     1      23.923   2.101  52.983  1.00  0.00     0.060 A 
HETATM   12  N3  UNL     1      24.859   3.044  53.600  1.00  0.00    -0.364 N 
HETATM   13  C10 UNL     1      26.137   2.458  53.358  1.00  0.00     0.085 C 
HETATM   14  C11 UNL     1      27.359   2.096  52.904  1.00  0.00     0.003 C 
HETATM   15  C12 UNL     1      27.962   0.957  53.738  1.00  0.00     0.080 C 
HETATM   16  H6  UNL     1      25.006  -0.225  53.828  1.00  0.00     0.159 HD
HETATM   17  H9  UNL     1      24.695   3.927  54.094  1.00  0.00     0.165 HD
ENDROOT
BRANCH   1  18
HETATM   18  O1  UNL     1      28.076  -1.380  53.493  1.00  0.00    -0.337 OA
BRANCH  18  19
HETATM   19  C1  UNL     1      29.051  -2.325  53.376  1.00  0.00     0.242 C 
HETATM   20  N1  UNL     1      28.196  -3.183  52.901  1.00  0.00    -0.289 NA
HETATM   21  H1  UNL     1      28.540  -4.152  52.644  1.00  0.00     0.188 HD
ENDBRANCH  18  19
ENDBRANCH   1  18
BRANCH  15  22
HETATM   22  C13 UNL     1      29.371   1.189  54.043  1.00  0.00     0.091 C 
HETATM   23  N4  UNL     1      29.695   2.259  54.669  1.00  0.00    -0.316 NA
HETATM   24  H14 UNL     1      28.982   2.949  54.956  1.00  0.00     0.185 HD
ENDBRANCH  15  22
TORSDOF 3
ENDMDL
MODEL 2
REMARK VINA RESULT:      -7.7      2.470      3.547
REMARK  3 active torsions:
REMARK  status: ('A' for Active; 'I' for Inactive)
REMARK    1  A    between atoms: C1_2  and  O1_3 
REMARK    2  A    between atoms: O1_3  and  C2_4 
REMARK    3  A    between atoms: C12_18  and  C13_19 
ROOT
HETATM    1  C2  UNL     1      26.446   2.634  51.987  1.00  0.00     0.160 C 
HETATM    2  C3  UNL     1      24.950   2.546  52.180  1.00  0.00     0.153 C 
HETATM    3  N2  UNL     1      24.360   1.271  51.793  1.00  0.00    -0.386 N 
HETATM    4  C4  UNL     1      23.165   0.598  52.301  1.00  0.00     0.058 A 
HETATM    5  C5  UNL     1      21.947   0.832  51.702  1.00  0.00     0.075 A 
HETATM    6  C6  UNL     1      20.716   0.284  52.077  1.00  0.00     0.140 A 
HETATM    7  F1  UNL     1      19.620   0.624  51.374  1.00  0.00    -0.204 F 
HETATM    8  C7  UNL     1      20.786  -0.566  53.159  1.00  0.00     0.074 A 
HETATM    9 CL1  UNL     1      19.274  -1.284  53.678  1.00  0.00    -0.081 Cl
HETATM   10  C8  UNL     1      21.980  -0.830  53.791  1.00  0.00     0.058 A 
HETATM   11  C9  UNL     1      23.159  -0.266  53.381  1.00  0.00     0.060 A 
HETATM   12  N3  UNL     1      24.294  -0.712  54.193  1.00  0.00    -0.364 N 
HETATM   13  C10 UNL     1      25.284   0.290  53.967  1.00  0.00     0.085 C 
HETATM   14  C11 UNL     1      26.127   1.348  54.013  1.00  0.00     0.003 C 
HETATM   15  C12 UNL     1      27.037   1.405  52.777  1.00  0.00     0.080 C 
HETATM   16  H6  UNL     1      24.471   0.470  51.138  1.00  0.00     0.159 HD
HETATM   17  H9  UNL     1      24.406  -1.531  54.799  1.00  0.00     0.165 HD
ENDROOT
BRANCH   1  18
HETATM   18  O1  UNL     1      26.973   2.580  50.740  1.00  0.00    -0.337 OA
BRANCH  18  19
HETATM   19  C1  UNL     1      26.558   3.189  49.594  1.00  0.00     0.242 C 
HETATM   20  N1  UNL     1      27.305   4.225  49.844  1.00  0.00    -0.289 NA
HETATM   21  H1  UNL     1      27.301   5.031  49.156  1.00  0.00     0.188 HD
ENDBRANCH  18  19
ENDBRANCH   1  18
BRANCH  15  22
HETATM   22  C13 UNL     1      28.421   1.704  53.131  1.00  0.00     0.091 C 
HETATM   23  N4  UNL     1      28.834   2.912  53.024  1.00  0.00    -0.316 NA
HETATM   24  H14 UNL     1      28.209   3.666  52.695  1.00  0.00     0.185 HD
ENDBRANCH  15  22
TORSDOF 3
ENDMDL
MODEL 3
REMARK VINA RESULT:      -7.6      3.746      4.486
REMARK  3 active torsions:
REMARK  status: ('A' for Active; 'I' for Inactive)
REMARK    1  A    between atoms: C1_2  and  O1_3 
REMARK    2  A    between atoms: O1_3  and  C2_4 
REMARK    3  A    between atoms: C12_18  and  C13_19 
ROOT
HETATM    1  C2  UNL     1      26.822   0.405  53.102  1.00  0.00     0.160 C 
HETATM    2  C3  UNL     1      27.120   1.725  52.432  1.00  0.00     0.153 C 
HETATM    3  N2  UNL     1      26.539   1.880  51.105  1.00  0.00    -0.386 N 
HETATM    4  C4  UNL     1      26.117   3.091  50.402  1.00  0.00     0.058 A 
HETATM    5  C5  UNL     1      27.014   3.755  49.594  1.00  0.00     0.075 A 
HETATM    6  C6  UNL     1      26.773   4.929  48.872  1.00  0.00     0.140 A 
HETATM    7  F1  UNL     1      27.772   5.442  48.130  1.00  0.00    -0.204 F 
HETATM    8  C7  UNL     1      25.497   5.426  49.019  1.00  0.00     0.074 A 
HETATM    9 CL1  UNL     1      25.135   6.898  48.139  1.00  0.00    -0.081 Cl
HETATM   10  C8  UNL     1      24.567   4.798  49.815  1.00  0.00     0.058 A 
HETATM   11  C9  UNL     1      24.856   3.648  50.501  1.00  0.00     0.060 A 
HETATM   12  N3  UNL     1      23.704   3.156  51.261  1.00  0.00    -0.364 N 
HETATM   13  C10 UNL     1      24.287   2.302  52.243  1.00  0.00     0.085 C 
HETATM   14  C11 UNL     1      24.810   1.727  53.351  1.00  0.00     0.003 C 
HETATM   15  C12 UNL     1      25.251   0.281  53.089  1.00  0.00     0.080 C 
HETATM   16  H6  UNL     1      26.250   1.348  50.258  1.00  0.00     0.159 HD
HETATM   17  H9  UNL     1      22.701   3.349  51.162  1.00  0.00     0.165 HD
ENDROOT
BRANCH   1  18
HETATM   18  O1  UNL     1      27.305  -0.747  52.576  1.00  0.00    -0.337 OA
BRANCH  18  19
HETATM   19  C1  UNL     1      28.348  -1.520  52.989  1.00  0.00     0.242 C 
HETATM   20  N1  UNL     1      27.596  -2.582  52.983  1.00  0.00    -0.289 NA
HETATM   21  H1  UNL     1      28.025  -3.509  53.264  1.00  0.00     0.188 HD
ENDBRANCH  18  19
ENDBRANCH   1  18
BRANCH  15  22
HETATM   22  C13 UNL     1      24.848  -0.618  54.166  1.00  0.00     0.091 C 
HETATM   23  N4  UNL     1      25.668  -0.831  55.127  1.00  0.00    -0.316 NA
HETATM   24  H14 UNL     1      26.599  -0.382  55.147  1.00  0.00     0.185 HD
ENDBRANCH  15  22
TORSDOF 3
ENDMDL
MODEL 4
REMARK VINA RESULT:      -7.6      2.236      2.764
REMARK  3 active torsions:
REMARK  status: ('A' for Active; 'I' for Inactive)
REMARK    1  A    between atoms: C1_2  and  O1_3 
REMARK    2  A    between atoms: O1_3  and  C2_4 
REMARK    3  A    between atoms: C12_18  and  C13_19 
ROOT
HETATM    1  C2  UNL     1      26.698   0.235  53.111  1.00  0.00     0.160 C 
HETATM    2  C3  UNL     1      25.406  -0.543  53.040  1.00  0.00     0.153 C 
HETATM    3  N2  UNL     1      24.300   0.043  53.786  1.00  0.00    -0.386 N 
HETATM    4  C4  UNL     1      22.860  -0.043  53.547  1.00  0.00     0.058 A 
HETATM    5  C5  UNL     1      22.131  -1.052  54.138  1.00  0.00     0.075 A 
HETATM    6  C6  UNL     1      20.758  -1.281  53.996  1.00  0.00     0.140 A 
HETATM    7  F1  UNL     1      20.210  -2.322  54.650  1.00  0.00    -0.204 F 
HETATM    8  C7  UNL     1      20.121  -0.377  53.176  1.00  0.00     0.074 A 
HETATM    9 CL1  UNL     1      18.398  -0.611  52.959  1.00  0.00    -0.081 Cl
HETATM   10  C8  UNL     1      20.806   0.649  52.564  1.00  0.00     0.058 A 
HETATM   11  C9  UNL     1      22.153   0.827  52.738  1.00  0.00     0.060 A 
HETATM   12  N3  UNL     1      22.652   1.993  52.005  1.00  0.00    -0.364 N 
HETATM   13  C10 UNL     1      24.053   1.749  51.896  1.00  0.00     0.085 C 
HETATM   14  C11 UNL     1      25.311   1.422  51.521  1.00  0.00     0.003 C 
HETATM   15  C12 UNL     1      26.328   1.693  52.639  1.00  0.00     0.080 C 
HETATM   16  H6  UNL     1      24.077   0.621  54.622  1.00  0.00     0.159 HD
HETATM   17  H9  UNL     1      22.162   2.813  51.632  1.00  0.00     0.165 HD
ENDROOT
BRANCH   1  18
HETATM   18  O1  UNL     1      27.348   0.366  54.293  1.00  0.00    -0.337 OA
BRANCH  18  19
HETATM   19  C1  UNL     1      28.563  -0.118  54.674  1.00  0.00     0.242 C 
HETATM   20  N1  UNL     1      28.887   1.032  55.190  1.00  0.00    -0.289 NA
HETATM   21  H1  UNL     1      29.839   1.134  55.644  1.00  0.00     0.188 HD
ENDBRANCH  18  19
ENDBRANCH   1  18
BRANCH  15  22
HETATM   22  C13 UNL     1      27.536   2.337  52.135  1.00  0.00     0.091 C 
HETATM   23  N4  UNL     1      28.324   2.905  52.971  1.00  0.00    -0.316 NA
HETATM   24  H14 UNL     1      28.116   2.913  53.983  1.00  0.00     0.185 HD
ENDBRANCH  15  22
TORSDOF 3
ENDMDL
MODEL 5
REMARK VINA RESULT:      -7.5      2.655      2.904
REMARK  3 active torsions:
REMARK  status: ('A' for Active; 'I' for Inactive)
REMARK    1  A    between atoms: C1_2  and  O1_3 
REMARK    2  A    between atoms: O1_3  and  C2_4 
REMARK    3  A    between atoms: C12_18  and  C13_19 
ROOT
HETATM    1  C2  UNL     1      26.345  -0.383  53.889  1.00  0.00     0.160 C 
HETATM    2  C3  UNL     1      25.492  -0.184  52.659  1.00  0.00     0.153 C 
HETATM    3  N2  UNL     1      24.764   1.078  52.619  1.00  0.00    -0.386 N 
HETATM    4  C4  UNL     1      24.325   1.870  51.471  1.00  0.00     0.058 A 
HETATM    5  C5  UNL     1      23.075   1.651  50.933  1.00  0.00     0.075 A 
HETATM    6  C6  UNL     1      22.517   2.308  49.831  1.00  0.00     0.140 A 
HETATM    7  F1  UNL     1      21.276   1.964  49.440  1.00  0.00    -0.204 F 
HETATM    8  C7  UNL     1      23.340   3.258  49.268  1.00  0.00     0.074 A 
HETATM    9 CL1  UNL     1      22.695   4.116  47.882  1.00  0.00    -0.081 Cl
HETATM   10  C8  UNL     1      24.596   3.512  49.771  1.00  0.00     0.058 A 
HETATM   11  C9  UNL     1      25.095   2.839  50.854  1.00  0.00     0.060 A 
HETATM   12  N3  UNL     1      26.439   3.296  51.216  1.00  0.00    -0.364 N 
HETATM   13  C10 UNL     1      26.965   2.217  51.987  1.00  0.00     0.085 C 
HETATM   14  C11 UNL     1      27.598   1.121  52.465  1.00  0.00     0.003 C 
HETATM   15  C12 UNL     1      27.284   0.882  53.948  1.00  0.00     0.080 C 
HETATM   16  H6  UNL     1      24.320   1.799  53.224  1.00  0.00     0.159 HD
HETATM   17  H9  UNL     1      26.935   4.164  50.993  1.00  0.00     0.165 HD
ENDROOT
BRANCH   1  18
HETATM   18  O1  UNL     1      25.764  -0.489  55.109  1.00  0.00    -0.337 OA
BRANCH  18  19
HETATM   19  C1  UNL     1      24.640  -1.165  55.479  1.00  0.00     0.242 C 
HETATM   20  N1  UNL     1      25.135  -1.390  56.661  1.00  0.00    -0.289 NA
HETATM   21  H1  UNL     1      24.554  -1.936  57.359  1.00  0.00     0.188 HD
ENDBRANCH  18  19
ENDBRANCH   1  18
BRANCH  15  22
HETATM   22  C13 UNL     1      28.479   0.537  54.712  1.00  0.00     0.091 C 
HETATM   23  N4  UNL     1      28.954  -0.647  54.607  1.00  0.00    -0.316 NA
HETATM   24  H14 UNL     1      28.507  -1.352  53.997  1.00  0.00     0.185 HD
ENDBRANCH  15  22
TORSDOF 3
ENDMDL
MODEL 6
REMARK VINA RESULT:      -7.1      5.600      6.644
REMARK  3 active torsions:
REMARK  status: ('A' for Active; 'I' for Inactive)
REMARK    1  A    between atoms: C1_2  and  O1_3 
REMARK    2  A    between atoms: O1_3  and  C2_4 
REMARK    3  A    between atoms: C12_18  and  C13_19 
ROOT
HETATM    1  C2  UNL     1      27.210   7.398  48.644  1.00  0.00     0.160 C 
HETATM    2  C3  UNL     1      26.105   6.369  48.664  1.00  0.00     0.153 C 
HETATM    3  N2  UNL     1      26.022   5.587  49.891  1.00  0.00    -0.386 N 
HETATM    4  C4  UNL     1      24.865   4.953  50.521  1.00  0.00     0.058 A 
HETATM    5  C5  UNL     1      24.547   3.651  50.203  1.00  0.00     0.075 A 
HETATM    6  C6  UNL     1      23.469   2.912  50.702  1.00  0.00     0.140 A 
HETATM    7  F1  UNL     1      23.309   1.644  50.279  1.00  0.00    -0.204 F 
HETATM    8  C7  UNL     1      22.681   3.602  51.597  1.00  0.00     0.074 A 
HETATM    9 CL1  UNL     1      21.313   2.728  52.257  1.00  0.00    -0.081 Cl
HETATM   10  C8  UNL     1      22.959   4.904  51.945  1.00  0.00     0.058 A 
HETATM   11  C9  UNL     1      24.030   5.582  51.426  1.00  0.00     0.060 A 
HETATM   12  N3  UNL     1      24.132   6.942  51.961  1.00  0.00    -0.364 N 
HETATM   13  C10 UNL     1      24.941   7.622  51.002  1.00  0.00     0.085 C 
HETATM   14  C11 UNL     1      25.447   8.365  49.992  1.00  0.00     0.003 C 
HETATM   15  C12 UNL     1      26.979   8.277  49.931  1.00  0.00     0.080 C 
HETATM   16  H6  UNL     1      26.595   5.202  50.670  1.00  0.00     0.159 HD
HETATM   17  H9  UNL     1      23.736   7.362  52.808  1.00  0.00     0.165 HD
ENDROOT
BRANCH   1  18
HETATM   18  O1  UNL     1      28.506   7.002  48.675  1.00  0.00    -0.337 OA
BRANCH  18  19
HETATM   19  C1  UNL     1      29.119   5.981  48.013  1.00  0.00     0.242 C 
HETATM   20  N1  UNL     1      29.651   5.550  49.119  1.00  0.00    -0.289 NA
HETATM   21  H1  UNL     1      30.270   4.690  49.083  1.00  0.00     0.188 HD
ENDBRANCH  18  19
ENDBRANCH   1  18
BRANCH  15  22
HETATM   22  C13 UNL     1      27.594   9.583  49.717  1.00  0.00     0.091 C 
HETATM   23  N4  UNL     1      28.828   9.738  50.023  1.00  0.00    -0.316 NA
HETATM   24  H14 UNL     1      29.385   8.962  50.415  1.00  0.00     0.185 HD
ENDBRANCH  15  22
TORSDOF 3
ENDMDL
MODEL 7
REMARK VINA RESULT:      -7.1      3.234      4.368
REMARK  3 active torsions:
REMARK  status: ('A' for Active; 'I' for Inactive)
REMARK    1  A    between atoms: C1_2  and  O1_3 
REMARK    2  A    between atoms: O1_3  and  C2_4 
REMARK    3  A    between atoms: C12_18  and  C13_19 
ROOT
HETATM    1  C2  UNL     1      23.342  -0.198  53.107  1.00  0.00     0.160 C 
HETATM    2  C3  UNL     1      22.650   0.755  52.161  1.00  0.00     0.153 C 
HETATM    3  N2  UNL     1      22.486   2.110  52.673  1.00  0.00    -0.386 N 
HETATM    4  C4  UNL     1      22.409   3.380  51.952  1.00  0.00     0.058 A 
HETATM    5  C5  UNL     1      21.181   3.863  51.556  1.00  0.00     0.075 A 
HETATM    6  C6  UNL     1      20.942   5.046  50.848  1.00  0.00     0.140 A 
HETATM    7  F1  UNL     1      19.670   5.365  50.543  1.00  0.00    -0.204 F 
HETATM    8  C7  UNL     1      22.080   5.759  50.544  1.00  0.00     0.074 A 
HETATM    9 CL1  UNL     1      21.844   7.251  49.656  1.00  0.00    -0.081 Cl
HETATM   10  C8  UNL     1      23.328   5.316  50.919  1.00  0.00     0.058 A 
HETATM   11  C9  UNL     1      23.507   4.149  51.612  1.00  0.00     0.060 A 
HETATM   12  N3  UNL     1      24.919   3.899  51.915  1.00  0.00    -0.364 N 
HETATM   13  C10 UNL     1      24.965   2.497  52.174  1.00  0.00     0.085 C 
HETATM   14  C11 UNL     1      25.104   1.151  52.139  1.00  0.00     0.003 C 
HETATM   15  C12 UNL     1      24.706   0.503  53.472  1.00  0.00     0.080 C 
HETATM   16  H6  UNL     1      22.360   2.656  53.549  1.00  0.00     0.159 HD
HETATM   17  H9  UNL     1      25.722   4.535  51.944  1.00  0.00     0.165 HD
ENDROOT
BRANCH   1  18
HETATM   18  O1  UNL     1      22.755  -0.535  54.281  1.00  0.00    -0.337 OA
BRANCH  18  19
HETATM   19  C1  UNL     1      21.980  -1.613  54.586  1.00  0.00     0.242 C 
HETATM   20  N1  UNL     1      22.684  -1.848  55.655  1.00  0.00    -0.289 NA
HETATM   21  H1  UNL     1      22.419  -2.673  56.265  1.00  0.00     0.188 HD
ENDBRANCH  18  19
ENDBRANCH   1  18
BRANCH  15  22
HETATM   22  C13 UNL     1      25.658  -0.524  53.886  1.00  0.00     0.091 C 
HETATM   23  N4  UNL     1      25.666  -0.894  55.112  1.00  0.00    -0.316 NA
HETATM   24  H14 UNL     1      25.018  -0.481  55.802  1.00  0.00     0.185 HD
ENDBRANCH  15  22
TORSDOF 3
ENDMDL
MODEL 8
REMARK VINA RESULT:      -7.1      2.857      4.076
REMARK  3 active torsions:
REMARK  status: ('A' for Active; 'I' for Inactive)
REMARK    1  A    between atoms: C1_2  and  O1_3 
REMARK    2  A    between atoms: O1_3  and  C2_4 
REMARK    3  A    between atoms: C12_18  and  C13_19 
ROOT
HETATM    1  C2  UNL     1      26.344   1.613  53.487  1.00  0.00     0.160 C 
HETATM    2  C3  UNL     1      25.373   2.768  53.404  1.00  0.00     0.153 C 
HETATM    3  N2  UNL     1      25.074   3.215  52.050  1.00  0.00    -0.386 N 
HETATM    4  C4  UNL     1      23.868   3.847  51.517  1.00  0.00     0.058 A 
HETATM    5  C5  UNL     1      23.766   5.221  51.511  1.00  0.00     0.075 A 
HETATM    6  C6  UNL     1      22.678   5.973  51.055  1.00  0.00     0.140 A 
HETATM    7  F1  UNL     1      22.751   7.316  51.125  1.00  0.00    -0.204 F 
HETATM    8  C7  UNL     1      21.633   5.215  50.576  1.00  0.00     0.074 A 
HETATM    9 CL1  UNL     1      20.239   6.102  49.991  1.00  0.00    -0.081 Cl
HETATM   10  C8  UNL     1      21.688   3.840  50.561  1.00  0.00     0.058 A 
HETATM   11  C9  UNL     1      22.780   3.152  51.020  1.00  0.00     0.060 A 
HETATM   12  N3  UNL     1      22.615   1.703  50.885  1.00  0.00    -0.364 N 
HETATM   13  C10 UNL     1      23.560   1.167  51.809  1.00  0.00     0.085 C 
HETATM   14  C11 UNL     1      24.220   0.633  52.862  1.00  0.00     0.003 C 
HETATM   15  C12 UNL     1      25.722   0.485  52.579  1.00  0.00     0.080 C 
HETATM   16  H6  UNL     1      25.476   3.292  51.093  1.00  0.00     0.159 HD
HETATM   17  H9  UNL     1      21.986   1.151  50.292  1.00  0.00     0.165 HD
ENDROOT
BRANCH   1  18
HETATM   18  O1  UNL     1      27.626   1.773  53.079  1.00  0.00    -0.337 OA
BRANCH  18  19
HETATM   19  C1  UNL     1      28.660   2.411  53.696  1.00  0.00     0.242 C 
HETATM   20  N1  UNL     1      28.725   1.481  54.603  1.00  0.00    -0.289 NA
HETATM   21  H1  UNL     1      29.456   1.566  55.366  1.00  0.00     0.188 HD
ENDBRANCH  18  19
ENDBRANCH   1  18
BRANCH  15  22
HETATM   22  C13 UNL     1      26.238  -0.805  53.024  1.00  0.00     0.091 C 
HETATM   23  N4  UNL     1      26.726  -0.897  54.204  1.00  0.00    -0.316 NA
HETATM   24  H14 UNL     1      26.759  -0.080  54.836  1.00  0.00     0.185 HD
ENDBRANCH  15  22
TORSDOF 3
ENDMDL
MODEL 9
REMARK VINA RESULT:      -7.0      8.673      9.269
REMARK  3 active torsions:
REMARK  status: ('A' for Active; 'I' for Inactive)
REMARK    1  A    between atoms: C1_2  and  O1_3 
REMARK    2  A    between atoms: O1_3  and  C2_4 
REMARK    3  A    between atoms: C12_18  and  C13_19 
ROOT
HETATM    1  C2  UNL     1      32.900   5.148  47.577  1.00  0.00     0.160 C 
HETATM    2  C3  UNL     1      31.624   5.840  47.161  1.00  0.00     0.153 C 
HETATM    3  N2  UNL     1      30.653   6.022  48.233  1.00  0.00    -0.386 N 
HETATM    4  C4  UNL     1      29.634   7.056  48.408  1.00  0.00     0.058 A 
HETATM    5  C5  UNL     1      28.367   6.854  47.905  1.00  0.00     0.075 A 
HETATM    6  C6  UNL     1      27.292   7.746  47.974  1.00  0.00     0.140 A 
HETATM    7  F1  UNL     1      26.118   7.381  47.425  1.00  0.00    -0.204 F 
HETATM    8  C7  UNL     1      27.584   8.928  48.618  1.00  0.00     0.074 A 
HETATM    9 CL1  UNL     1      26.275  10.088  48.735  1.00  0.00    -0.081 Cl
HETATM   10  C8  UNL     1      28.834   9.176  49.137  1.00  0.00     0.058 A 
HETATM   11  C9  UNL     1      29.853   8.265  49.043  1.00  0.00     0.060 A 
HETATM   12  N3  UNL     1      31.080   8.743  49.685  1.00  0.00    -0.364 N 
HETATM   13  C10 UNL     1      32.104   7.946  49.091  1.00  0.00     0.085 C 
HETATM   14  C11 UNL     1      33.115   7.429  48.357  1.00  0.00     0.003 C 
HETATM   15  C12 UNL     1      33.454   5.994  48.785  1.00  0.00     0.080 C 
HETATM   16  H6  UNL     1      30.311   5.604  49.123  1.00  0.00     0.159 HD
HETATM   17  H9  UNL     1      31.229   9.473  50.390  1.00  0.00     0.165 HD
ENDROOT
BRANCH   1  18
HETATM   18  O1  UNL     1      32.868   3.858  47.991  1.00  0.00    -0.337 OA
BRANCH  18  19
HETATM   19  C1  UNL     1      33.322   2.734  47.368  1.00  0.00     0.242 C 
HETATM   20  N1  UNL     1      33.666   2.211  48.509  1.00  0.00    -0.289 NA
HETATM   21  H1  UNL     1      34.106   1.246  48.512  1.00  0.00     0.188 HD
ENDBRANCH  18  19
ENDBRANCH   1  18
BRANCH  15  22
HETATM   22  C13 UNL     1      34.894   5.778  48.881  1.00  0.00     0.091 C 
HETATM   23  N4  UNL     1      35.322   4.792  49.578  1.00  0.00    -0.316 NA
HETATM   24  H14 UNL     1      34.669   4.159  50.068  1.00  0.00     0.185 HD
ENDBRANCH  15  22
TORSDOF 3
ENDMDL
