MODEL 1
REMARK VINA RESULT:      -7.7      0.000      0.000
REMARK  6 active torsions:
REMARK  status: ('A' for Active; 'I' for Inactive)
REMARK    1  A    between atoms: O1_2  and  C2_3 
REMARK    2  A    between atoms: C3_4  and  N1_5 
REMARK    3  A    between atoms: N2_6  and  C4_7 
REMARK    4  A    between atoms: C5_9  and  N4_10 
REMARK    5  A    between atoms: N4_10  and  C6_11 
REMARK    6  A    between atoms: C10_15  and  O2_16 
ROOT
HETATM    1  C4  UNL     1      24.575   2.907  52.346  1.00  0.00     0.117 A 
HETATM    2  N3  UNL     1      24.991   3.244  51.166  1.00  0.00    -0.217 NA
HETATM    3  C5  UNL     1      24.492   4.480  50.741  1.00  0.00     0.126 A 
HETATM    4  C13 UNL     1      23.714   4.982  51.675  1.00  0.00     0.031 A 
HETATM    5  C14 UNL     1      23.683   4.031  52.803  1.00  0.00     0.110 A 
ENDROOT
BRANCH   1   6
HETATM    6  N2  UNL     1      24.881   1.728  53.080  1.00  0.00    -0.294 N 
HETATM    7  C3  UNL     1      26.121   1.693  53.780  1.00  0.00     0.136 A 
HETATM    8  C2  UNL     1      26.368   0.581  54.449  1.00  0.00     0.093 A 
HETATM    9  C17 UNL     1      25.517  -0.630  54.562  1.00  0.00     0.097 A 
HETATM   10  C16 UNL     1      24.283  -0.394  53.769  1.00  0.00    -0.002 A 
HETATM   11  C15 UNL     1      23.945   0.657  53.078  1.00  0.00     0.096 A 
BRANCH   7  12
HETATM   12  N1  UNL     1      27.054   2.767  53.778  1.00  0.00    -0.383 N 
HETATM   13  H4  UNL     1      28.008   2.795  53.316  1.00  0.00     0.157 HD
HETATM   14  H5  UNL     1      27.083   3.717  54.175  1.00  0.00     0.157 HD
ENDBRANCH   7  12
BRANCH   8  15
HETATM   15  O1  UNL     1      27.595   0.564  55.133  1.00  0.00    -0.356 OA
HETATM   16  C1  UNL     1      28.659  -0.164  54.582  1.00  0.00     0.209 C 
ENDBRANCH   8  15
ENDBRANCH   1   6
BRANCH   3  17
HETATM   17  N4  UNL     1      24.723   5.169  49.519  1.00  0.00    -0.341 N 
HETATM   18  H6  UNL     1      23.996   5.482  48.822  1.00  0.00     0.167 HD
BRANCH  17  19
HETATM   19  C6  UNL     1      26.062   5.517  49.109  1.00  0.00     0.036 A 
HETATM   20  C7  UNL     1      27.074   4.618  48.839  1.00  0.00     0.029 A 
HETATM   21  C8  UNL     1      28.318   5.089  48.454  1.00  0.00     0.005 A 
HETATM   22  C9  UNL     1      28.524   6.443  48.348  1.00  0.00     0.037 A 
HETATM   23  C10 UNL     1      27.498   7.341  48.623  1.00  0.00     0.070 A 
HETATM   24  C12 UNL     1      26.252   6.892  49.007  1.00  0.00     0.066 A 
BRANCH  23  25
HETATM   25  O2  UNL     1      27.735   8.692  48.508  1.00  0.00    -0.356 OA
HETATM   26  C11 UNL     1      28.296   9.426  49.582  1.00  0.00     0.210 C 
ENDBRANCH  23  25
ENDBRANCH  17  19
ENDBRANCH   3  17
TORSDOF 6
ENDMDL
MODEL 2
REMARK VINA RESULT:      -7.4      2.918      6.972
REMARK  6 active torsions:
REMARK  status: ('A' for Active; 'I' for Inactive)
REMARK    1  A    between atoms: O1_2  and  C2_3 
REMARK    2  A    between atoms: C3_4  and  N1_5 
REMARK    3  A    between atoms: N2_6  and  C4_7 
REMARK    4  A    between atoms: C5_9  and  N4_10 
REMARK    5  A    between atoms: N4_10  and  C6_11 
REMARK    6  A    between atoms: C10_15  and  O2_16 
ROOT
HETATM    1  C4  UNL     1      23.226   1.749  51.490  1.00  0.00     0.117 A 
HETATM    2  N3  UNL     1      24.196   1.227  52.175  1.00  0.00    -0.217 NA
HETATM    3  C5  UNL     1      23.788   0.152  52.971  1.00  0.00     0.126 A 
HETATM    4  C13 UNL     1      22.497  -0.048  52.810  1.00  0.00     0.031 A 
HETATM    5  C14 UNL     1      21.998   0.952  51.846  1.00  0.00     0.110 A 
ENDROOT
BRANCH   1   6
HETATM    6  N2  UNL     1      23.282   2.845  50.586  1.00  0.00    -0.294 N 
HETATM    7  C3  UNL     1      23.769   4.086  51.087  1.00  0.00     0.136 A 
HETATM    8  C2  UNL     1      23.805   5.078  50.216  1.00  0.00     0.093 A 
HETATM    9  C17 UNL     1      23.402   5.060  48.787  1.00  0.00     0.097 A 
HETATM   10  C16 UNL     1      22.928   3.690  48.465  1.00  0.00    -0.002 A 
HETATM   11  C15 UNL     1      22.853   2.648  49.244  1.00  0.00     0.096 A 
BRANCH   7  12
HETATM   12  N1  UNL     1      24.196   4.277  52.430  1.00  0.00    -0.383 N 
HETATM   13  H4  UNL     1      24.806   3.635  53.013  1.00  0.00     0.157 HD
HETATM   14  H5  UNL     1      24.059   5.001  53.150  1.00  0.00     0.157 HD
ENDBRANCH   7  12
BRANCH   8  15
HETATM   15  O1  UNL     1      24.288   6.295  50.727  1.00  0.00    -0.356 OA
HETATM   16  C1  UNL     1      23.438   7.410  50.717  1.00  0.00     0.209 C 
ENDBRANCH   8  15
ENDBRANCH   1   6
BRANCH   3  17
HETATM   17  N4  UNL     1      24.560  -0.659  53.848  1.00  0.00    -0.341 N 
HETATM   18  H6  UNL     1      24.200  -1.240  54.653  1.00  0.00     0.167 HD
BRANCH  17  19
HETATM   19  C6  UNL     1      25.991  -0.757  53.695  1.00  0.00     0.036 A 
HETATM   20  C7  UNL     1      26.647  -1.648  52.871  1.00  0.00     0.029 A 
HETATM   21  C8  UNL     1      28.031  -1.636  52.819  1.00  0.00     0.005 A 
HETATM   22  C9  UNL     1      28.727  -0.736  53.589  1.00  0.00     0.037 A 
HETATM   23  C10 UNL     1      28.056   0.159  54.418  1.00  0.00     0.070 A 
HETATM   24  C12 UNL     1      26.679   0.162  54.483  1.00  0.00     0.066 A 
BRANCH  23  25
HETATM   25  O2  UNL     1      28.780   1.048  55.178  1.00  0.00    -0.356 OA
HETATM   26  C11 UNL     1      29.573   2.051  54.566  1.00  0.00     0.210 C 
ENDBRANCH  23  25
ENDBRANCH  17  19
ENDBRANCH   3  17
TORSDOF 6
ENDMDL
MODEL 3
REMARK VINA RESULT:      -7.4      4.591      7.241
REMARK  6 active torsions:
REMARK  status: ('A' for Active; 'I' for Inactive)
REMARK    1  A    between atoms: O1_2  and  C2_3 
REMARK    2  A    between atoms: C3_4  and  N1_5 
REMARK    3  A    between atoms: N2_6  and  C4_7 
REMARK    4  A    between atoms: C5_9  and  N4_10 
REMARK    5  A    between atoms: N4_10  and  C6_11 
REMARK    6  A    between atoms: C10_15  and  O2_16 
ROOT
HETATM    1  C4  UNL     1      25.341   1.648  52.717  1.00  0.00     0.117 A 
HETATM    2  N3  UNL     1      24.485   0.972  52.016  1.00  0.00    -0.217 NA
HETATM    3  C5  UNL     1      23.256   1.626  51.873  1.00  0.00     0.126 A 
HETATM    4  C13 UNL     1      23.298   2.780  52.503  1.00  0.00     0.031 A 
HETATM    5  C14 UNL     1      24.635   2.919  53.112  1.00  0.00     0.110 A 
ENDROOT
BRANCH   1   6
HETATM    6  N2  UNL     1      26.674   1.288  53.057  1.00  0.00    -0.294 N 
HETATM    7  C3  UNL     1      26.977  -0.101  53.145  1.00  0.00     0.136 A 
HETATM    8  C2  UNL     1      28.226  -0.393  53.463  1.00  0.00     0.093 A 
HETATM    9  C17 UNL     1      29.345   0.542  53.740  1.00  0.00     0.097 A 
HETATM   10  C16 UNL     1      28.827   1.927  53.599  1.00  0.00    -0.002 A 
HETATM   11  C15 UNL     1      27.624   2.321  53.291  1.00  0.00     0.096 A 
BRANCH   7  12
HETATM   12  N1  UNL     1      26.024  -1.129  52.911  1.00  0.00    -0.383 N 
HETATM   13  H4  UNL     1      25.114  -1.300  53.430  1.00  0.00     0.157 HD
HETATM   14  H5  UNL     1      25.938  -1.918  52.254  1.00  0.00     0.157 HD
ENDBRANCH   7  12
BRANCH   8  15
HETATM   15  O1  UNL     1      28.508  -1.767  53.544  1.00  0.00    -0.356 OA
HETATM   16  C1  UNL     1      29.849  -2.176  53.548  1.00  0.00     0.209 C 
ENDBRANCH   8  15
ENDBRANCH   1   6
BRANCH   3  17
HETATM   17  N4  UNL     1      22.089   1.201  51.181  1.00  0.00    -0.341 N 
HETATM   18  H6  UNL     1      21.868   1.355  50.160  1.00  0.00     0.167 HD
BRANCH  17  19
HETATM   19  C6  UNL     1      21.046   0.478  51.867  1.00  0.00     0.036 A 
HETATM   20  C7  UNL     1      19.713   0.470  51.510  1.00  0.00     0.029 A 
HETATM   21  C8  UNL     1      18.812  -0.270  52.259  1.00  0.00     0.005 A 
HETATM   22  C9  UNL     1      19.262  -0.982  53.344  1.00  0.00     0.037 A 
HETATM   23  C10 UNL     1      20.608  -0.967  53.696  1.00  0.00     0.070 A 
HETATM   24  C12 UNL     1      21.520  -0.237  52.963  1.00  0.00     0.066 A 
BRANCH  23  25
HETATM   25  O2  UNL     1      21.028  -1.690  54.788  1.00  0.00    -0.356 OA
HETATM   26  C11 UNL     1      22.378  -1.641  55.218  1.00  0.00     0.210 C 
ENDBRANCH  23  25
ENDBRANCH  17  19
ENDBRANCH   3  17
TORSDOF 6
ENDMDL
MODEL 4
REMARK VINA RESULT:      -7.3      1.949      7.620
REMARK  6 active torsions:
REMARK  status: ('A' for Active; 'I' for Inactive)
REMARK    1  A    between atoms: O1_2  and  C2_3 
REMARK    2  A    between atoms: C3_4  and  N1_5 
REMARK    3  A    between atoms: N2_6  and  C4_7 
REMARK    4  A    between atoms: C5_9  and  N4_10 
REMARK    5  A    between atoms: N4_10  and  C6_11 
REMARK    6  A    between atoms: C10_15  and  O2_16 
ROOT
HETATM    1  C4  UNL     1      23.991   3.921  50.659  1.00  0.00     0.117 A 
HETATM    2  N3  UNL     1      23.768   2.656  50.490  1.00  0.00    -0.217 NA
HETATM    3  C5  UNL     1      22.879   2.125  51.432  1.00  0.00     0.126 A 
HETATM    4  C13 UNL     1      22.499   3.075  52.258  1.00  0.00     0.031 A 
HETATM    5  C14 UNL     1      23.169   4.326  51.854  1.00  0.00     0.110 A 
ENDROOT
BRANCH   1   6
HETATM    6  N2  UNL     1      24.832   4.774  49.892  1.00  0.00    -0.294 N 
HETATM    7  C3  UNL     1      26.145   4.308  49.596  1.00  0.00     0.136 A 
HETATM    8  C2  UNL     1      26.894   5.129  48.882  1.00  0.00     0.093 A 
HETATM    9  C17 UNL     1      26.539   6.470  48.353  1.00  0.00     0.097 A 
HETATM   10  C16 UNL     1      25.143   6.767  48.767  1.00  0.00    -0.002 A 
HETATM   11  C15 UNL     1      24.325   6.033  49.465  1.00  0.00     0.096 A 
BRANCH   7  12
HETATM   12  N1  UNL     1      26.646   3.049  50.026  1.00  0.00    -0.383 N 
HETATM   13  H4  UNL     1      27.248   2.369  49.476  1.00  0.00     0.157 HD
HETATM   14  H5  UNL     1      26.584   2.487  50.887  1.00  0.00     0.157 HD
ENDBRANCH   7  12
BRANCH   8  15
HETATM   15  O1  UNL     1      28.186   4.653  48.599  1.00  0.00    -0.356 OA
HETATM   16  C1  UNL     1      29.178   5.580  48.247  1.00  0.00     0.209 C 
ENDBRANCH   8  15
ENDBRANCH   1   6
BRANCH   3  17
HETATM   17  N4  UNL     1      22.402   0.792  51.563  1.00  0.00    -0.341 N 
HETATM   18  H6  UNL     1      21.946   0.207  50.812  1.00  0.00     0.167 HD
BRANCH  17  19
HETATM   19  C6  UNL     1      22.511   0.089  52.818  1.00  0.00     0.036 A 
HETATM   20  C7  UNL     1      21.449  -0.361  53.575  1.00  0.00     0.029 A 
HETATM   21  C8  UNL     1      21.695  -1.025  54.766  1.00  0.00     0.005 A 
HETATM   22  C9  UNL     1      22.992  -1.224  55.172  1.00  0.00     0.037 A 
HETATM   23  C10 UNL     1      24.056  -0.766  54.401  1.00  0.00     0.070 A 
HETATM   24  C12 UNL     1      23.832  -0.104  53.213  1.00  0.00     0.066 A 
BRANCH  23  25
HETATM   25  O2  UNL     1      25.345  -0.980  54.833  1.00  0.00    -0.356 OA
HETATM   26  C11 UNL     1      26.384  -0.077  54.498  1.00  0.00     0.210 C 
ENDBRANCH  23  25
ENDBRANCH  17  19
ENDBRANCH   3  17
TORSDOF 6
ENDMDL
MODEL 5
REMARK VINA RESULT:      -7.3      2.953      4.659
REMARK  6 active torsions:
REMARK  status: ('A' for Active; 'I' for Inactive)
REMARK    1  A    between atoms: O1_2  and  C2_3 
REMARK    2  A    between atoms: C3_4  and  N1_5 
REMARK    3  A    between atoms: N2_6  and  C4_7 
REMARK    4  A    between atoms: C5_9  and  N4_10 
REMARK    5  A    between atoms: N4_10  and  C6_11 
REMARK    6  A    between atoms: C10_15  and  O2_16 
ROOT
HETATM    1  C4  UNL     1      24.780  -0.108  53.200  1.00  0.00     0.117 A 
HETATM    2  N3  UNL     1      24.231   0.802  52.459  1.00  0.00    -0.217 NA
HETATM    3  C5  UNL     1      22.833   0.794  52.526  1.00  0.00     0.126 A 
HETATM    4  C13 UNL     1      22.440  -0.159  53.343  1.00  0.00     0.031 A 
HETATM    5  C14 UNL     1      23.642  -0.839  53.863  1.00  0.00     0.110 A 
ENDROOT
BRANCH   1   6
HETATM    6  N2  UNL     1      26.165  -0.381  53.371  1.00  0.00    -0.294 N 
HETATM    7  C3  UNL     1      26.922   0.530  54.162  1.00  0.00     0.136 A 
HETATM    8  C2  UNL     1      28.204   0.240  54.297  1.00  0.00     0.093 A 
HETATM    9  C17 UNL     1      28.950  -0.911  53.728  1.00  0.00     0.097 A 
HETATM   10  C16 UNL     1      27.990  -1.732  52.945  1.00  0.00    -0.002 A 
HETATM   11  C15 UNL     1      26.718  -1.536  52.751  1.00  0.00     0.096 A 
BRANCH   7  12
HETATM   12  N1  UNL     1      26.365   1.683  54.780  1.00  0.00    -0.383 N 
HETATM   13  H4  UNL     1      25.354   1.846  55.057  1.00  0.00     0.157 HD
HETATM   14  H5  UNL     1      26.726   2.592  55.103  1.00  0.00     0.157 HD
ENDBRANCH   7  12
BRANCH   8  15
HETATM   15  O1  UNL     1      28.935   1.149  55.081  1.00  0.00    -0.356 OA
HETATM   16  C1  UNL     1      29.713   2.118  54.431  1.00  0.00     0.209 C 
ENDBRANCH   8  15
ENDBRANCH   1   6
BRANCH   3  17
HETATM   17  N4  UNL     1      21.898   1.633  51.860  1.00  0.00    -0.341 N 
HETATM   18  H6  UNL     1      21.065   2.118  52.290  1.00  0.00     0.167 HD
BRANCH  17  19
HETATM   19  C6  UNL     1      22.023   1.904  50.449  1.00  0.00     0.036 A 
HETATM   20  C7  UNL     1      21.605   1.066  49.435  1.00  0.00     0.029 A 
HETATM   21  C8  UNL     1      21.787   1.450  48.116  1.00  0.00     0.005 A 
HETATM   22  C9  UNL     1      22.379   2.659  47.840  1.00  0.00     0.037 A 
HETATM   23  C10 UNL     1      22.798   3.496  48.870  1.00  0.00     0.070 A 
HETATM   24  C12 UNL     1      22.626   3.132  50.189  1.00  0.00     0.066 A 
BRANCH  23  25
HETATM   25  O2  UNL     1      23.388   4.700  48.563  1.00  0.00    -0.356 OA
HETATM   26  C11 UNL     1      24.677   5.025  49.056  1.00  0.00     0.210 C 
ENDBRANCH  23  25
ENDBRANCH  17  19
ENDBRANCH   3  17
TORSDOF 6
ENDMDL
MODEL 6
REMARK VINA RESULT:      -7.1      1.912      2.504
REMARK  6 active torsions:
REMARK  status: ('A' for Active; 'I' for Inactive)
REMARK    1  A    between atoms: O1_2  and  C2_3 
REMARK    2  A    between atoms: C3_4  and  N1_5 
REMARK    3  A    between atoms: N2_6  and  C4_7 
REMARK    4  A    between atoms: C5_9  and  N4_10 
REMARK    5  A    between atoms: N4_10  and  C6_11 
REMARK    6  A    between atoms: C10_15  and  O2_16 
ROOT
HETATM    1  C4  UNL     1      24.237   2.700  52.394  1.00  0.00     0.117 A 
HETATM    2  N3  UNL     1      24.002   3.890  52.850  1.00  0.00    -0.217 NA
HETATM    3  C5  UNL     1      23.611   4.792  51.854  1.00  0.00     0.126 A 
HETATM    4  C13 UNL     1      23.587   4.176  50.692  1.00  0.00     0.031 A 
HETATM    5  C14 UNL     1      23.984   2.772  50.911  1.00  0.00     0.110 A 
ENDROOT
BRANCH   1   6
HETATM    6  N2  UNL     1      24.649   1.548  53.119  1.00  0.00    -0.294 N 
HETATM    7  C3  UNL     1      25.906   1.606  53.786  1.00  0.00     0.136 A 
HETATM    8  C2  UNL     1      26.252   0.517  54.449  1.00  0.00     0.093 A 
HETATM    9  C17 UNL     1      25.496  -0.754  54.583  1.00  0.00     0.097 A 
HETATM   10  C16 UNL     1      24.227  -0.612  53.823  1.00  0.00    -0.002 A 
HETATM   11  C15 UNL     1      23.795   0.410  53.142  1.00  0.00     0.096 A 
BRANCH   7  12
HETATM   12  N1  UNL     1      26.756   2.746  53.760  1.00  0.00    -0.383 N 
HETATM   13  H4  UNL     1      26.492   3.756  53.949  1.00  0.00     0.157 HD
HETATM   14  H5  UNL     1      27.755   2.915  53.573  1.00  0.00     0.157 HD
ENDBRANCH   7  12
BRANCH   8  15
HETATM   15  O1  UNL     1      27.494   0.592  55.100  1.00  0.00    -0.356 OA
HETATM   16  C1  UNL     1      28.570  -0.139  54.576  1.00  0.00     0.209 C 
ENDBRANCH   8  15
ENDBRANCH   1   6
BRANCH   3  17
HETATM   17  N4  UNL     1      23.275   6.168  51.972  1.00  0.00    -0.341 N 
HETATM   18  H6  UNL     1      22.802   6.636  52.791  1.00  0.00     0.167 HD
BRANCH  17  19
HETATM   19  C6  UNL     1      23.575   7.095  50.908  1.00  0.00     0.036 A 
HETATM   20  C7  UNL     1      22.639   7.757  50.138  1.00  0.00     0.029 A 
HETATM   21  C8  UNL     1      23.065   8.623  49.145  1.00  0.00     0.005 A 
HETATM   22  C9  UNL     1      24.411   8.810  48.943  1.00  0.00     0.037 A 
HETATM   23  C10 UNL     1      25.346   8.138  49.725  1.00  0.00     0.070 A 
HETATM   24  C12 UNL     1      24.942   7.272  50.718  1.00  0.00     0.066 A 
BRANCH  23  25
HETATM   25  O2  UNL     1      26.688   8.345  49.499  1.00  0.00    -0.356 OA
HETATM   26  C11 UNL     1      27.412   9.305  50.249  1.00  0.00     0.210 C 
ENDBRANCH  23  25
ENDBRANCH  17  19
ENDBRANCH   3  17
TORSDOF 6
ENDMDL
MODEL 7
REMARK VINA RESULT:      -6.8      2.327      2.998
REMARK  6 active torsions:
REMARK  status: ('A' for Active; 'I' for Inactive)
REMARK    1  A    between atoms: O1_2  and  C2_3 
REMARK    2  A    between atoms: C3_4  and  N1_5 
REMARK    3  A    between atoms: N2_6  and  C4_7 
REMARK    4  A    between atoms: C5_9  and  N4_10 
REMARK    5  A    between atoms: N4_10  and  C6_11 
REMARK    6  A    between atoms: C10_15  and  O2_16 
ROOT
HETATM    1  C4  UNL     1      24.091   2.577  52.460  1.00  0.00     0.117 A 
HETATM    2  N3  UNL     1      23.950   3.803  52.858  1.00  0.00    -0.217 NA
HETATM    3  C5  UNL     1      23.441   4.647  51.865  1.00  0.00     0.126 A 
HETATM    4  C13 UNL     1      23.237   3.955  50.765  1.00  0.00     0.031 A 
HETATM    5  C14 UNL     1      23.630   2.557  51.026  1.00  0.00     0.110 A 
ENDROOT
BRANCH   1   6
HETATM    6  N2  UNL     1      24.576   1.465  53.200  1.00  0.00    -0.294 N 
HETATM    7  C3  UNL     1      25.859   1.588  53.806  1.00  0.00     0.136 A 
HETATM    8  C2  UNL     1      26.274   0.533  54.485  1.00  0.00     0.093 A 
HETATM    9  C17 UNL     1      25.571  -0.758  54.693  1.00  0.00     0.097 A 
HETATM   10  C16 UNL     1      24.265  -0.685  53.988  1.00  0.00    -0.002 A 
HETATM   11  C15 UNL     1      23.765   0.299  53.297  1.00  0.00     0.096 A 
BRANCH   7  12
HETATM   12  N1  UNL     1      26.665   2.755  53.706  1.00  0.00    -0.383 N 
HETATM   13  H4  UNL     1      27.400   3.096  54.391  1.00  0.00     0.157 HD
HETATM   14  H5  UNL     1      26.766   3.524  53.028  1.00  0.00     0.157 HD
ENDBRANCH   7  12
BRANCH   8  15
HETATM   15  O1  UNL     1      27.541   0.672  55.076  1.00  0.00    -0.356 OA
HETATM   16  C1  UNL     1      28.590  -0.130  54.606  1.00  0.00     0.209 C 
ENDBRANCH   8  15
ENDBRANCH   1   6
BRANCH   3  17
HETATM   17  N4  UNL     1      23.157   6.038  51.930  1.00  0.00    -0.341 N 
HETATM   18  H6  UNL     1      22.540   6.526  52.635  1.00  0.00     0.167 HD
BRANCH  17  19
HETATM   19  C6  UNL     1      23.726   6.955  50.972  1.00  0.00     0.036 A 
HETATM   20  C7  UNL     1      25.075   7.164  50.772  1.00  0.00     0.029 A 
HETATM   21  C8  UNL     1      25.488   8.077  49.815  1.00  0.00     0.005 A 
HETATM   22  C9  UNL     1      24.547   8.759  49.083  1.00  0.00     0.037 A 
HETATM   23  C10 UNL     1      23.189   8.541  49.293  1.00  0.00     0.070 A 
HETATM   24  C12 UNL     1      22.758   7.636  50.240  1.00  0.00     0.066 A 
BRANCH  23  25
HETATM   25  O2  UNL     1      22.269   9.240  48.544  1.00  0.00    -0.356 OA
HETATM   26  C11 UNL     1      21.121   9.809  49.149  1.00  0.00     0.210 C 
ENDBRANCH  23  25
ENDBRANCH  17  19
ENDBRANCH   3  17
TORSDOF 6
ENDMDL
MODEL 8
REMARK VINA RESULT:      -6.8      3.021      3.960
REMARK  6 active torsions:
REMARK  status: ('A' for Active; 'I' for Inactive)
REMARK    1  A    between atoms: O1_2  and  C2_3 
REMARK    2  A    between atoms: C3_4  and  N1_5 
REMARK    3  A    between atoms: N2_6  and  C4_7 
REMARK    4  A    between atoms: C5_9  and  N4_10 
REMARK    5  A    between atoms: N4_10  and  C6_11 
REMARK    6  A    between atoms: C10_15  and  O2_16 
ROOT
HETATM    1  C4  UNL     1      24.545   2.941  52.473  1.00  0.00     0.117 A 
HETATM    2  N3  UNL     1      24.930   3.317  51.294  1.00  0.00    -0.217 NA
HETATM    3  C5  UNL     1      24.410   4.561  50.918  1.00  0.00     0.126 A 
HETATM    4  C13 UNL     1      23.651   5.028  51.886  1.00  0.00     0.031 A 
HETATM    5  C14 UNL     1      23.654   4.043  52.984  1.00  0.00     0.110 A 
ENDROOT
BRANCH   1   6
HETATM    6  N2  UNL     1      24.878   1.743  53.164  1.00  0.00    -0.294 N 
HETATM    7  C3  UNL     1      26.141   1.693  53.820  1.00  0.00     0.136 A 
HETATM    8  C2  UNL     1      26.412   0.564  54.451  1.00  0.00     0.093 A 
HETATM    9  C17 UNL     1      25.568  -0.653  54.558  1.00  0.00     0.097 A 
HETATM   10  C16 UNL     1      24.307  -0.399  53.814  1.00  0.00    -0.002 A 
HETATM   11  C15 UNL     1      23.944   0.670  53.164  1.00  0.00     0.096 A 
BRANCH   7  12
HETATM   12  N1  UNL     1      27.070   2.769  53.817  1.00  0.00    -0.383 N 
HETATM   13  H4  UNL     1      27.212   3.506  54.567  1.00  0.00     0.157 HD
HETATM   14  H5  UNL     1      27.792   3.116  53.169  1.00  0.00     0.157 HD
ENDBRANCH   7  12
BRANCH   8  15
HETATM   15  O1  UNL     1      27.661   0.532  55.093  1.00  0.00    -0.356 OA
HETATM   16  C1  UNL     1      28.697  -0.210  54.506  1.00  0.00     0.209 C 
ENDBRANCH   8  15
ENDBRANCH   1   6
BRANCH   3  17
HETATM   17  N4  UNL     1      24.607   5.288  49.713  1.00  0.00    -0.341 N 
HETATM   18  H6  UNL     1      25.409   5.937  49.490  1.00  0.00     0.167 HD
BRANCH  17  19
HETATM   19  C6  UNL     1      23.662   5.190  48.628  1.00  0.00     0.036 A 
HETATM   20  C7  UNL     1      23.331   6.212  47.762  1.00  0.00     0.029 A 
HETATM   21  C8  UNL     1      22.403   5.982  46.759  1.00  0.00     0.005 A 
HETATM   22  C9  UNL     1      21.828   4.740  46.644  1.00  0.00     0.037 A 
HETATM   23  C10 UNL     1      22.168   3.715  47.523  1.00  0.00     0.070 A 
HETATM   24  C12 UNL     1      23.089   3.925  48.527  1.00  0.00     0.066 A 
BRANCH  23  25
HETATM   25  O2  UNL     1      21.575   2.482  47.383  1.00  0.00    -0.356 OA
HETATM   26  C11 UNL     1      21.732   1.483  48.377  1.00  0.00     0.210 C 
ENDBRANCH  23  25
ENDBRANCH  17  19
ENDBRANCH   3  17
TORSDOF 6
ENDMDL
MODEL 9
REMARK VINA RESULT:      -6.8      1.845      2.917
REMARK  6 active torsions:
REMARK  status: ('A' for Active; 'I' for Inactive)
REMARK    1  A    between atoms: O1_2  and  C2_3 
REMARK    2  A    between atoms: C3_4  and  N1_5 
REMARK    3  A    between atoms: N2_6  and  C4_7 
REMARK    4  A    between atoms: C5_9  and  N4_10 
REMARK    5  A    between atoms: N4_10  and  C6_11 
REMARK    6  A    between atoms: C10_15  and  O2_16 
ROOT
HETATM    1  C4  UNL     1      24.334   2.883  52.070  1.00  0.00     0.117 A 
HETATM    2  N3  UNL     1      24.520   3.069  50.800  1.00  0.00    -0.217 NA
HETATM    3  C5  UNL     1      24.234   4.376  50.390  1.00  0.00     0.126 A 
HETATM    4  C13 UNL     1      23.843   5.084  51.427  1.00  0.00     0.031 A 
HETATM    5  C14 UNL     1      23.865   4.208  52.613  1.00  0.00     0.110 A 
ENDROOT
BRANCH   1   6
HETATM    6  N2  UNL     1      24.526   1.690  52.819  1.00  0.00    -0.294 N 
HETATM    7  C3  UNL     1      23.491   0.713  52.775  1.00  0.00     0.136 A 
HETATM    8  C2  UNL     1      23.707  -0.381  53.483  1.00  0.00     0.093 A 
HETATM    9  C17 UNL     1      24.890  -0.715  54.316  1.00  0.00     0.097 A 
HETATM   10  C16 UNL     1      25.843   0.421  54.230  1.00  0.00    -0.002 A 
HETATM   11  C15 UNL     1      25.727   1.535  53.566  1.00  0.00     0.096 A 
BRANCH   7  12
HETATM   12  N1  UNL     1      22.292   0.873  52.027  1.00  0.00    -0.383 N 
HETATM   13  H4  UNL     1      22.005   1.704  51.432  1.00  0.00     0.157 HD
HETATM   14  H5  UNL     1      21.448   0.307  51.859  1.00  0.00     0.157 HD
ENDBRANCH   7  12
BRANCH   8  15
HETATM   15  O1  UNL     1      22.676  -1.334  53.428  1.00  0.00    -0.356 OA
HETATM   16  C1  UNL     1      21.842  -1.483  54.545  1.00  0.00     0.209 C 
ENDBRANCH   8  15
ENDBRANCH   1   6
BRANCH   3  17
HETATM   17  N4  UNL     1      24.318   4.946  49.090  1.00  0.00    -0.341 N 
HETATM   18  H6  UNL     1      23.610   4.856  48.313  1.00  0.00     0.167 HD
BRANCH  17  19
HETATM   19  C6  UNL     1      25.456   5.746  48.706  1.00  0.00     0.036 A 
HETATM   20  C7  UNL     1      25.401   7.052  48.265  1.00  0.00     0.029 A 
HETATM   21  C8  UNL     1      26.575   7.706  47.927  1.00  0.00     0.005 A 
HETATM   22  C9  UNL     1      27.773   7.043  48.038  1.00  0.00     0.037 A 
HETATM   23  C10 UNL     1      27.817   5.726  48.484  1.00  0.00     0.070 A 
HETATM   24  C12 UNL     1      26.660   5.058  48.825  1.00  0.00     0.066 A 
BRANCH  23  25
HETATM   25  O2  UNL     1      29.032   5.088  48.584  1.00  0.00    -0.356 OA
HETATM   26  C11 UNL     1      30.244   5.795  48.383  1.00  0.00     0.210 C 
ENDBRANCH  23  25
ENDBRANCH  17  19
ENDBRANCH   3  17
TORSDOF 6
ENDMDL
