MODEL 1
REMARK VINA RESULT:      -9.4      0.000      0.000
REMARK  7 active torsions:
REMARK  status: ('A' for Active; 'I' for Inactive)
REMARK       I    between atoms: C2_2  and  N1_4 
REMARK    1  A    between atoms: N1_4  and  C3_5 
REMARK    2  A    between atoms: C7_9  and  O2_10 
REMARK    3  A    between atoms: O2_10  and  C8_11 
REMARK    4  A    between atoms: N4_16  and  C11_17 
REMARK    5  A    between atoms: C14_20  and  O3_21 
REMARK    6  A    between atoms: O3_21  and  C15_22 
REMARK    7  A    between atoms: C15_22  and  C16_23 
ROOT
HETATM    1  C8  UNL     1      21.540   0.558  53.244  1.00  0.00     0.367 A 
HETATM    2  N2  UNL     1      20.849  -0.463  54.056  1.00  0.00    -0.231 NA
HETATM    3  C9  UNL     1      19.705  -0.936  53.760  1.00  0.00     0.233 A 
HETATM    4  N3  UNL     1      18.925  -0.562  52.623  1.00  0.00    -0.237 NA
HETATM    5  C10 UNL     1      19.457   0.339  51.854  1.00  0.00     0.215 A 
HETATM    6  N4  UNL     1      20.729   0.932  52.103  1.00  0.00    -0.295 N 
ENDROOT
BRANCH   6   7
HETATM    7  C11 UNL     1      21.180   1.912  51.180  1.00  0.00     0.041 A 
HETATM    8  C12 UNL     1      21.207   3.266  51.463  1.00  0.00     0.032 A 
HETATM    9  C13 UNL     1      21.646   4.248  50.600  1.00  0.00     0.041 A 
HETATM   10  C14 UNL     1      22.100   3.879  49.350  1.00  0.00     0.091 A 
HETATM   11  C22 UNL     1      22.099   2.533  49.003  1.00  0.00     0.069 A 
HETATM   12 CL1  UNL     1      22.682   2.097  47.411  1.00  0.00    -0.081 Cl
HETATM   13  C23 UNL     1      21.645   1.608  49.919  1.00  0.00     0.056 A 
BRANCH  10  14
HETATM   14  O3  UNL     1      22.547   4.851  48.466  1.00  0.00    -0.345 OA
BRANCH  14  15
HETATM   15  C15 UNL     1      23.378   5.927  48.925  1.00  0.00     0.214 C 
BRANCH  15  16
HETATM   16  C16 UNL     1      24.799   5.564  48.903  1.00  0.00    -0.031 A 
HETATM   17  C17 UNL     1      25.811   6.373  48.446  1.00  0.00     0.009 A 
HETATM   18  C18 UNL     1      27.143   5.989  48.444  1.00  0.00     0.004 A 
HETATM   19  C19 UNL     1      27.442   4.716  48.934  1.00  0.00     0.042 A 
HETATM   20  C20 UNL     1      26.446   3.872  49.403  1.00  0.00     0.117 A 
HETATM   21  F1  UNL     1      26.795   2.632  49.874  1.00  0.00    -0.206 F 
HETATM   22  C21 UNL     1      25.132   4.300  49.386  1.00  0.00     0.051 A 
ENDBRANCH  15  16
ENDBRANCH  14  15
ENDBRANCH  10  14
ENDBRANCH   6   7
BRANCH   1  23
HETATM   23  O2  UNL     1      22.716  -0.102  52.768  1.00  0.00    -0.306 OA
BRANCH  23  24
HETATM   24  C7  UNL     1      23.982   0.424  52.892  1.00  0.00     0.075 A 
HETATM   25  C6  UNL     1      23.904   1.789  53.162  1.00  0.00     0.037 A 
HETATM   26  C5  UNL     1      25.016   2.590  53.337  1.00  0.00     0.005 A 
HETATM   27  C4  UNL     1      26.283   2.032  53.247  1.00  0.00     0.029 A 
HETATM   28  C3  UNL     1      26.362   0.679  52.979  1.00  0.00     0.037 A 
HETATM   29  C24 UNL     1      25.254  -0.115  52.804  1.00  0.00     0.066 A 
BRANCH  28  30
HETATM   30  N1  UNL     1      27.576  -0.078  52.848  1.00  0.00    -0.327 N 
HETATM   31  C2  UNL     1      28.407  -0.514  53.937  1.00  0.00     0.218 C 
HETATM   32  C1  UNL     1      29.602  -1.284  53.449  1.00  0.00     0.117 C 
HETATM   33  O1  UNL     1      28.040  -0.209  55.102  1.00  0.00    -0.274 OA
HETATM   34  H4  UNL     1      27.757  -0.258  51.843  1.00  0.00     0.169 HD
ENDBRANCH  28  30
ENDBRANCH  23  24
ENDBRANCH   1  23
TORSDOF 7
ENDMDL
MODEL 2
REMARK VINA RESULT:      -9.3      2.058      2.713
REMARK  7 active torsions:
REMARK  status: ('A' for Active; 'I' for Inactive)
REMARK       I    between atoms: C2_2  and  N1_4 
REMARK    1  A    between atoms: N1_4  and  C3_5 
REMARK    2  A    between atoms: C7_9  and  O2_10 
REMARK    3  A    between atoms: O2_10  and  C8_11 
REMARK    4  A    between atoms: N4_16  and  C11_17 
REMARK    5  A    between atoms: C14_20  and  O3_21 
REMARK    6  A    between atoms: O3_21  and  C15_22 
REMARK    7  A    between atoms: C15_22  and  C16_23 
ROOT
HETATM    1  C8  UNL     1      20.009  -0.185  53.155  1.00  0.00     0.367 A 
HETATM    2  N2  UNL     1      18.822  -0.986  53.519  1.00  0.00    -0.231 NA
HETATM    3  C9  UNL     1      17.796  -1.092  52.773  1.00  0.00     0.233 A 
HETATM    4  N3  UNL     1      17.632  -0.469  51.498  1.00  0.00    -0.237 NA
HETATM    5  C10 UNL     1      18.630   0.261  51.101  1.00  0.00     0.215 A 
HETATM    6  N4  UNL     1      19.818   0.447  51.865  1.00  0.00    -0.295 N 
ENDROOT
BRANCH   6   7
HETATM    7  C11 UNL     1      20.824   1.281  51.309  1.00  0.00     0.041 A 
HETATM    8  C12 UNL     1      21.370   1.077  50.054  1.00  0.00     0.032 A 
HETATM    9  C13 UNL     1      22.340   1.868  49.474  1.00  0.00     0.041 A 
HETATM   10  C14 UNL     1      22.820   2.954  50.177  1.00  0.00     0.091 A 
HETATM   11  C22 UNL     1      22.312   3.214  51.445  1.00  0.00     0.069 A 
HETATM   12 CL1  UNL     1      22.941   4.599  52.311  1.00  0.00    -0.081 Cl
HETATM   13  C23 UNL     1      21.343   2.379  51.960  1.00  0.00     0.056 A 
BRANCH  10  14
HETATM   14  O3  UNL     1      23.795   3.763  49.612  1.00  0.00    -0.345 OA
BRANCH  14  15
HETATM   15  C15 UNL     1      25.157   3.680  50.053  1.00  0.00     0.214 C 
BRANCH  15  16
HETATM   16  C16 UNL     1      25.990   4.725  49.447  1.00  0.00    -0.031 A 
HETATM   17  C17 UNL     1      25.620   6.040  49.303  1.00  0.00     0.009 A 
HETATM   18  C18 UNL     1      26.440   6.997  48.723  1.00  0.00     0.004 A 
HETATM   19  C19 UNL     1      27.694   6.576  48.274  1.00  0.00     0.042 A 
HETATM   20  C20 UNL     1      28.101   5.256  48.403  1.00  0.00     0.117 A 
HETATM   21  F1  UNL     1      29.342   4.897  47.946  1.00  0.00    -0.206 F 
HETATM   22  C21 UNL     1      27.247   4.339  48.989  1.00  0.00     0.051 A 
ENDBRANCH  15  16
ENDBRANCH  14  15
ENDBRANCH  10  14
ENDBRANCH   6   7
BRANCH   1  23
HETATM   23  O2  UNL     1      21.063  -1.145  53.039  1.00  0.00    -0.306 OA
BRANCH  23  24
HETATM   24  C7  UNL     1      22.319  -0.957  53.570  1.00  0.00     0.075 A 
HETATM   25  C6  UNL     1      22.352  -1.420  54.884  1.00  0.00     0.037 A 
HETATM   26  C5  UNL     1      23.482  -1.364  55.677  1.00  0.00     0.005 A 
HETATM   27  C4  UNL     1      24.654  -0.827  55.162  1.00  0.00     0.029 A 
HETATM   28  C3  UNL     1      24.622  -0.369  53.859  1.00  0.00     0.037 A 
HETATM   29  C24 UNL     1      23.497  -0.425  53.074  1.00  0.00     0.066 A 
BRANCH  28  30
HETATM   30  N1  UNL     1      25.727   0.218  53.152  1.00  0.00    -0.327 N 
HETATM   31  C2  UNL     1      26.025   1.623  53.092  1.00  0.00     0.218 C 
HETATM   32  C1  UNL     1      27.251   1.895  52.267  1.00  0.00     0.117 C 
HETATM   33  O1  UNL     1      25.256   2.404  53.713  1.00  0.00    -0.274 OA
HETATM   34  H4  UNL     1      26.272  -0.534  52.691  1.00  0.00     0.169 HD
ENDBRANCH  28  30
ENDBRANCH  23  24
ENDBRANCH   1  23
TORSDOF 7
ENDMDL
MODEL 3
REMARK VINA RESULT:      -9.3      2.992      5.894
REMARK  7 active torsions:
REMARK  status: ('A' for Active; 'I' for Inactive)
REMARK       I    between atoms: C2_2  and  N1_4 
REMARK    1  A    between atoms: N1_4  and  C3_5 
REMARK    2  A    between atoms: C7_9  and  O2_10 
REMARK    3  A    between atoms: O2_10  and  C8_11 
REMARK    4  A    between atoms: N4_16  and  C11_17 
REMARK    5  A    between atoms: C14_20  and  O3_21 
REMARK    6  A    between atoms: O3_21  and  C15_22 
REMARK    7  A    between atoms: C15_22  and  C16_23 
ROOT
HETATM    1  C8  UNL     1      25.987   3.708  49.500  1.00  0.00     0.367 A 
HETATM    2  N2  UNL     1      27.345   4.178  49.158  1.00  0.00    -0.231 NA
HETATM    3  C9  UNL     1      27.582   5.321  48.650  1.00  0.00     0.233 A 
HETATM    4  N3  UNL     1      26.597   6.305  48.335  1.00  0.00    -0.237 NA
HETATM    5  C10 UNL     1      25.369   5.972  48.599  1.00  0.00     0.215 A 
HETATM    6  N4  UNL     1      25.002   4.715  49.162  1.00  0.00    -0.295 N 
ENDROOT
BRANCH   6   7
HETATM    7  C11 UNL     1      23.620   4.485  49.389  1.00  0.00     0.041 A 
HETATM    8  C12 UNL     1      22.802   5.375  50.063  1.00  0.00     0.032 A 
HETATM    9  C13 UNL     1      21.455   5.194  50.295  1.00  0.00     0.041 A 
HETATM   10  C14 UNL     1      20.849   4.045  49.829  1.00  0.00     0.091 A 
HETATM   11  C22 UNL     1      21.615   3.109  49.144  1.00  0.00     0.069 A 
HETATM   12 CL1  UNL     1      20.817   1.662  48.565  1.00  0.00    -0.081 Cl
HETATM   13  C23 UNL     1      22.957   3.359  48.950  1.00  0.00     0.056 A 
BRANCH  10  14
HETATM   14  O3  UNL     1      19.494   3.843  50.052  1.00  0.00    -0.345 OA
BRANCH  14  15
HETATM   15  C15 UNL     1      18.996   3.636  51.381  1.00  0.00     0.214 C 
BRANCH  15  16
HETATM   16  C16 UNL     1      19.242   2.266  51.845  1.00  0.00    -0.031 A 
HETATM   17  C17 UNL     1      18.551   1.156  51.422  1.00  0.00     0.009 A 
HETATM   18  C18 UNL     1      18.817  -0.123  51.889  1.00  0.00     0.004 A 
HETATM   19  C19 UNL     1      19.838  -0.259  52.831  1.00  0.00     0.042 A 
HETATM   20  C20 UNL     1      20.557   0.838  53.281  1.00  0.00     0.117 A 
HETATM   21  F1  UNL     1      21.550   0.647  54.206  1.00  0.00    -0.206 F 
HETATM   22  C21 UNL     1      20.255   2.094  52.785  1.00  0.00     0.051 A 
ENDBRANCH  15  16
ENDBRANCH  14  15
ENDBRANCH  10  14
ENDBRANCH   6   7
BRANCH   1  23
HETATM   23  O2  UNL     1      26.012   3.553  50.921  1.00  0.00    -0.306 OA
BRANCH  23  24
HETATM   24  C7  UNL     1      26.029   2.329  51.550  1.00  0.00     0.075 A 
HETATM   25  C6  UNL     1      24.733   1.956  51.897  1.00  0.00     0.037 A 
HETATM   26  C5  UNL     1      24.434   0.772  52.544  1.00  0.00     0.005 A 
HETATM   27  C4  UNL     1      25.457  -0.105  52.873  1.00  0.00     0.029 A 
HETATM   28  C3  UNL     1      26.744   0.263  52.528  1.00  0.00     0.037 A 
HETATM   29  C24 UNL     1      27.037   1.441  51.886  1.00  0.00     0.066 A 
BRANCH  28  30
HETATM   30  N1  UNL     1      27.930  -0.506  52.782  1.00  0.00    -0.327 N 
HETATM   31  C2  UNL     1      28.751  -0.406  53.959  1.00  0.00     0.218 C 
HETATM   32  C1  UNL     1      29.917  -1.354  53.904  1.00  0.00     0.117 C 
HETATM   33  O1  UNL     1      28.399   0.421  54.840  1.00  0.00    -0.274 OA
HETATM   34  H4  UNL     1      28.101  -1.142  51.981  1.00  0.00     0.169 HD
ENDBRANCH  28  30
ENDBRANCH  23  24
ENDBRANCH   1  23
TORSDOF 7
ENDMDL
MODEL 4
REMARK VINA RESULT:      -9.3      2.163      5.363
REMARK  7 active torsions:
REMARK  status: ('A' for Active; 'I' for Inactive)
REMARK       I    between atoms: C2_2  and  N1_4 
REMARK    1  A    between atoms: N1_4  and  C3_5 
REMARK    2  A    between atoms: C7_9  and  O2_10 
REMARK    3  A    between atoms: O2_10  and  C8_11 
REMARK    4  A    between atoms: N4_16  and  C11_17 
REMARK    5  A    between atoms: C14_20  and  O3_21 
REMARK    6  A    between atoms: O3_21  and  C15_22 
REMARK    7  A    between atoms: C15_22  and  C16_23 
ROOT
HETATM    1  C8  UNL     1      26.527  -0.010  53.616  1.00  0.00     0.367 A 
HETATM    2  N2  UNL     1      27.716  -0.594  54.268  1.00  0.00    -0.231 NA
HETATM    3  C9  UNL     1      28.727   0.093  54.623  1.00  0.00     0.233 A 
HETATM    4  N3  UNL     1      28.869   1.504  54.452  1.00  0.00    -0.237 NA
HETATM    5  C10 UNL     1      27.867   2.100  53.879  1.00  0.00     0.215 A 
HETATM    6  N4  UNL     1      26.695   1.419  53.440  1.00  0.00    -0.295 N 
ENDROOT
BRANCH   6   7
HETATM    7  C11 UNL     1      25.684   2.199  52.822  1.00  0.00     0.041 A 
HETATM    8  C12 UNL     1      24.804   3.000  53.528  1.00  0.00     0.032 A 
HETATM    9  C13 UNL     1      23.816   3.780  52.966  1.00  0.00     0.041 A 
HETATM   10  C14 UNL     1      23.670   3.781  51.594  1.00  0.00     0.091 A 
HETATM   11  C22 UNL     1      24.522   2.997  50.825  1.00  0.00     0.069 A 
HETATM   12 CL1  UNL     1      24.313   3.020  49.087  1.00  0.00    -0.081 Cl
HETATM   13  C23 UNL     1      25.488   2.243  51.458  1.00  0.00     0.056 A 
BRANCH  10  14
HETATM   14  O3  UNL     1      22.682   4.559  51.007  1.00  0.00    -0.345 OA
BRANCH  14  15
HETATM   15  C15 UNL     1      22.743   5.991  51.078  1.00  0.00     0.214 C 
BRANCH  15  16
HETATM   16  C16 UNL     1      23.751   6.537  50.163  1.00  0.00    -0.031 A 
HETATM   17  C17 UNL     1      23.676   6.491  48.792  1.00  0.00     0.009 A 
HETATM   18  C18 UNL     1      24.653   7.022  47.963  1.00  0.00     0.004 A 
HETATM   19  C19 UNL     1      25.752   7.626  48.577  1.00  0.00     0.042 A 
HETATM   20  C20 UNL     1      25.861   7.691  49.958  1.00  0.00     0.117 A 
HETATM   21  F1  UNL     1      26.962   8.296  50.509  1.00  0.00    -0.206 F 
HETATM   22  C21 UNL     1      24.861   7.148  50.743  1.00  0.00     0.051 A 
ENDBRANCH  15  16
ENDBRANCH  14  15
ENDBRANCH  10  14
ENDBRANCH   6   7
BRANCH   1  23
HETATM   23  O2  UNL     1      25.466  -0.231  54.548  1.00  0.00    -0.306 OA
BRANCH  23  24
HETATM   24  C7  UNL     1      24.167  -0.490  54.171  1.00  0.00     0.075 A 
HETATM   25  C6  UNL     1      23.517  -1.205  55.173  1.00  0.00     0.037 A 
HETATM   26  C5  UNL     1      22.199  -1.610  55.080  1.00  0.00     0.005 A 
HETATM   27  C4  UNL     1      21.467  -1.302  53.942  1.00  0.00     0.029 A 
HETATM   28  C3  UNL     1      22.111  -0.593  52.947  1.00  0.00     0.037 A 
HETATM   29  C24 UNL     1      23.422  -0.192  53.043  1.00  0.00     0.066 A 
BRANCH  28  30
HETATM   30  N1  UNL     1      21.527  -0.181  51.701  1.00  0.00    -0.327 N 
HETATM   31  C2  UNL     1      20.871   1.077  51.464  1.00  0.00     0.218 C 
HETATM   32  C1  UNL     1      20.373   1.185  50.050  1.00  0.00     0.117 C 
HETATM   33  O1  UNL     1      20.806   1.885  52.428  1.00  0.00    -0.274 OA
HETATM   34  H4  UNL     1      21.651  -0.936  51.001  1.00  0.00     0.169 HD
ENDBRANCH  28  30
ENDBRANCH  23  24
ENDBRANCH   1  23
TORSDOF 7
ENDMDL
MODEL 5
REMARK VINA RESULT:      -9.1      2.335      5.863
REMARK  7 active torsions:
REMARK  status: ('A' for Active; 'I' for Inactive)
REMARK       I    between atoms: C2_2  and  N1_4 
REMARK    1  A    between atoms: N1_4  and  C3_5 
REMARK    2  A    between atoms: C7_9  and  O2_10 
REMARK    3  A    between atoms: O2_10  and  C8_11 
REMARK    4  A    between atoms: N4_16  and  C11_17 
REMARK    5  A    between atoms: C14_20  and  O3_21 
REMARK    6  A    between atoms: O3_21  and  C15_22 
REMARK    7  A    between atoms: C15_22  and  C16_23 
ROOT
HETATM    1  C8  UNL     1      26.796  -0.330  53.321  1.00  0.00     0.367 A 
HETATM    2  N2  UNL     1      27.918  -1.141  53.835  1.00  0.00    -0.231 NA
HETATM    3  C9  UNL     1      29.089  -0.675  54.019  1.00  0.00     0.233 A 
HETATM    4  N3  UNL     1      29.494   0.670  53.764  1.00  0.00    -0.237 NA
HETATM    5  C10 UNL     1      28.567   1.454  53.303  1.00  0.00     0.215 A 
HETATM    6  N4  UNL     1      27.230   1.027  53.057  1.00  0.00    -0.295 N 
ENDROOT
BRANCH   6   7
HETATM    7  C11 UNL     1      26.325   1.992  52.542  1.00  0.00     0.041 A 
HETATM    8  C12 UNL     1      25.251   2.486  53.262  1.00  0.00     0.032 A 
HETATM    9  C13 UNL     1      24.356   3.429  52.804  1.00  0.00     0.041 A 
HETATM   10  C14 UNL     1      24.519   3.937  51.531  1.00  0.00     0.091 A 
HETATM   11  C22 UNL     1      25.578   3.482  50.755  1.00  0.00     0.069 A 
HETATM   12 CL1  UNL     1      25.759   4.146  49.145  1.00  0.00    -0.081 Cl
HETATM   13  C23 UNL     1      26.434   2.537  51.281  1.00  0.00     0.056 A 
BRANCH  10  14
HETATM   14  O3  UNL     1      23.630   4.888  51.050  1.00  0.00    -0.345 OA
BRANCH  14  15
HETATM   15  C15 UNL     1      22.303   4.511  50.658  1.00  0.00     0.214 C 
BRANCH  15  16
HETATM   16  C16 UNL     1      22.271   3.979  49.291  1.00  0.00    -0.031 A 
HETATM   17  C17 UNL     1      22.396   2.651  48.962  1.00  0.00     0.009 A 
HETATM   18  C18 UNL     1      22.359   2.190  47.654  1.00  0.00     0.004 A 
HETATM   19  C19 UNL     1      22.186   3.141  46.647  1.00  0.00     0.042 A 
HETATM   20  C20 UNL     1      22.055   4.490  46.942  1.00  0.00     0.117 A 
HETATM   21  F1  UNL     1      21.887   5.381  45.914  1.00  0.00    -0.206 F 
HETATM   22  C21 UNL     1      22.098   4.901  48.262  1.00  0.00     0.051 A 
ENDBRANCH  15  16
ENDBRANCH  14  15
ENDBRANCH  10  14
ENDBRANCH   6   7
BRANCH   1  23
HETATM   23  O2  UNL     1      25.854  -0.306  54.395  1.00  0.00    -0.306 OA
BRANCH  23  24
HETATM   24  C7  UNL     1      24.518  -0.598  54.238  1.00  0.00     0.075 A 
HETATM   25  C6  UNL     1      24.048  -1.279  55.359  1.00  0.00     0.037 A 
HETATM   26  C5  UNL     1      22.740  -1.707  55.490  1.00  0.00     0.005 A 
HETATM   27  C4  UNL     1      21.832  -1.456  54.471  1.00  0.00     0.029 A 
HETATM   28  C3  UNL     1      22.297  -0.781  53.359  1.00  0.00     0.037 A 
HETATM   29  C24 UNL     1      23.598  -0.358  53.231  1.00  0.00     0.066 A 
BRANCH  28  30
HETATM   30  N1  UNL     1      21.516  -0.430  52.206  1.00  0.00    -0.327 N 
HETATM   31  C2  UNL     1      20.549   0.633  52.147  1.00  0.00     0.218 C 
HETATM   32  C1  UNL     1      19.911   0.728  50.790  1.00  0.00     0.117 C 
HETATM   33  O1  UNL     1      20.375   1.314  53.192  1.00  0.00    -0.274 OA
HETATM   34  H4  UNL     1      21.759  -1.067  51.425  1.00  0.00     0.169 HD
ENDBRANCH  28  30
ENDBRANCH  23  24
ENDBRANCH   1  23
TORSDOF 7
ENDMDL
MODEL 6
REMARK VINA RESULT:      -9.0      3.678      8.091
REMARK  7 active torsions:
REMARK  status: ('A' for Active; 'I' for Inactive)
REMARK       I    between atoms: C2_2  and  N1_4 
REMARK    1  A    between atoms: N1_4  and  C3_5 
REMARK    2  A    between atoms: C7_9  and  O2_10 
REMARK    3  A    between atoms: O2_10  and  C8_11 
REMARK    4  A    between atoms: N4_16  and  C11_17 
REMARK    5  A    between atoms: C14_20  and  O3_21 
REMARK    6  A    between atoms: O3_21  and  C15_22 
REMARK    7  A    between atoms: C15_22  and  C16_23 
ROOT
HETATM    1  C8  UNL     1      26.563   2.119  52.686  1.00  0.00     0.367 A 
HETATM    2  N2  UNL     1      28.035   2.042  52.763  1.00  0.00    -0.231 NA
HETATM    3  C9  UNL     1      28.657   1.056  53.276  1.00  0.00     0.233 A 
HETATM    4  N3  UNL     1      28.046  -0.103  53.843  1.00  0.00    -0.237 NA
HETATM    5  C10 UNL     1      26.747  -0.116  53.821  1.00  0.00     0.215 A 
HETATM    6  N4  UNL     1      25.961   0.941  53.277  1.00  0.00    -0.295 N 
ENDROOT
BRANCH   6   7
HETATM    7  C11 UNL     1      24.550   0.794  53.330  1.00  0.00     0.041 A 
HETATM    8  C12 UNL     1      23.669   1.761  52.880  1.00  0.00     0.032 A 
HETATM    9  C13 UNL     1      22.294   1.654  52.905  1.00  0.00     0.041 A 
HETATM   10  C14 UNL     1      21.726   0.504  53.413  1.00  0.00     0.091 A 
HETATM   11  C22 UNL     1      22.556  -0.507  53.882  1.00  0.00     0.069 A 
HETATM   12 CL1  UNL     1      21.806  -1.954  54.520  1.00  0.00    -0.081 Cl
HETATM   13  C23 UNL     1      23.923  -0.329  53.825  1.00  0.00     0.056 A 
BRANCH  10  14
HETATM   14  O3  UNL     1      20.345   0.375  53.446  1.00  0.00    -0.345 OA
BRANCH  14  15
HETATM   15  C15 UNL     1      19.578   0.432  52.236  1.00  0.00     0.214 C 
BRANCH  15  16
HETATM   16  C16 UNL     1      18.391  -0.428  52.304  1.00  0.00    -0.031 A 
HETATM   17  C17 UNL     1      17.245  -0.246  51.569  1.00  0.00     0.009 A 
HETATM   18  C18 UNL     1      16.145  -1.085  51.664  1.00  0.00     0.004 A 
HETATM   19  C19 UNL     1      16.234  -2.156  52.555  1.00  0.00     0.042 A 
HETATM   20  C20 UNL     1      17.375  -2.371  53.313  1.00  0.00     0.117 A 
HETATM   21  F1  UNL     1      17.410  -3.438  54.173  1.00  0.00    -0.206 F 
HETATM   22  C21 UNL     1      18.447  -1.507  53.183  1.00  0.00     0.051 A 
ENDBRANCH  15  16
ENDBRANCH  14  15
ENDBRANCH  10  14
ENDBRANCH   6   7
BRANCH   1  23
HETATM   23  O2  UNL     1      26.280   2.119  51.284  1.00  0.00    -0.306 OA
BRANCH  23  24
HETATM   24  C7  UNL     1      25.921   3.249  50.584  1.00  0.00     0.075 A 
HETATM   25  C6  UNL     1      26.955   3.623  49.727  1.00  0.00     0.037 A 
HETATM   26  C5  UNL     1      26.885   4.723  48.894  1.00  0.00     0.005 A 
HETATM   27  C4  UNL     1      25.742   5.509  48.891  1.00  0.00     0.029 A 
HETATM   28  C3  UNL     1      24.716   5.139  49.740  1.00  0.00     0.037 A 
HETATM   29  C24 UNL     1      24.789   4.045  50.568  1.00  0.00     0.066 A 
BRANCH  28  30
HETATM   30  N1  UNL     1      23.460   5.821  49.881  1.00  0.00    -0.327 N 
HETATM   31  C2  UNL     1      23.235   6.993  50.683  1.00  0.00     0.218 C 
HETATM   32  C1  UNL     1      21.804   7.450  50.607  1.00  0.00     0.117 C 
HETATM   33  O1  UNL     1      24.220   7.462  51.311  1.00  0.00    -0.274 OA
HETATM   34  H4  UNL     1      22.742   5.331  49.314  1.00  0.00     0.169 HD
ENDBRANCH  28  30
ENDBRANCH  23  24
ENDBRANCH   1  23
TORSDOF 7
ENDMDL
MODEL 7
REMARK VINA RESULT:      -8.8      2.745      6.424
REMARK  7 active torsions:
REMARK  status: ('A' for Active; 'I' for Inactive)
REMARK       I    between atoms: C2_2  and  N1_4 
REMARK    1  A    between atoms: N1_4  and  C3_5 
REMARK    2  A    between atoms: C7_9  and  O2_10 
REMARK    3  A    between atoms: O2_10  and  C8_11 
REMARK    4  A    between atoms: N4_16  and  C11_17 
REMARK    5  A    between atoms: C14_20  and  O3_21 
REMARK    6  A    between atoms: O3_21  and  C15_22 
REMARK    7  A    between atoms: C15_22  and  C16_23 
ROOT
HETATM    1  C8  UNL     1      25.981   1.961  53.078  1.00  0.00     0.367 A 
HETATM    2  N2  UNL     1      27.371   1.751  53.528  1.00  0.00    -0.231 NA
HETATM    3  C9  UNL     1      27.751   0.717  54.167  1.00  0.00     0.233 A 
HETATM    4  N3  UNL     1      26.913  -0.377  54.541  1.00  0.00    -0.237 NA
HETATM    5  C10 UNL     1      25.667  -0.272  54.188  1.00  0.00     0.215 A 
HETATM    6  N4  UNL     1      25.145   0.847  53.478  1.00  0.00    -0.295 N 
ENDROOT
BRANCH   6   7
HETATM    7  C11 UNL     1      23.760   0.829  53.167  1.00  0.00     0.041 A 
HETATM    8  C12 UNL     1      23.023  -0.337  53.052  1.00  0.00     0.032 A 
HETATM    9  C13 UNL     1      21.676  -0.397  52.762  1.00  0.00     0.041 A 
HETATM   10  C14 UNL     1      20.985   0.781  52.567  1.00  0.00     0.091 A 
HETATM   11  C22 UNL     1      21.667   1.988  52.668  1.00  0.00     0.069 A 
HETATM   12 CL1  UNL     1      20.762   3.464  52.416  1.00  0.00    -0.081 Cl
HETATM   13  C23 UNL     1      23.014   1.969  52.961  1.00  0.00     0.056 A 
BRANCH  10  14
HETATM   14  O3  UNL     1      19.629   0.742  52.274  1.00  0.00    -0.345 OA
BRANCH  14  15
HETATM   15  C15 UNL     1      19.171   0.277  50.997  1.00  0.00     0.214 C 
BRANCH  15  16
HETATM   16  C16 UNL     1      19.582   1.176  49.912  1.00  0.00    -0.031 A 
HETATM   17  C17 UNL     1      18.844   2.240  49.451  1.00  0.00     0.009 A 
HETATM   18  C18 UNL     1      19.272   3.066  48.422  1.00  0.00     0.004 A 
HETATM   19  C19 UNL     1      20.511   2.780  47.847  1.00  0.00     0.042 A 
HETATM   20  C20 UNL     1      21.283   1.715  48.287  1.00  0.00     0.117 A 
HETATM   21  F1  UNL     1      22.493   1.479  47.687  1.00  0.00    -0.206 F 
HETATM   22  C21 UNL     1      20.815   0.920  49.317  1.00  0.00     0.051 A 
ENDBRANCH  15  16
ENDBRANCH  14  15
ENDBRANCH  10  14
ENDBRANCH   6   7
BRANCH   1  23
HETATM   23  O2  UNL     1      26.067   1.976  51.651  1.00  0.00    -0.306 OA
BRANCH  23  24
HETATM   24  C7  UNL     1      25.739   3.070  50.883  1.00  0.00     0.075 A 
HETATM   25  C6  UNL     1      26.783   3.366  50.010  1.00  0.00     0.037 A 
HETATM   26  C5  UNL     1      26.744   4.416  49.113  1.00  0.00     0.005 A 
HETATM   27  C4  UNL     1      25.622   5.229  49.059  1.00  0.00     0.029 A 
HETATM   28  C3  UNL     1      24.585   4.937  49.925  1.00  0.00     0.037 A 
HETATM   29  C24 UNL     1      24.627   3.893  50.816  1.00  0.00     0.066 A 
BRANCH  28  30
HETATM   30  N1  UNL     1      23.347   5.659  50.020  1.00  0.00    -0.327 N 
HETATM   31  C2  UNL     1      23.158   6.899  50.724  1.00  0.00     0.218 C 
HETATM   32  C1  UNL     1      21.738   7.382  50.625  1.00  0.00     0.117 C 
HETATM   33  O1  UNL     1      24.161   7.393  51.303  1.00  0.00    -0.274 OA
HETATM   34  H4  UNL     1      22.612   5.142  49.503  1.00  0.00     0.169 HD
ENDBRANCH  28  30
ENDBRANCH  23  24
ENDBRANCH   1  23
TORSDOF 7
ENDMDL
MODEL 8
REMARK VINA RESULT:      -8.8      3.035      6.615
REMARK  7 active torsions:
REMARK  status: ('A' for Active; 'I' for Inactive)
REMARK       I    between atoms: C2_2  and  N1_4 
REMARK    1  A    between atoms: N1_4  and  C3_5 
REMARK    2  A    between atoms: C7_9  and  O2_10 
REMARK    3  A    between atoms: O2_10  and  C8_11 
REMARK    4  A    between atoms: N4_16  and  C11_17 
REMARK    5  A    between atoms: C14_20  and  O3_21 
REMARK    6  A    between atoms: O3_21  and  C15_22 
REMARK    7  A    between atoms: C15_22  and  C16_23 
ROOT
HETATM    1  C8  UNL     1      26.829   1.962  52.711  1.00  0.00     0.367 A 
HETATM    2  N2  UNL     1      28.286   1.799  52.887  1.00  0.00    -0.231 NA
HETATM    3  C9  UNL     1      28.809   0.822  53.515  1.00  0.00     0.233 A 
HETATM    4  N3  UNL     1      28.088  -0.243  54.134  1.00  0.00    -0.237 NA
HETATM    5  C10 UNL     1      26.794  -0.176  54.032  1.00  0.00     0.215 A 
HETATM    6  N4  UNL     1      26.115   0.878  53.356  1.00  0.00    -0.295 N 
ENDROOT
BRANCH   6   7
HETATM    7  C11 UNL     1      24.697   0.826  53.332  1.00  0.00     0.041 A 
HETATM    8  C12 UNL     1      23.902   1.919  53.036  1.00  0.00     0.032 A 
HETATM    9  C13 UNL     1      22.523   1.909  52.993  1.00  0.00     0.041 A 
HETATM   10  C14 UNL     1      21.860   0.729  53.261  1.00  0.00     0.091 A 
HETATM   11  C22 UNL     1      22.600  -0.407  53.566  1.00  0.00     0.069 A 
HETATM   12 CL1  UNL     1      21.728  -1.888  53.900  1.00  0.00    -0.081 Cl
HETATM   13  C23 UNL     1      23.976  -0.320  53.590  1.00  0.00     0.056 A 
BRANCH  10  14
HETATM   14  O3  UNL     1      20.473   0.696  53.222  1.00  0.00    -0.345 OA
BRANCH  14  15
HETATM   15  C15 UNL     1      19.787   0.259  52.041  1.00  0.00     0.214 C 
BRANCH  15  16
HETATM   16  C16 UNL     1      20.056   1.139  50.898  1.00  0.00    -0.031 A 
HETATM   17  C17 UNL     1      19.513   2.388  50.723  1.00  0.00     0.009 A 
HETATM   18  C18 UNL     1      19.797   3.188  49.626  1.00  0.00     0.004 A 
HETATM   19  C19 UNL     1      20.677   2.675  48.672  1.00  0.00     0.042 A 
HETATM   20  C20 UNL     1      21.245   1.418  48.816  1.00  0.00     0.117 A 
HETATM   21  F1  UNL     1      22.104   0.962  47.849  1.00  0.00    -0.206 F 
HETATM   22  C21 UNL     1      20.932   0.657  49.928  1.00  0.00     0.051 A 
ENDBRANCH  15  16
ENDBRANCH  14  15
ENDBRANCH  10  14
ENDBRANCH   6   7
BRANCH   1  23
HETATM   23  O2  UNL     1      26.628   1.861  51.299  1.00  0.00    -0.306 OA
BRANCH  23  24
HETATM   24  C7  UNL     1      26.199   2.911  50.518  1.00  0.00     0.075 A 
HETATM   25  C6  UNL     1      24.854   2.744  50.197  1.00  0.00     0.037 A 
HETATM   26  C5  UNL     1      24.145   3.640  49.421  1.00  0.00     0.005 A 
HETATM   27  C4  UNL     1      24.780   4.770  48.926  1.00  0.00     0.029 A 
HETATM   28  C3  UNL     1      26.115   4.937  49.244  1.00  0.00     0.037 A 
HETATM   29  C24 UNL     1      26.817   4.043  50.015  1.00  0.00     0.066 A 
BRANCH  28  30
HETATM   30  N1  UNL     1      26.942   6.035  48.828  1.00  0.00    -0.327 N 
HETATM   31  C2  UNL     1      26.867   7.376  49.344  1.00  0.00     0.218 C 
HETATM   32  C1  UNL     1      27.877   8.278  48.691  1.00  0.00     0.117 C 
HETATM   33  O1  UNL     1      26.007   7.605  50.234  1.00  0.00    -0.274 OA
HETATM   34  H4  UNL     1      27.599   5.707  48.096  1.00  0.00     0.169 HD
ENDBRANCH  28  30
ENDBRANCH  23  24
ENDBRANCH   1  23
TORSDOF 7
ENDMDL
MODEL 9
REMARK VINA RESULT:      -8.6      2.198      2.781
REMARK  7 active torsions:
REMARK  status: ('A' for Active; 'I' for Inactive)
REMARK       I    between atoms: C2_2  and  N1_4 
REMARK    1  A    between atoms: N1_4  and  C3_5 
REMARK    2  A    between atoms: C7_9  and  O2_10 
REMARK    3  A    between atoms: O2_10  and  C8_11 
REMARK    4  A    between atoms: N4_16  and  C11_17 
REMARK    5  A    between atoms: C14_20  and  O3_21 
REMARK    6  A    between atoms: O3_21  and  C15_22 
REMARK    7  A    between atoms: C15_22  and  C16_23 
ROOT
HETATM    1  C8  UNL     1      21.082   0.864  52.484  1.00  0.00     0.367 A 
HETATM    2  N2  UNL     1      19.863   0.033  52.544  1.00  0.00    -0.231 NA
HETATM    3  C9  UNL     1      18.926   0.104  51.684  1.00  0.00     0.233 A 
HETATM    4  N3  UNL     1      18.904   0.978  50.555  1.00  0.00    -0.237 NA
HETATM    5  C10 UNL     1      19.940   1.752  50.429  1.00  0.00     0.215 A 
HETATM    6  N4  UNL     1      21.035   1.751  51.340  1.00  0.00    -0.295 N 
ENDROOT
BRANCH   6   7
HETATM    7  C11 UNL     1      22.095   2.660  51.080  1.00  0.00     0.041 A 
HETATM    8  C12 UNL     1      21.985   4.027  51.264  1.00  0.00     0.032 A 
HETATM    9  C13 UNL     1      22.992   4.941  51.034  1.00  0.00     0.041 A 
HETATM   10  C14 UNL     1      24.214   4.484  50.585  1.00  0.00     0.091 A 
HETATM   11  C22 UNL     1      24.390   3.120  50.379  1.00  0.00     0.069 A 
HETATM   12 CL1  UNL     1      25.952   2.572  49.810  1.00  0.00    -0.081 Cl
HETATM   13  C23 UNL     1      23.337   2.266  50.631  1.00  0.00     0.056 A 
BRANCH  10  14
HETATM   14  O3  UNL     1      25.241   5.387  50.347  1.00  0.00    -0.345 OA
BRANCH  14  15
HETATM   15  C15 UNL     1      25.350   6.050  49.080  1.00  0.00     0.214 C 
BRANCH  15  16
HETATM   16  C16 UNL     1      26.749   6.216  48.671  1.00  0.00    -0.031 A 
HETATM   17  C17 UNL     1      27.664   5.196  48.567  1.00  0.00     0.009 A 
HETATM   18  C18 UNL     1      28.979   5.398  48.175  1.00  0.00     0.004 A 
HETATM   19  C19 UNL     1      29.363   6.707  47.880  1.00  0.00     0.042 A 
HETATM   20  C20 UNL     1      28.467   7.762  47.975  1.00  0.00     0.117 A 
HETATM   21  F1  UNL     1      28.898   9.028  47.673  1.00  0.00    -0.206 F 
HETATM   22  C21 UNL     1      27.166   7.510  48.369  1.00  0.00     0.051 A 
ENDBRANCH  15  16
ENDBRANCH  14  15
ENDBRANCH  10  14
ENDBRANCH   6   7
BRANCH   1  23
HETATM   23  O2  UNL     1      22.143  -0.074  52.290  1.00  0.00    -0.306 OA
BRANCH  23  24
HETATM   24  C7  UNL     1      23.134  -0.301  53.218  1.00  0.00     0.075 A 
HETATM   25  C6  UNL     1      22.614  -1.004  54.302  1.00  0.00     0.037 A 
HETATM   26  C5  UNL     1      23.372  -1.377  55.395  1.00  0.00     0.005 A 
HETATM   27  C4  UNL     1      24.719  -1.047  55.439  1.00  0.00     0.029 A 
HETATM   28  C3  UNL     1      25.236  -0.349  54.364  1.00  0.00     0.037 A 
HETATM   29  C24 UNL     1      24.479   0.021  53.279  1.00  0.00     0.066 A 
BRANCH  28  30
HETATM   30  N1  UNL     1      26.599   0.081  54.223  1.00  0.00    -0.327 N 
HETATM   31  C2  UNL     1      27.663  -0.696  53.646  1.00  0.00     0.218 C 
HETATM   32  C1  UNL     1      28.965   0.054  53.655  1.00  0.00     0.117 C 
HETATM   33  O1  UNL     1      27.374  -1.848  53.227  1.00  0.00    -0.274 OA
HETATM   34  H4  UNL     1      26.694   1.040  54.607  1.00  0.00     0.169 HD
ENDBRANCH  28  30
ENDBRANCH  23  24
ENDBRANCH   1  23
TORSDOF 7
ENDMDL
