MODEL 1
REMARK VINA RESULT:      -9.0      0.000      0.000
REMARK  7 active torsions:
REMARK  status: ('A' for Active; 'I' for Inactive)
REMARK    1  A    between atoms: N1_1  and  C1_2 
REMARK    2  A    between atoms: C2_4  and  N3_5 
REMARK    3  A    between atoms: N3_5  and  C3_6 
REMARK    4  A    between atoms: N4_11  and  O2_12 
REMARK    5  A    between atoms: N6_18  and  C10_19 
REMARK    6  A    between atoms: C10_19  and  N7_21 
REMARK    7  A    between atoms: N7_21  and  C11_22 
ROOT
HETATM    1  C1  UNL     1      23.690   4.529  51.947  1.00  0.00     0.739 A 
HETATM    2  N2  UNL     1      23.945   3.680  52.991  1.00  0.00     0.131 NA
HETATM    3  C2  UNL     1      24.654   2.614  52.553  1.00  0.00     0.760 A 
HETATM    4  N5  UNL     1      24.829   2.819  51.235  1.00  0.00     0.044 NA
HETATM    5  N6  UNL     1      24.268   3.941  50.861  1.00  0.00    -0.018 N 
ENDROOT
BRANCH   3   6
HETATM    6  N3  UNL     1      25.081   1.546  53.431  1.00  0.00    -0.183 N 
HETATM    7  H3  UNL     1      24.385   1.716  54.176  1.00  0.00     0.184 HD
BRANCH   6   8
HETATM    8  C3  UNL     1      26.144   0.585  53.264  1.00  0.00     0.085 C 
HETATM    9  C4  UNL     1      25.468  -0.547  53.321  1.00  0.00     0.146 C 
HETATM   10  F1  UNL     1      24.173  -0.809  53.497  1.00  0.00    -0.206 F 
HETATM   11  C5  UNL     1      26.444  -1.648  52.947  1.00  0.00     0.269 C 
HETATM   12  O1  UNL     1      27.658  -1.097  52.657  1.00  0.00    -0.272 OA
HETATM   13  N4  UNL     1      28.730  -1.917  52.740  1.00  0.00    -0.071 NA
HETATM   14  C6  UNL     1      29.565  -1.429  53.842  1.00  0.00     0.157 C 
HETATM   15  C7  UNL     1      29.930   0.025  53.597  1.00  0.00     0.046 C 
HETATM   16  C8  UNL     1      28.741   0.847  53.414  1.00  0.00    -0.023 C 
HETATM   17  C9  UNL     1      27.446   1.197  53.282  1.00  0.00     0.029 C 
BRANCH  13  18
HETATM   18  O2  UNL     1      28.429  -3.207  52.879  1.00  0.00    -0.289 OA
HETATM   19  H6  UNL     1      27.986  -3.524  52.038  1.00  0.00     0.239 HD
ENDBRANCH  13  18
ENDBRANCH   6   8
ENDBRANCH   3   6
BRANCH   1  20
HETATM   20  N1  UNL     1      22.987   5.766  51.919  1.00  0.00    -0.230 N 
HETATM   21  H1  UNL     1      21.946   5.948  51.869  1.00  0.00     0.174 HD
HETATM   22  H2  UNL     1      23.520   6.665  51.948  1.00  0.00     0.174 HD
ENDBRANCH   1  20
BRANCH   5  23
HETATM   23  C10 UNL     1      24.227   4.502  49.536  1.00  0.00     0.218 C 
HETATM   24  S1  UNL     1      23.112   3.543  48.781  1.00  0.00    -0.038 SA
BRANCH  23  25
HETATM   25  N7  UNL     1      25.010   5.627  49.097  1.00  0.00    -0.329 N 
HETATM   26  H13 UNL     1      24.350   6.461  49.161  1.00  0.00     0.168 HD
BRANCH  25  27
HETATM   27  C11 UNL     1      26.310   5.928  48.638  1.00  0.00     0.073 A 
HETATM   28  C12 UNL     1      26.580   7.147  48.075  1.00  0.00     0.033 A 
HETATM   29  C13 UNL     1      27.850   7.404  47.644  1.00  0.00     0.002 A 
HETATM   30  C14 UNL     1      28.831   6.455  47.775  1.00  0.00     0.003 A 
HETATM   31  C15 UNL     1      28.601   5.221  48.334  1.00  0.00     0.044 A 
HETATM   32  C16 UNL     1      27.314   4.989  48.760  1.00  0.00     0.143 A 
HETATM   33  F2  UNL     1      27.166   3.769  49.292  1.00  0.00    -0.204 F 
ENDBRANCH  25  27
ENDBRANCH  23  25
ENDBRANCH   5  23
TORSDOF 7
ENDMDL
MODEL 2
REMARK VINA RESULT:      -8.6      1.292      1.595
REMARK  7 active torsions:
REMARK  status: ('A' for Active; 'I' for Inactive)
REMARK    1  A    between atoms: N1_1  and  C1_2 
REMARK    2  A    between atoms: C2_4  and  N3_5 
REMARK    3  A    between atoms: N3_5  and  C3_6 
REMARK    4  A    between atoms: N4_11  and  O2_12 
REMARK    5  A    between atoms: N6_18  and  C10_19 
REMARK    6  A    between atoms: C10_19  and  N7_21 
REMARK    7  A    between atoms: N7_21  and  C11_22 
ROOT
HETATM    1  C1  UNL     1      23.424   5.294  51.554  1.00  0.00     0.739 A 
HETATM    2  N2  UNL     1      23.536   4.388  52.575  1.00  0.00     0.131 NA
HETATM    3  C2  UNL     1      24.128   3.258  52.123  1.00  0.00     0.760 A 
HETATM    4  N5  UNL     1      24.376   3.481  50.820  1.00  0.00     0.044 NA
HETATM    5  N6  UNL     1      23.968   4.675  50.467  1.00  0.00    -0.018 N 
ENDROOT
BRANCH   3   6
HETATM    6  N3  UNL     1      24.391   2.119  52.977  1.00  0.00    -0.183 N 
HETATM    7  H3  UNL     1      23.481   2.122  53.466  1.00  0.00     0.184 HD
BRANCH   6   8
HETATM    8  C3  UNL     1      25.567   1.288  53.067  1.00  0.00     0.085 C 
HETATM    9  C4  UNL     1      25.022   0.086  53.076  1.00  0.00     0.146 C 
HETATM   10  F1  UNL     1      23.754  -0.323  53.032  1.00  0.00    -0.206 F 
HETATM   11  C5  UNL     1      26.167  -0.904  52.957  1.00  0.00     0.269 C 
HETATM   12  O1  UNL     1      27.345  -0.223  52.857  1.00  0.00    -0.272 OA
HETATM   13  N4  UNL     1      28.467  -0.903  53.185  1.00  0.00    -0.071 NA
HETATM   14  C6  UNL     1      29.021  -0.269  54.386  1.00  0.00     0.157 C 
HETATM   15  C7  UNL     1      29.262   1.207  54.116  1.00  0.00     0.046 C 
HETATM   16  C8  UNL     1      28.044   1.869  53.667  1.00  0.00    -0.023 C 
HETATM   17  C9  UNL     1      26.766   2.053  53.281  1.00  0.00     0.029 C 
BRANCH  13  18
HETATM   18  O2  UNL     1      28.291  -2.212  53.352  1.00  0.00    -0.289 OA
HETATM   19  H6  UNL     1      28.987  -2.549  53.991  1.00  0.00     0.239 HD
ENDBRANCH  13  18
ENDBRANCH   6   8
ENDBRANCH   3   6
BRANCH   1  20
HETATM   20  N1  UNL     1      22.876   6.607  51.547  1.00  0.00    -0.230 N 
HETATM   21  H1  UNL     1      22.061   7.000  52.095  1.00  0.00     0.174 HD
HETATM   22  H2  UNL     1      23.295   7.339  50.928  1.00  0.00     0.174 HD
ENDBRANCH   1  20
BRANCH   5  23
HETATM   23  C10 UNL     1      24.043   5.278  49.163  1.00  0.00     0.218 C 
HETATM   24  S1  UNL     1      22.744   4.609  48.388  1.00  0.00    -0.038 SA
BRANCH  23  25
HETATM   25  N7  UNL     1      25.049   6.222  48.753  1.00  0.00    -0.329 N 
HETATM   26  H13 UNL     1      24.539   7.156  48.696  1.00  0.00     0.168 HD
BRANCH  25  27
HETATM   27  C11 UNL     1      26.421   6.269  48.428  1.00  0.00     0.073 A 
HETATM   28  C12 UNL     1      27.237   5.205  48.710  1.00  0.00     0.033 A 
HETATM   29  C13 UNL     1      28.559   5.286  48.379  1.00  0.00     0.002 A 
HETATM   30  C14 UNL     1      29.054   6.413  47.776  1.00  0.00     0.003 A 
HETATM   31  C15 UNL     1      28.269   7.501  47.476  1.00  0.00     0.044 A 
HETATM   32  C16 UNL     1      26.942   7.393  47.819  1.00  0.00     0.143 A 
HETATM   33  F2  UNL     1      26.242   8.488  47.498  1.00  0.00    -0.204 F 
ENDBRANCH  25  27
ENDBRANCH  23  25
ENDBRANCH   5  23
TORSDOF 7
ENDMDL
MODEL 3
REMARK VINA RESULT:      -8.4      1.951      2.272
REMARK  7 active torsions:
REMARK  status: ('A' for Active; 'I' for Inactive)
REMARK    1  A    between atoms: N1_1  and  C1_2 
REMARK    2  A    between atoms: C2_4  and  N3_5 
REMARK    3  A    between atoms: N3_5  and  C3_6 
REMARK    4  A    between atoms: N4_11  and  O2_12 
REMARK    5  A    between atoms: N6_18  and  C10_19 
REMARK    6  A    between atoms: C10_19  and  N7_21 
REMARK    7  A    between atoms: N7_21  and  C11_22 
ROOT
HETATM    1  C1  UNL     1      24.194   5.630  51.065  1.00  0.00     0.739 A 
HETATM    2  N2  UNL     1      23.964   4.418  51.658  1.00  0.00     0.131 NA
HETATM    3  C2  UNL     1      23.933   3.445  50.718  1.00  0.00     0.760 A 
HETATM    4  N5  UNL     1      24.144   4.073  49.547  1.00  0.00     0.044 NA
HETATM    5  N6  UNL     1      24.301   5.360  49.732  1.00  0.00    -0.018 N 
ENDROOT
BRANCH   3   6
HETATM    6  N3  UNL     1      23.715   2.052  51.043  1.00  0.00    -0.183 N 
HETATM    7  H3  UNL     1      22.944   1.890  50.374  1.00  0.00     0.184 HD
BRANCH   6   8
HETATM    8  C3  UNL     1      24.392   1.213  52.003  1.00  0.00     0.085 C 
HETATM    9  C4  UNL     1      23.405   0.944  52.837  1.00  0.00     0.146 C 
HETATM   10  F1  UNL     1      22.125   1.317  52.860  1.00  0.00    -0.206 F 
HETATM   11  C5  UNL     1      23.928  -0.110  53.794  1.00  0.00     0.269 C 
HETATM   12  O1  UNL     1      25.210  -0.434  53.454  1.00  0.00    -0.272 OA
HETATM   13  N4  UNL     1      25.969  -0.998  54.421  1.00  0.00    -0.071 NA
HETATM   14  C6  UNL     1      27.043  -0.050  54.735  1.00  0.00     0.157 C 
HETATM   15  C7  UNL     1      27.817   0.278  53.470  1.00  0.00     0.046 C 
HETATM   16  C8  UNL     1      26.936   0.786  52.427  1.00  0.00    -0.023 C 
HETATM   17  C9  UNL     1      25.812   1.160  51.783  1.00  0.00     0.029 C 
BRANCH  13  18
HETATM   18  O2  UNL     1      25.295  -1.362  55.511  1.00  0.00    -0.289 OA
HETATM   19  H6  UNL     1      25.429  -0.664  56.217  1.00  0.00     0.239 HD
ENDBRANCH  13  18
ENDBRANCH   6   8
ENDBRANCH   3   6
BRANCH   1  20
HETATM   20  N1  UNL     1      24.310   6.928  51.638  1.00  0.00    -0.230 N 
HETATM   21  H1  UNL     1      24.711   7.218  52.573  1.00  0.00     0.174 HD
HETATM   22  H2  UNL     1      23.965   7.760  51.108  1.00  0.00     0.174 HD
ENDBRANCH   1  20
BRANCH   5  23
HETATM   23  C10 UNL     1      24.534   6.368  48.732  1.00  0.00     0.218 C 
HETATM   24  S1  UNL     1      23.087   6.415  47.933  1.00  0.00    -0.038 SA
BRANCH  23  25
HETATM   25  N7  UNL     1      25.767   7.091  48.569  1.00  0.00    -0.329 N 
HETATM   26  H13 UNL     1      25.531   8.097  48.830  1.00  0.00     0.168 HD
BRANCH  25  27
HETATM   27  C11 UNL     1      27.108   6.873  48.190  1.00  0.00     0.073 A 
HETATM   28  C12 UNL     1      27.795   7.830  47.490  1.00  0.00     0.033 A 
HETATM   29  C13 UNL     1      29.092   7.584  47.141  1.00  0.00     0.002 A 
HETATM   30  C14 UNL     1      29.691   6.401  47.489  1.00  0.00     0.003 A 
HETATM   31  C15 UNL     1      29.037   5.416  48.192  1.00  0.00     0.044 A 
HETATM   32  C16 UNL     1      27.733   5.690  48.530  1.00  0.00     0.143 A 
HETATM   33  F2  UNL     1      27.162   4.688  49.210  1.00  0.00    -0.204 F 
ENDBRANCH  25  27
ENDBRANCH  23  25
ENDBRANCH   5  23
TORSDOF 7
ENDMDL
MODEL 4
REMARK VINA RESULT:      -8.2      3.069      4.070
REMARK  7 active torsions:
REMARK  status: ('A' for Active; 'I' for Inactive)
REMARK    1  A    between atoms: N1_1  and  C1_2 
REMARK    2  A    between atoms: C2_4  and  N3_5 
REMARK    3  A    between atoms: N3_5  and  C3_6 
REMARK    4  A    between atoms: N4_11  and  O2_12 
REMARK    5  A    between atoms: N6_18  and  C10_19 
REMARK    6  A    between atoms: C10_19  and  N7_21 
REMARK    7  A    between atoms: N7_21  and  C11_22 
ROOT
HETATM    1  C1  UNL     1      24.183   5.153  51.618  1.00  0.00     0.739 A 
HETATM    2  N2  UNL     1      23.819   3.889  52.000  1.00  0.00     0.131 NA
HETATM    3  C2  UNL     1      24.068   3.017  50.996  1.00  0.00     0.760 A 
HETATM    4  N5  UNL     1      24.585   3.757  49.999  1.00  0.00     0.044 NA
HETATM    5  N6  UNL     1      24.660   5.017  50.348  1.00  0.00    -0.018 N 
ENDROOT
BRANCH   3   6
HETATM    6  N3  UNL     1      23.795   1.600  51.107  1.00  0.00    -0.183 N 
HETATM    7  H3  UNL     1      24.088   1.344  50.149  1.00  0.00     0.184 HD
BRANCH   6   8
HETATM    8  C3  UNL     1      23.279   0.845  52.224  1.00  0.00     0.085 C 
HETATM    9  C4  UNL     1      24.386   0.290  52.682  1.00  0.00     0.146 C 
HETATM   10  F1  UNL     1      25.653   0.349  52.272  1.00  0.00    -0.206 F 
HETATM   11  C5  UNL     1      24.020  -0.373  53.996  1.00  0.00     0.269 C 
HETATM   12  O1  UNL     1      22.701  -0.149  54.264  1.00  0.00    -0.272 OA
HETATM   13  N4  UNL     1      22.104  -1.004  55.126  1.00  0.00    -0.071 NA
HETATM   14  C6  UNL     1      21.092  -1.747  54.367  1.00  0.00     0.157 C 
HETATM   15  C7  UNL     1      20.129  -0.770  53.714  1.00  0.00     0.046 C 
HETATM   16  C8  UNL     1      20.834   0.192  52.878  1.00  0.00    -0.023 C 
HETATM   17  C9  UNL     1      21.842   0.856  52.277  1.00  0.00     0.029 C 
BRANCH  13  18
HETATM   18  O2  UNL     1      22.942  -1.819  55.765  1.00  0.00    -0.289 OA
HETATM   19  H6  UNL     1      23.444  -1.286  56.450  1.00  0.00     0.239 HD
ENDBRANCH  13  18
ENDBRANCH   6   8
ENDBRANCH   3   6
BRANCH   1  20
HETATM   20  N1  UNL     1      24.110   6.384  52.328  1.00  0.00    -0.230 N 
HETATM   21  H1  UNL     1      23.912   6.561  53.351  1.00  0.00     0.174 HD
HETATM   22  H2  UNL     1      24.265   7.285  51.819  1.00  0.00     0.174 HD
ENDBRANCH   1  20
BRANCH   5  23
HETATM   23  C10 UNL     1      25.143   6.119  49.558  1.00  0.00     0.218 C 
HETATM   24  S1  UNL     1      23.878   6.399  48.530  1.00  0.00    -0.038 SA
BRANCH  23  25
HETATM   25  N7  UNL     1      26.430   6.742  49.720  1.00  0.00    -0.329 N 
HETATM   26  H13 UNL     1      26.495   6.969  50.759  1.00  0.00     0.168 HD
BRANCH  25  27
HETATM   27  C11 UNL     1      27.556   7.114  48.956  1.00  0.00     0.073 A 
HETATM   28  C12 UNL     1      27.941   8.427  48.884  1.00  0.00     0.033 A 
HETATM   29  C13 UNL     1      29.037   8.750  48.136  1.00  0.00     0.002 A 
HETATM   30  C14 UNL     1      29.735   7.774  47.473  1.00  0.00     0.003 A 
HETATM   31  C15 UNL     1      29.382   6.446  47.520  1.00  0.00     0.044 A 
HETATM   32  C16 UNL     1      28.276   6.150  48.280  1.00  0.00     0.143 A 
HETATM   33  F2  UNL     1      27.993   4.841  48.278  1.00  0.00    -0.204 F 
ENDBRANCH  25  27
ENDBRANCH  23  25
ENDBRANCH   5  23
TORSDOF 7
ENDMDL
MODEL 5
REMARK VINA RESULT:      -8.1      3.819      7.566
REMARK  7 active torsions:
REMARK  status: ('A' for Active; 'I' for Inactive)
REMARK    1  A    between atoms: N1_1  and  C1_2 
REMARK    2  A    between atoms: C2_4  and  N3_5 
REMARK    3  A    between atoms: N3_5  and  C3_6 
REMARK    4  A    between atoms: N4_11  and  O2_12 
REMARK    5  A    between atoms: N6_18  and  C10_19 
REMARK    6  A    between atoms: C10_19  and  N7_21 
REMARK    7  A    between atoms: N7_21  and  C11_22 
ROOT
HETATM    1  C1  UNL     1      25.060   6.722  50.791  1.00  0.00     0.739 A 
HETATM    2  N2  UNL     1      26.003   7.393  50.059  1.00  0.00     0.131 NA
HETATM    3  C2  UNL     1      26.556   6.560  49.147  1.00  0.00     0.760 A 
HETATM    4  N5  UNL     1      25.944   5.375  49.329  1.00  0.00     0.044 NA
HETATM    5  N6  UNL     1      25.061   5.452  50.293  1.00  0.00    -0.018 N 
ENDROOT
BRANCH   3   6
HETATM    6  N3  UNL     1      27.581   6.987  48.219  1.00  0.00    -0.183 N 
HETATM    7  H3  UNL     1      26.943   7.330  47.482  1.00  0.00     0.184 HD
BRANCH   6   8
HETATM    8  C3  UNL     1      29.018   6.925  48.341  1.00  0.00     0.085 C 
HETATM    9  C4  UNL     1      29.301   8.192  48.580  1.00  0.00     0.146 C 
HETATM   10  F1  UNL     1      28.535   9.278  48.677  1.00  0.00    -0.206 F 
HETATM   11  C5  UNL     1      30.775   8.241  48.939  1.00  0.00     0.269 C 
HETATM   12  O1  UNL     1      31.287   6.975  48.921  1.00  0.00    -0.272 OA
HETATM   13  N4  UNL     1      32.627   6.867  48.778  1.00  0.00    -0.071 NA
HETATM   14  C6  UNL     1      32.873   6.223  47.483  1.00  0.00     0.157 C 
HETATM   15  C7  UNL     1      32.147   4.890  47.433  1.00  0.00     0.046 C 
HETATM   16  C8  UNL     1      30.723   5.052  47.695  1.00  0.00    -0.023 C 
HETATM   17  C9  UNL     1      29.544   5.631  47.999  1.00  0.00     0.029 C 
BRANCH  13  18
HETATM   18  O2  UNL     1      33.290   8.017  48.893  1.00  0.00    -0.289 OA
HETATM   19  H6  UNL     1      33.837   8.154  48.064  1.00  0.00     0.239 HD
ENDBRANCH  13  18
ENDBRANCH   6   8
ENDBRANCH   3   6
BRANCH   1  20
HETATM   20  N1  UNL     1      24.226   7.175  51.851  1.00  0.00    -0.230 N 
HETATM   21  H1  UNL     1      24.203   8.114  52.336  1.00  0.00     0.174 HD
HETATM   22  H2  UNL     1      23.508   6.531  52.255  1.00  0.00     0.174 HD
ENDBRANCH   1  20
BRANCH   5  23
HETATM   23  C10 UNL     1      24.214   4.402  50.793  1.00  0.00     0.218 C 
HETATM   24  S1  UNL     1      22.931   4.455  49.750  1.00  0.00    -0.038 SA
BRANCH  23  25
HETATM   25  N7  UNL     1      24.520   3.573  51.928  1.00  0.00    -0.329 N 
HETATM   26  H13 UNL     1      24.353   4.197  52.775  1.00  0.00     0.168 HD
BRANCH  25  27
HETATM   27  C11 UNL     1      24.946   2.262  52.229  1.00  0.00     0.073 A 
HETATM   28  C12 UNL     1      24.124   1.406  52.913  1.00  0.00     0.033 A 
HETATM   29  C13 UNL     1      24.570   0.144  53.185  1.00  0.00     0.002 A 
HETATM   30  C14 UNL     1      25.817  -0.252  52.777  1.00  0.00     0.003 A 
HETATM   31  C15 UNL     1      26.672   0.576  52.088  1.00  0.00     0.044 A 
HETATM   32  C16 UNL     1      26.197   1.839  51.828  1.00  0.00     0.143 A 
HETATM   33  F2  UNL     1      27.082   2.587  51.156  1.00  0.00    -0.204 F 
ENDBRANCH  25  27
ENDBRANCH  23  25
ENDBRANCH   5  23
TORSDOF 7
ENDMDL
MODEL 6
REMARK VINA RESULT:      -8.0      4.785      7.275
REMARK  7 active torsions:
REMARK  status: ('A' for Active; 'I' for Inactive)
REMARK    1  A    between atoms: N1_1  and  C1_2 
REMARK    2  A    between atoms: C2_4  and  N3_5 
REMARK    3  A    between atoms: N3_5  and  C3_6 
REMARK    4  A    between atoms: N4_11  and  O2_12 
REMARK    5  A    between atoms: N6_18  and  C10_19 
REMARK    6  A    between atoms: C10_19  and  N7_21 
REMARK    7  A    between atoms: N7_21  and  C11_22 
ROOT
HETATM    1  C1  UNL     1      23.577   3.586  51.723  1.00  0.00     0.739 A 
HETATM    2  N2  UNL     1      22.371   2.997  51.454  1.00  0.00     0.131 NA
HETATM    3  C2  UNL     1      22.564   1.841  50.779  1.00  0.00     0.760 A 
HETATM    4  N5  UNL     1      23.897   1.729  50.636  1.00  0.00     0.044 NA
HETATM    5  N6  UNL     1      24.510   2.747  51.186  1.00  0.00    -0.018 N 
ENDROOT
BRANCH   3   6
HETATM    6  N3  UNL     1      21.471   0.988  50.362  1.00  0.00    -0.183 N 
HETATM    7  H3  UNL     1      21.815   0.812  49.403  1.00  0.00     0.184 HD
BRANCH   6   8
HETATM    8  C3  UNL     1      20.305   0.560  51.096  1.00  0.00     0.085 C 
HETATM    9  C4  UNL     1      20.866  -0.110  52.085  1.00  0.00     0.146 C 
HETATM   10  F1  UNL     1      22.139  -0.372  52.380  1.00  0.00    -0.206 F 
HETATM   11  C5  UNL     1      19.753  -0.445  53.060  1.00  0.00     0.269 C 
HETATM   12  O1  UNL     1      18.578   0.076  52.602  1.00  0.00    -0.272 OA
HETATM   13  N4  UNL     1      17.442  -0.480  53.081  1.00  0.00    -0.071 NA
HETATM   14  C6  UNL     1      16.771  -1.134  51.953  1.00  0.00     0.157 C 
HETATM   15  C7  UNL     1      16.532  -0.121  50.847  1.00  0.00     0.046 C 
HETATM   16  C8  UNL     1      17.775   0.522  50.439  1.00  0.00    -0.023 C 
HETATM   17  C9  UNL     1      19.080   0.859  50.404  1.00  0.00     0.029 C 
BRANCH  13  18
HETATM   18  O2  UNL     1      17.623  -1.316  54.102  1.00  0.00    -0.289 OA
HETATM   19  H6  UNL     1      16.725  -1.587  54.456  1.00  0.00     0.239 HD
ENDBRANCH  13  18
ENDBRANCH   6   8
ENDBRANCH   3   6
BRANCH   1  20
HETATM   20  N1  UNL     1      23.877   4.799  52.403  1.00  0.00    -0.230 N 
HETATM   21  H1  UNL     1      23.773   5.041  53.427  1.00  0.00     0.174 HD
HETATM   22  H2  UNL     1      24.260   5.612  51.866  1.00  0.00     0.174 HD
ENDBRANCH   1  20
BRANCH   5  23
HETATM   23  C10 UNL     1      25.926   2.998  51.233  1.00  0.00     0.218 C 
HETATM   24  S1  UNL     1      26.223   3.634  49.736  1.00  0.00    -0.038 SA
BRANCH  23  25
HETATM   25  N7  UNL     1      26.770   2.722  52.365  1.00  0.00    -0.329 N 
HETATM   26  H13 UNL     1      26.750   3.615  52.945  1.00  0.00     0.168 HD
BRANCH  25  27
HETATM   27  C11 UNL     1      27.563   1.683  52.897  1.00  0.00     0.073 A 
HETATM   28  C12 UNL     1      28.639   1.972  53.695  1.00  0.00     0.033 A 
HETATM   29  C13 UNL     1      29.383   0.941  54.193  1.00  0.00     0.002 A 
HETATM   30  C14 UNL     1      29.054  -0.356  53.897  1.00  0.00     0.003 A 
HETATM   31  C15 UNL     1      27.982  -0.688  53.101  1.00  0.00     0.044 A 
HETATM   32  C16 UNL     1      27.251   0.369  52.614  1.00  0.00     0.143 A 
HETATM   33  F2  UNL     1      26.227  -0.030  51.850  1.00  0.00    -0.204 F 
ENDBRANCH  25  27
ENDBRANCH  23  25
ENDBRANCH   5  23
TORSDOF 7
ENDMDL
MODEL 7
REMARK VINA RESULT:      -8.0      1.583      2.205
REMARK  7 active torsions:
REMARK  status: ('A' for Active; 'I' for Inactive)
REMARK    1  A    between atoms: N1_1  and  C1_2 
REMARK    2  A    between atoms: C2_4  and  N3_5 
REMARK    3  A    between atoms: N3_5  and  C3_6 
REMARK    4  A    between atoms: N4_11  and  O2_12 
REMARK    5  A    between atoms: N6_18  and  C10_19 
REMARK    6  A    between atoms: C10_19  and  N7_21 
REMARK    7  A    between atoms: N7_21  and  C11_22 
ROOT
HETATM    1  C1  UNL     1      23.735   2.785  50.299  1.00  0.00     0.739 A 
HETATM    2  N2  UNL     1      24.088   1.885  51.268  1.00  0.00     0.131 NA
HETATM    3  C2  UNL     1      24.761   2.515  52.258  1.00  0.00     0.760 A 
HETATM    4  N5  UNL     1      24.816   3.807  51.886  1.00  0.00     0.044 NA
HETATM    5  N6  UNL     1      24.217   3.985  50.735  1.00  0.00    -0.018 N 
ENDROOT
BRANCH   3   6
HETATM    6  N3  UNL     1      25.258   1.824  53.428  1.00  0.00    -0.183 N 
HETATM    7  H3  UNL     1      24.607   2.251  54.108  1.00  0.00     0.184 HD
BRANCH   6   8
HETATM    8  C3  UNL     1      26.324   0.858  53.544  1.00  0.00     0.085 C 
HETATM    9  C4  UNL     1      27.346   1.647  53.817  1.00  0.00     0.146 C 
HETATM   10  F1  UNL     1      27.446   2.970  53.949  1.00  0.00    -0.206 F 
HETATM   11  C5  UNL     1      28.507   0.737  54.174  1.00  0.00     0.269 C 
HETATM   12  O1  UNL     1      28.096  -0.563  54.118  1.00  0.00    -0.272 OA
HETATM   13  N4  UNL     1      29.062  -1.497  53.967  1.00  0.00    -0.071 NA
HETATM   14  C6  UNL     1      28.862  -2.119  52.654  1.00  0.00     0.157 C 
HETATM   15  C7  UNL     1      27.453  -2.682  52.568  1.00  0.00     0.046 C 
HETATM   16  C8  UNL     1      26.455  -1.656  52.839  1.00  0.00    -0.023 C 
HETATM   17  C9  UNL     1      25.911  -0.466  53.163  1.00  0.00     0.029 C 
BRANCH  13  18
HETATM   18  O2  UNL     1      30.304  -1.037  54.113  1.00  0.00    -0.289 OA
HETATM   19  H6  UNL     1      30.334  -0.457  54.930  1.00  0.00     0.239 HD
ENDBRANCH  13  18
ENDBRANCH   6   8
ENDBRANCH   3   6
BRANCH   1  20
HETATM   20  N1  UNL     1      23.024   2.594  49.081  1.00  0.00    -0.230 N 
HETATM   21  H1  UNL     1      22.797   3.290  48.318  1.00  0.00     0.174 HD
HETATM   22  H2  UNL     1      22.644   1.648  48.847  1.00  0.00     0.174 HD
ENDBRANCH   1  20
BRANCH   5  23
HETATM   23  C10 UNL     1      24.074   5.214  50.001  1.00  0.00     0.218 C 
HETATM   24  S1  UNL     1      22.839   5.965  50.806  1.00  0.00    -0.038 SA
BRANCH  23  25
HETATM   25  N7  UNL     1      24.872   5.588  48.864  1.00  0.00    -0.329 N 
HETATM   26  H13 UNL     1      24.189   5.612  48.047  1.00  0.00     0.168 HD
BRANCH  25  27
HETATM   27  C11 UNL     1      26.205   5.911  48.536  1.00  0.00     0.073 A 
HETATM   28  C12 UNL     1      26.519   7.157  48.058  1.00  0.00     0.033 A 
HETATM   29  C13 UNL     1      27.820   7.434  47.752  1.00  0.00     0.002 A 
HETATM   30  C14 UNL     1      28.790   6.481  47.924  1.00  0.00     0.003 A 
HETATM   31  C15 UNL     1      28.517   5.221  48.402  1.00  0.00     0.044 A 
HETATM   32  C16 UNL     1      27.200   4.969  48.701  1.00  0.00     0.143 A 
HETATM   33  F2  UNL     1      27.011   3.725  49.159  1.00  0.00    -0.204 F 
ENDBRANCH  25  27
ENDBRANCH  23  25
ENDBRANCH   5  23
TORSDOF 7
ENDMDL
MODEL 8
REMARK VINA RESULT:      -8.0      2.636      3.364
REMARK  7 active torsions:
REMARK  status: ('A' for Active; 'I' for Inactive)
REMARK    1  A    between atoms: N1_1  and  C1_2 
REMARK    2  A    between atoms: C2_4  and  N3_5 
REMARK    3  A    between atoms: N3_5  and  C3_6 
REMARK    4  A    between atoms: N4_11  and  O2_12 
REMARK    5  A    between atoms: N6_18  and  C10_19 
REMARK    6  A    between atoms: C10_19  and  N7_21 
REMARK    7  A    between atoms: N7_21  and  C11_22 
ROOT
HETATM    1  C1  UNL     1      24.454   6.228  50.968  1.00  0.00     0.739 A 
HETATM    2  N2  UNL     1      24.051   4.975  51.344  1.00  0.00     0.131 NA
HETATM    3  C2  UNL     1      24.656   4.046  50.569  1.00  0.00     0.760 A 
HETATM    4  N5  UNL     1      25.431   4.742  49.717  1.00  0.00     0.044 NA
HETATM    5  N6  UNL     1      25.324   6.028  49.937  1.00  0.00    -0.018 N 
ENDROOT
BRANCH   3   6
HETATM    6  N3  UNL     1      24.435   2.625  50.734  1.00  0.00    -0.183 N 
HETATM    7  H3  UNL     1      23.784   2.511  49.940  1.00  0.00     0.184 HD
BRANCH   6   8
HETATM    8  C3  UNL     1      24.977   1.716  51.715  1.00  0.00     0.085 C 
HETATM    9  C4  UNL     1      23.878   1.343  52.343  1.00  0.00     0.146 C 
HETATM   10  F1  UNL     1      22.598   1.680  52.185  1.00  0.00    -0.206 F 
HETATM   11  C5  UNL     1      24.280   0.216  53.276  1.00  0.00     0.269 C 
HETATM   12  O1  UNL     1      25.612  -0.041  53.128  1.00  0.00    -0.272 OA
HETATM   13  N4  UNL     1      26.224  -0.675  54.154  1.00  0.00    -0.071 NA
HETATM   14  C6  UNL     1      27.192   0.264  54.728  1.00  0.00     0.157 C 
HETATM   15  C7  UNL     1      28.150   0.732  53.645  1.00  0.00     0.046 C 
HETATM   16  C8  UNL     1      27.432   1.315  52.519  1.00  0.00    -0.023 C 
HETATM   17  C9  UNL     1      26.415   1.720  51.732  1.00  0.00     0.029 C 
BRANCH  13  18
HETATM   18  O2  UNL     1      25.395  -1.159  55.078  1.00  0.00    -0.289 OA
HETATM   19  H6  UNL     1      25.877  -1.866  55.600  1.00  0.00     0.239 HD
ENDBRANCH  13  18
ENDBRANCH   6   8
ENDBRANCH   3   6
BRANCH   1  20
HETATM   20  N1  UNL     1      24.092   7.504  51.485  1.00  0.00    -0.230 N 
HETATM   21  H1  UNL     1      23.246   7.785  52.054  1.00  0.00     0.174 HD
HETATM   22  H2  UNL     1      24.712   8.328  51.310  1.00  0.00     0.174 HD
ENDBRANCH   1  20
BRANCH   5  23
HETATM   23  C10 UNL     1      25.981   7.096  49.232  1.00  0.00     0.218 C 
HETATM   24  S1  UNL     1      25.039   7.261  47.883  1.00  0.00    -0.038 SA
BRANCH  23  25
HETATM   25  N7  UNL     1      27.161   7.779  49.692  1.00  0.00    -0.329 N 
HETATM   26  H13 UNL     1      27.295   7.448  50.696  1.00  0.00     0.168 HD
BRANCH  25  27
HETATM   27  C11 UNL     1      28.130   8.696  49.232  1.00  0.00     0.073 A 
HETATM   28  C12 UNL     1      29.398   8.272  48.932  1.00  0.00     0.033 A 
HETATM   29  C13 UNL     1      30.308   9.188  48.488  1.00  0.00     0.002 A 
HETATM   30  C14 UNL     1      29.954  10.505  48.348  1.00  0.00     0.003 A 
HETATM   31  C15 UNL     1      28.693  10.970  48.639  1.00  0.00     0.044 A 
HETATM   32  C16 UNL     1      27.797  10.027  49.082  1.00  0.00     0.143 A 
HETATM   33  F2  UNL     1      26.593  10.552  49.345  1.00  0.00    -0.204 F 
ENDBRANCH  25  27
ENDBRANCH  23  25
ENDBRANCH   5  23
TORSDOF 7
ENDMDL
MODEL 9
REMARK VINA RESULT:      -7.9      3.562      7.420
REMARK  7 active torsions:
REMARK  status: ('A' for Active; 'I' for Inactive)
REMARK    1  A    between atoms: N1_1  and  C1_2 
REMARK    2  A    between atoms: C2_4  and  N3_5 
REMARK    3  A    between atoms: N3_5  and  C3_6 
REMARK    4  A    between atoms: N4_11  and  O2_12 
REMARK    5  A    between atoms: N6_18  and  C10_19 
REMARK    6  A    between atoms: C10_19  and  N7_21 
REMARK    7  A    between atoms: N7_21  and  C11_22 
ROOT
HETATM    1  C1  UNL     1      24.782   6.330  50.984  1.00  0.00     0.739 A 
HETATM    2  N2  UNL     1      25.716   6.946  50.195  1.00  0.00     0.131 NA
HETATM    3  C2  UNL     1      26.035   6.147  49.151  1.00  0.00     0.760 A 
HETATM    4  N5  UNL     1      25.290   5.038  49.309  1.00  0.00     0.044 NA
HETATM    5  N6  UNL     1      24.546   5.128  50.383  1.00  0.00    -0.018 N 
ENDROOT
BRANCH   3   6
HETATM    6  N3  UNL     1      26.993   6.532  48.136  1.00  0.00    -0.183 N 
HETATM    7  H3  UNL     1      26.335   6.527  47.340  1.00  0.00     0.184 HD
BRANCH   6   8
HETATM    8  C3  UNL     1      28.403   6.816  48.261  1.00  0.00     0.085 C 
HETATM    9  C4  UNL     1      28.903   5.595  48.268  1.00  0.00     0.146 C 
HETATM   10  F1  UNL     1      28.331   4.392  48.200  1.00  0.00    -0.206 F 
HETATM   11  C5  UNL     1      30.410   5.749  48.184  1.00  0.00     0.269 C 
HETATM   12  O1  UNL     1      30.725   7.074  48.103  1.00  0.00    -0.272 OA
HETATM   13  N4  UNL     1      31.983   7.420  48.462  1.00  0.00    -0.071 NA
HETATM   14  C6  UNL     1      31.876   8.247  49.669  1.00  0.00     0.157 C 
HETATM   15  C7  UNL     1      30.974   9.437  49.392  1.00  0.00     0.046 C 
HETATM   16  C8  UNL     1      29.666   9.010  48.910  1.00  0.00    -0.023 C 
HETATM   17  C9  UNL     1      28.664   8.211  48.494  1.00  0.00     0.029 C 
BRANCH  13  18
HETATM   18  O2  UNL     1      32.810   6.391  48.638  1.00  0.00    -0.289 OA
HETATM   19  H6  UNL     1      33.541   6.673  49.264  1.00  0.00     0.239 HD
ENDBRANCH  13  18
ENDBRANCH   6   8
ENDBRANCH   3   6
BRANCH   1  20
HETATM   20  N1  UNL     1      24.150   6.774  52.179  1.00  0.00    -0.230 N 
HETATM   21  H1  UNL     1      24.479   7.484  52.890  1.00  0.00     0.174 HD
HETATM   22  H2  UNL     1      23.221   6.378  52.451  1.00  0.00     0.174 HD
ENDBRANCH   1  20
BRANCH   5  23
HETATM   23  C10 UNL     1      23.626   4.148  50.898  1.00  0.00     0.218 C 
HETATM   24  S1  UNL     1      22.271   4.426  49.992  1.00  0.00    -0.038 SA
BRANCH  23  25
HETATM   25  N7  UNL     1      23.930   3.208  51.944  1.00  0.00    -0.329 N 
HETATM   26  H13 UNL     1      23.383   3.555  52.790  1.00  0.00     0.168 HD
BRANCH  25  27
HETATM   27  C11 UNL     1      24.689   2.039  52.162  1.00  0.00     0.073 A 
HETATM   28  C12 UNL     1      25.943   1.917  51.623  1.00  0.00     0.033 A 
HETATM   29  C13 UNL     1      26.649   0.771  51.857  1.00  0.00     0.002 A 
HETATM   30  C14 UNL     1      26.108  -0.233  52.617  1.00  0.00     0.003 A 
HETATM   31  C15 UNL     1      24.854  -0.149  53.175  1.00  0.00     0.044 A 
HETATM   32  C16 UNL     1      24.166   1.015  52.925  1.00  0.00     0.143 A 
HETATM   33  F2  UNL     1      22.956   1.025  53.499  1.00  0.00    -0.204 F 
ENDBRANCH  25  27
ENDBRANCH  23  25
ENDBRANCH   5  23
TORSDOF 7
ENDMDL
