MODEL 1
REMARK VINA RESULT:      -8.6      0.000      0.000
REMARK  6 active torsions:
REMARK  status: ('A' for Active; 'I' for Inactive)
REMARK    1  A    between atoms: C6_8  and  O1_9 
REMARK    2  A    between atoms: O1_9  and  C7_10 
REMARK    3  A    between atoms: C7_10  and  C8_11 
REMARK    4  A    between atoms: C8_11  and  C9_12 
REMARK    5  A    between atoms: C9_12  and  N3_13 
REMARK    6  A    between atoms: N4_22  and  C17_23 
ROOT
HETATM    1  N1  UNL     1      24.927  -1.281  55.402  1.00  0.00    -0.190 NA
HETATM    2  C1  UNL     1      24.730  -0.527  54.550  1.00  0.00     0.119 C 
HETATM    3  C2  UNL     1      24.462   0.418  53.492  1.00  0.00     0.139 A 
HETATM    4  C3  UNL     1      23.245   0.805  53.154  1.00  0.00     0.158 A 
HETATM    5  N2  UNL     1      23.054   1.745  52.098  1.00  0.00    -0.260 NA
HETATM    6  C4  UNL     1      24.066   2.235  51.452  1.00  0.00     0.067 A 
HETATM    7  C5  UNL     1      23.667   3.196  50.389  1.00  0.00     0.126 A 
HETATM    8  C6  UNL     1      24.874   3.717  49.691  1.00  0.00     0.052 A 
HETATM    9  C14 UNL     1      26.109   3.354  49.999  1.00  0.00     0.035 A 
HETATM   10  C15 UNL     1      26.428   2.416  51.044  1.00  0.00     0.034 A 
HETATM   11  C16 UNL     1      25.449   1.871  51.750  1.00  0.00     0.066 A 
HETATM   12  N4  UNL     1      25.626   0.933  52.806  1.00  0.00    -0.300 N 
ENDROOT
BRANCH  12  13
HETATM   13  C17 UNL     1      26.933   0.538  53.144  1.00  0.00     0.042 A 
HETATM   14  C18 UNL     1      27.923   1.347  53.676  1.00  0.00     0.033 A 
HETATM   15  C19 UNL     1      29.183   0.863  53.974  1.00  0.00     0.046 A 
HETATM   16  C20 UNL     1      29.507  -0.460  53.751  1.00  0.00     0.138 A 
HETATM   17  F1  UNL     1      30.746  -0.919  54.049  1.00  0.00    -0.204 F 
HETATM   18  C21 UNL     1      28.533  -1.279  53.223  1.00  0.00     0.074 A 
HETATM   19 CL1  UNL     1      28.908  -2.973  52.925  1.00  0.00    -0.081 Cl
HETATM   20  C22 UNL     1      27.263  -0.808  52.918  1.00  0.00     0.057 A 
ENDBRANCH  12  13
BRANCH   8  21
HETATM   21  O1  UNL     1      24.508   4.597  48.713  1.00  0.00    -0.355 OA
BRANCH  21  22
HETATM   22  C7  UNL     1      23.232   4.920  48.268  1.00  0.00     0.177 C 
BRANCH  22  23
HETATM   23  C8  UNL     1      23.175   6.328  47.675  1.00  0.00     0.057 C 
BRANCH  23  24
HETATM   24  C9  UNL     1      24.455   7.053  47.932  1.00  0.00     0.274 C 
BRANCH  24  25
HETATM   25  N3  UNL     1      24.269   8.305  48.586  1.00  0.00     0.092 N 
HETATM   26  C10 UNL     1      25.534   8.826  49.121  1.00  0.00     0.298 C 
HETATM   27  C11 UNL     1      26.086   7.823  50.078  1.00  0.00     0.198 C 
HETATM   28  O2  UNL     1      25.154   7.080  50.758  1.00  0.00    -0.388 OA
HETATM   29  C12 UNL     1      23.935   7.691  50.950  1.00  0.00     0.198 C 
HETATM   30  C13 UNL     1      23.344   8.279  49.684  1.00  0.00     0.298 C 
ENDBRANCH  24  25
ENDBRANCH  23  24
ENDBRANCH  22  23
ENDBRANCH  21  22
ENDBRANCH   8  21
TORSDOF 6
ENDMDL
MODEL 2
REMARK VINA RESULT:      -8.2      4.935      7.662
REMARK  6 active torsions:
REMARK  status: ('A' for Active; 'I' for Inactive)
REMARK    1  A    between atoms: C6_8  and  O1_9 
REMARK    2  A    between atoms: O1_9  and  C7_10 
REMARK    3  A    between atoms: C7_10  and  C8_11 
REMARK    4  A    between atoms: C8_11  and  C9_12 
REMARK    5  A    between atoms: C9_12  and  N3_13 
REMARK    6  A    between atoms: N4_22  and  C17_23 
ROOT
HETATM    1  N1  UNL     1      26.900   3.155  50.443  1.00  0.00    -0.190 NA
HETATM    2  C1  UNL     1      25.919   2.661  50.797  1.00  0.00     0.119 C 
HETATM    3  C2  UNL     1      24.681   2.051  51.220  1.00  0.00     0.139 A 
HETATM    4  C3  UNL     1      23.506   2.348  50.691  1.00  0.00     0.158 A 
HETATM    5  N2  UNL     1      22.322   1.704  51.159  1.00  0.00    -0.260 NA
HETATM    6  C4  UNL     1      22.374   0.820  52.107  1.00  0.00     0.067 A 
HETATM    7  C5  UNL     1      21.040   0.264  52.456  1.00  0.00     0.126 A 
HETATM    8  C6  UNL     1      21.174  -0.740  53.547  1.00  0.00     0.052 A 
HETATM    9  C14 UNL     1      22.331  -1.064  54.102  1.00  0.00     0.035 A 
HETATM   10  C15 UNL     1      23.592  -0.485  53.717  1.00  0.00     0.034 A 
HETATM   11  C16 UNL     1      23.622   0.425  52.754  1.00  0.00     0.066 A 
HETATM   12  N4  UNL     1      24.797   1.074  52.279  1.00  0.00    -0.300 N 
ENDROOT
BRANCH  12  13
HETATM   13  C17 UNL     1      26.033   0.740  52.860  1.00  0.00     0.042 A 
HETATM   14  C18 UNL     1      26.807   1.556  53.669  1.00  0.00     0.033 A 
HETATM   15  C19 UNL     1      28.014   1.134  54.193  1.00  0.00     0.046 A 
HETATM   16  C20 UNL     1      28.500  -0.130  53.930  1.00  0.00     0.138 A 
HETATM   17  F1  UNL     1      29.685  -0.529  54.452  1.00  0.00    -0.204 F 
HETATM   18  C21 UNL     1      27.742  -0.956  53.128  1.00  0.00     0.074 A 
HETATM   19 CL1  UNL     1      28.329  -2.576  52.769  1.00  0.00    -0.081 Cl
HETATM   20  C22 UNL     1      26.528  -0.546  52.593  1.00  0.00     0.057 A 
ENDBRANCH  12  13
BRANCH   8  21
HETATM   21  O1  UNL     1      19.949  -1.250  53.870  1.00  0.00    -0.355 OA
BRANCH  21  22
HETATM   22  C7  UNL     1      18.714  -0.974  53.296  1.00  0.00     0.177 C 
BRANCH  22  23
HETATM   23  C8  UNL     1      17.757  -2.161  53.405  1.00  0.00     0.057 C 
BRANCH  23  24
HETATM   24  C9  UNL     1      16.506  -1.893  52.635  1.00  0.00     0.274 C 
BRANCH  24  25
HETATM   25  N3  UNL     1      16.384  -0.536  52.218  1.00  0.00     0.092 N 
HETATM   26  C10 UNL     1      15.213   0.111  52.824  1.00  0.00     0.298 C 
HETATM   27  C11 UNL     1      13.997  -0.659  52.430  1.00  0.00     0.198 C 
HETATM   28  O2  UNL     1      14.052  -1.262  51.199  1.00  0.00    -0.388 OA
HETATM   29  C12 UNL     1      14.869  -0.650  50.276  1.00  0.00     0.198 C 
HETATM   30  C13 UNL     1      16.261  -0.351  50.799  1.00  0.00     0.298 C 
ENDBRANCH  24  25
ENDBRANCH  23  24
ENDBRANCH  22  23
ENDBRANCH  21  22
ENDBRANCH   8  21
TORSDOF 6
ENDMDL
MODEL 3
REMARK VINA RESULT:      -8.2      3.340      4.102
REMARK  6 active torsions:
REMARK  status: ('A' for Active; 'I' for Inactive)
REMARK    1  A    between atoms: C6_8  and  O1_9 
REMARK    2  A    between atoms: O1_9  and  C7_10 
REMARK    3  A    between atoms: C7_10  and  C8_11 
REMARK    4  A    between atoms: C8_11  and  C9_12 
REMARK    5  A    between atoms: C9_12  and  N3_13 
REMARK    6  A    between atoms: N4_22  and  C17_23 
ROOT
HETATM    1  N1  UNL     1      23.110   0.204  53.908  1.00  0.00    -0.190 NA
HETATM    2  C1  UNL     1      23.372   1.036  53.152  1.00  0.00     0.119 C 
HETATM    3  C2  UNL     1      23.679   2.088  52.213  1.00  0.00     0.139 A 
HETATM    4  C3  UNL     1      22.782   2.953  51.772  1.00  0.00     0.158 A 
HETATM    5  N2  UNL     1      23.157   3.970  50.843  1.00  0.00    -0.260 NA
HETATM    6  C4  UNL     1      24.377   4.065  50.416  1.00  0.00     0.067 A 
HETATM    7  C5  UNL     1      24.571   5.183  49.456  1.00  0.00     0.126 A 
HETATM    8  C6  UNL     1      25.990   5.232  49.007  1.00  0.00     0.052 A 
HETATM    9  C14 UNL     1      26.917   4.385  49.425  1.00  0.00     0.035 A 
HETATM   10  C15 UNL     1      26.662   3.319  50.360  1.00  0.00     0.034 A 
HETATM   11  C16 UNL     1      25.440   3.158  50.844  1.00  0.00     0.066 A 
HETATM   12  N4  UNL     1      25.054   2.148  51.770  1.00  0.00    -0.300 N 
ENDROOT
BRANCH  12  13
HETATM   13  C17 UNL     1      26.028   1.241  52.222  1.00  0.00     0.042 A 
HETATM   14  C18 UNL     1      26.097  -0.109  51.917  1.00  0.00     0.033 A 
HETATM   15  C19 UNL     1      27.099  -0.921  52.414  1.00  0.00     0.046 A 
HETATM   16  C20 UNL     1      28.079  -0.415  53.242  1.00  0.00     0.138 A 
HETATM   17  F1  UNL     1      29.054  -1.224  53.722  1.00  0.00    -0.204 F 
HETATM   18  C21 UNL     1      28.026   0.926  53.556  1.00  0.00     0.074 A 
HETATM   19 CL1  UNL     1      29.259   1.610  54.610  1.00  0.00    -0.081 Cl
HETATM   20  C22 UNL     1      27.026   1.755  53.064  1.00  0.00     0.057 A 
ENDBRANCH  12  13
BRANCH   8  21
HETATM   21  O1  UNL     1      26.169   6.258  48.124  1.00  0.00    -0.355 OA
BRANCH  21  22
HETATM   22  C7  UNL     1      26.956   7.394  48.260  1.00  0.00     0.177 C 
BRANCH  22  23
HETATM   23  C8  UNL     1      28.209   7.328  47.385  1.00  0.00     0.057 C 
BRANCH  23  24
HETATM   24  C9  UNL     1      29.301   6.597  48.095  1.00  0.00     0.274 C 
BRANCH  24  25
HETATM   25  N3  UNL     1      30.576   7.215  47.949  1.00  0.00     0.092 N 
HETATM   26  C10 UNL     1      31.449   6.443  47.055  1.00  0.00     0.298 C 
HETATM   27  C11 UNL     1      31.605   5.071  47.622  1.00  0.00     0.198 C 
HETATM   28  O2  UNL     1      31.557   4.989  48.990  1.00  0.00    -0.388 OA
HETATM   29  C12 UNL     1      31.963   6.117  49.667  1.00  0.00     0.198 C 
HETATM   30  C13 UNL     1      31.303   7.391  49.174  1.00  0.00     0.298 C 
ENDBRANCH  24  25
ENDBRANCH  23  24
ENDBRANCH  22  23
ENDBRANCH  21  22
ENDBRANCH   8  21
TORSDOF 6
ENDMDL
MODEL 4
REMARK VINA RESULT:      -8.1      5.141      7.765
REMARK  6 active torsions:
REMARK  status: ('A' for Active; 'I' for Inactive)
REMARK    1  A    between atoms: C6_8  and  O1_9 
REMARK    2  A    between atoms: O1_9  and  C7_10 
REMARK    3  A    between atoms: C7_10  and  C8_11 
REMARK    4  A    between atoms: C8_11  and  C9_12 
REMARK    5  A    between atoms: C9_12  and  N3_13 
REMARK    6  A    between atoms: N4_22  and  C17_23 
ROOT
HETATM    1  N1  UNL     1      21.545   6.721  51.005  1.00  0.00    -0.190 NA
HETATM    2  C1  UNL     1      22.618   6.842  50.598  1.00  0.00     0.119 C 
HETATM    3  C2  UNL     1      23.960   7.017  50.096  1.00  0.00     0.139 A 
HETATM    4  C3  UNL     1      24.523   8.200  49.920  1.00  0.00     0.158 A 
HETATM    5  N2  UNL     1      25.856   8.298  49.421  1.00  0.00    -0.260 NA
HETATM    6  C4  UNL     1      26.538   7.234  49.131  1.00  0.00     0.067 A 
HETATM    7  C5  UNL     1      27.902   7.540  48.625  1.00  0.00     0.126 A 
HETATM    8  C6  UNL     1      28.626   6.277  48.312  1.00  0.00     0.052 A 
HETATM    9  C14 UNL     1      28.098   5.074  48.473  1.00  0.00     0.035 A 
HETATM   10  C15 UNL     1      26.766   4.846  48.969  1.00  0.00     0.034 A 
HETATM   11  C16 UNL     1      26.006   5.883  49.290  1.00  0.00     0.066 A 
HETATM   12  N4  UNL     1      24.675   5.798  49.789  1.00  0.00    -0.300 N 
ENDROOT
BRANCH  12  13
HETATM   13  C17 UNL     1      24.102   4.527  49.965  1.00  0.00     0.042 A 
HETATM   14  C18 UNL     1      23.407   3.801  49.012  1.00  0.00     0.033 A 
HETATM   15  C19 UNL     1      22.877   2.553  49.284  1.00  0.00     0.046 A 
HETATM   16  C20 UNL     1      23.022   1.976  50.528  1.00  0.00     0.138 A 
HETATM   17  F1  UNL     1      22.497   0.753  50.779  1.00  0.00    -0.204 F 
HETATM   18  C21 UNL     1      23.711   2.685  51.489  1.00  0.00     0.074 A 
HETATM   19 CL1  UNL     1      23.917   1.981  53.090  1.00  0.00    -0.081 Cl
HETATM   20  C22 UNL     1      24.249   3.939  51.231  1.00  0.00     0.057 A 
ENDBRANCH  12  13
BRANCH   8  21
HETATM   21  O1  UNL     1      29.879   6.557  47.845  1.00  0.00    -0.355 OA
BRANCH  21  22
HETATM   22  C7  UNL     1      30.917   7.221  48.487  1.00  0.00     0.177 C 
BRANCH  22  23
HETATM   23  C8  UNL     1      31.801   6.261  49.284  1.00  0.00     0.057 C 
BRANCH  23  24
HETATM   24  C9  UNL     1      32.134   5.059  48.463  1.00  0.00     0.274 C 
BRANCH  24  25
HETATM   25  N3  UNL     1      33.130   5.311  47.475  1.00  0.00     0.092 N 
HETATM   26  C10 UNL     1      32.888   4.532  46.254  1.00  0.00     0.298 C 
HETATM   27  C11 UNL     1      32.880   3.085  46.616  1.00  0.00     0.198 C 
HETATM   28  O2  UNL     1      33.694   2.733  47.663  1.00  0.00    -0.388 OA
HETATM   29  C12 UNL     1      34.798   3.535  47.851  1.00  0.00     0.198 C 
HETATM   30  C13 UNL     1      34.474   5.016  47.886  1.00  0.00     0.298 C 
ENDBRANCH  24  25
ENDBRANCH  23  24
ENDBRANCH  22  23
ENDBRANCH  21  22
ENDBRANCH   8  21
TORSDOF 6
ENDMDL
MODEL 5
REMARK VINA RESULT:      -8.1      1.669      2.974
REMARK  6 active torsions:
REMARK  status: ('A' for Active; 'I' for Inactive)
REMARK    1  A    between atoms: C6_8  and  O1_9 
REMARK    2  A    between atoms: O1_9  and  C7_10 
REMARK    3  A    between atoms: C7_10  and  C8_11 
REMARK    4  A    between atoms: C8_11  and  C9_12 
REMARK    5  A    between atoms: C9_12  and  N3_13 
REMARK    6  A    between atoms: N4_22  and  C17_23 
ROOT
HETATM    1  N1  UNL     1      24.928  -1.270  55.340  1.00  0.00    -0.190 NA
HETATM    2  C1  UNL     1      24.716  -0.520  54.489  1.00  0.00     0.119 C 
HETATM    3  C2  UNL     1      24.428   0.419  53.431  1.00  0.00     0.139 A 
HETATM    4  C3  UNL     1      23.202   0.774  53.087  1.00  0.00     0.158 A 
HETATM    5  N2  UNL     1      22.993   1.710  52.031  1.00  0.00    -0.260 NA
HETATM    6  C4  UNL     1      23.995   2.229  51.392  1.00  0.00     0.067 A 
HETATM    7  C5  UNL     1      23.575   3.180  50.328  1.00  0.00     0.126 A 
HETATM    8  C6  UNL     1      24.772   3.735  49.638  1.00  0.00     0.052 A 
HETATM    9  C14 UNL     1      26.014   3.405  49.953  1.00  0.00     0.035 A 
HETATM   10  C15 UNL     1      26.353   2.474  50.997  1.00  0.00     0.034 A 
HETATM   11  C16 UNL     1      25.385   1.902  51.698  1.00  0.00     0.066 A 
HETATM   12  N4  UNL     1      25.582   0.967  52.753  1.00  0.00    -0.300 N 
ENDROOT
BRANCH  12  13
HETATM   13  C17 UNL     1      26.896   0.607  53.098  1.00  0.00     0.042 A 
HETATM   14  C18 UNL     1      27.866   1.446  53.621  1.00  0.00     0.033 A 
HETATM   15  C19 UNL     1      29.137   0.995  53.927  1.00  0.00     0.046 A 
HETATM   16  C20 UNL     1      29.492  -0.322  53.721  1.00  0.00     0.138 A 
HETATM   17  F1  UNL     1      30.741  -0.749  54.026  1.00  0.00    -0.204 F 
HETATM   18  C21 UNL     1      28.539  -1.171  53.201  1.00  0.00     0.074 A 
HETATM   19 CL1  UNL     1      28.954  -2.859  52.924  1.00  0.00    -0.081 Cl
HETATM   20  C22 UNL     1      27.259  -0.733  52.889  1.00  0.00     0.057 A 
ENDBRANCH  12  13
BRANCH   8  21
HETATM   21  O1  UNL     1      24.388   4.607  48.659  1.00  0.00    -0.355 OA
BRANCH  21  22
HETATM   22  C7  UNL     1      24.431   5.996  48.668  1.00  0.00     0.177 C 
BRANCH  22  23
HETATM   23  C8  UNL     1      23.145   6.609  48.112  1.00  0.00     0.057 C 
BRANCH  23  24
HETATM   24  C9  UNL     1      22.731   5.905  46.862  1.00  0.00     0.274 C 
BRANCH  24  25
HETATM   25  N3  UNL     1      21.356   5.530  46.858  1.00  0.00     0.092 N 
HETATM   26  C10 UNL     1      21.172   4.153  47.334  1.00  0.00     0.298 C 
HETATM   27  C11 UNL     1      21.955   3.242  46.448  1.00  0.00     0.198 C 
HETATM   28  O2  UNL     1      22.076   3.648  45.143  1.00  0.00    -0.388 OA
HETATM   29  C12 UNL     1      21.050   4.436  44.670  1.00  0.00     0.198 C 
HETATM   30  C13 UNL     1      20.716   5.606  45.575  1.00  0.00     0.298 C 
ENDBRANCH  24  25
ENDBRANCH  23  24
ENDBRANCH  22  23
ENDBRANCH  21  22
ENDBRANCH   8  21
TORSDOF 6
ENDMDL
MODEL 6
REMARK VINA RESULT:      -7.9      4.801      7.273
REMARK  6 active torsions:
REMARK  status: ('A' for Active; 'I' for Inactive)
REMARK    1  A    between atoms: C6_8  and  O1_9 
REMARK    2  A    between atoms: O1_9  and  C7_10 
REMARK    3  A    between atoms: C7_10  and  C8_11 
REMARK    4  A    between atoms: C8_11  and  C9_12 
REMARK    5  A    between atoms: C9_12  and  N3_13 
REMARK    6  A    between atoms: N4_22  and  C17_23 
ROOT
HETATM    1  N1  UNL     1      26.901   3.234  50.387  1.00  0.00    -0.190 NA
HETATM    2  C1  UNL     1      25.828   2.872  50.609  1.00  0.00     0.119 C 
HETATM    3  C2  UNL     1      24.478   2.428  50.864  1.00  0.00     0.139 A 
HETATM    4  C3  UNL     1      23.435   2.828  50.158  1.00  0.00     0.158 A 
HETATM    5  N2  UNL     1      22.128   2.346  50.466  1.00  0.00    -0.260 NA
HETATM    6  C4  UNL     1      21.938   1.511  51.440  1.00  0.00     0.067 A 
HETATM    7  C5  UNL     1      20.511   1.126  51.605  1.00  0.00     0.126 A 
HETATM    8  C6  UNL     1      20.367   0.170  52.737  1.00  0.00     0.052 A 
HETATM    9  C14 UNL     1      21.387  -0.255  53.467  1.00  0.00     0.035 A 
HETATM   10  C15 UNL     1      22.749   0.158  53.254  1.00  0.00     0.034 A 
HETATM   11  C16 UNL     1      23.025   1.009  52.277  1.00  0.00     0.066 A 
HETATM   12  N4  UNL     1      24.325   1.497  51.960  1.00  0.00    -0.300 N 
ENDROOT
BRANCH  12  13
HETATM   13  C17 UNL     1      25.416   1.055  52.728  1.00  0.00     0.042 A 
HETATM   14  C18 UNL     1      26.028   1.749  53.758  1.00  0.00     0.033 A 
HETATM   15  C19 UNL     1      27.101   1.226  54.456  1.00  0.00     0.046 A 
HETATM   16  C20 UNL     1      27.609  -0.019  54.150  1.00  0.00     0.138 A 
HETATM   17  F1  UNL     1      28.661  -0.517  54.843  1.00  0.00    -0.204 F 
HETATM   18  C21 UNL     1      27.011  -0.724  53.128  1.00  0.00     0.074 A 
HETATM   19 CL1  UNL     1      27.630  -2.317  52.708  1.00  0.00    -0.081 Cl
HETATM   20  C22 UNL     1      25.933  -0.213  52.418  1.00  0.00     0.057 A 
ENDBRANCH  12  13
BRANCH   8  21
HETATM   21  O1  UNL     1      19.057  -0.182  52.891  1.00  0.00    -0.355 OA
BRANCH  21  22
HETATM   22  C7  UNL     1      18.528  -1.336  53.457  1.00  0.00     0.177 C 
BRANCH  22  23
HETATM   23  C8  UNL     1      17.141  -1.659  52.901  1.00  0.00     0.057 C 
BRANCH  23  24
HETATM   24  C9  UNL     1      16.858  -0.827  51.694  1.00  0.00     0.274 C 
BRANCH  24  25
HETATM   25  N3  UNL     1      15.467  -0.689  51.420  1.00  0.00     0.092 N 
HETATM   26  C10 UNL     1      15.227   0.220  50.292  1.00  0.00     0.298 C 
HETATM   27  C11 UNL     1      15.817   1.549  50.628  1.00  0.00     0.198 C 
HETATM   28  O2  UNL     1      15.812   1.878  51.959  1.00  0.00    -0.388 OA
HETATM   29  C12 UNL     1      14.806   1.307  52.707  1.00  0.00     0.198 C 
HETATM   30  C13 UNL     1      14.684  -0.192  52.516  1.00  0.00     0.298 C 
ENDBRANCH  24  25
ENDBRANCH  23  24
ENDBRANCH  22  23
ENDBRANCH  21  22
ENDBRANCH   8  21
TORSDOF 6
ENDMDL
MODEL 7
REMARK VINA RESULT:      -7.8      5.549      8.881
REMARK  6 active torsions:
REMARK  status: ('A' for Active; 'I' for Inactive)
REMARK    1  A    between atoms: C6_8  and  O1_9 
REMARK    2  A    between atoms: O1_9  and  C7_10 
REMARK    3  A    between atoms: C7_10  and  C8_11 
REMARK    4  A    between atoms: C8_11  and  C9_12 
REMARK    5  A    between atoms: C9_12  and  N3_13 
REMARK    6  A    between atoms: N4_22  and  C17_23 
ROOT
HETATM    1  N1  UNL     1      32.971   9.980  47.250  1.00  0.00    -0.190 NA
HETATM    2  C1  UNL     1      31.969   9.484  47.535  1.00  0.00     0.119 C 
HETATM    3  C2  UNL     1      30.705   8.884  47.890  1.00  0.00     0.139 A 
HETATM    4  C3  UNL     1      29.648   9.583  48.266  1.00  0.00     0.158 A 
HETATM    5  N2  UNL     1      28.429   8.922  48.601  1.00  0.00    -0.260 NA
HETATM    6  C4  UNL     1      28.334   7.631  48.545  1.00  0.00     0.067 A 
HETATM    7  C5  UNL     1      26.988   7.130  48.931  1.00  0.00     0.126 A 
HETATM    8  C6  UNL     1      26.950   5.644  48.844  1.00  0.00     0.052 A 
HETATM    9  C14 UNL     1      27.986   4.909  48.473  1.00  0.00     0.035 A 
HETATM   10  C15 UNL     1      29.267   5.458  48.110  1.00  0.00     0.034 A 
HETATM   11  C16 UNL     1      29.443   6.771  48.141  1.00  0.00     0.066 A 
HETATM   12  N4  UNL     1      30.655   7.441  47.808  1.00  0.00    -0.300 N 
ENDROOT
BRANCH  12  13
HETATM   13  C17 UNL     1      31.763   6.672  47.413  1.00  0.00     0.042 A 
HETATM   14  C18 UNL     1      31.963   6.101  46.167  1.00  0.00     0.033 A 
HETATM   15  C19 UNL     1      33.091   5.357  45.875  1.00  0.00     0.046 A 
HETATM   16  C20 UNL     1      34.073   5.153  46.823  1.00  0.00     0.138 A 
HETATM   17  F1  UNL     1      35.172   4.422  46.522  1.00  0.00    -0.204 F 
HETATM   18  C21 UNL     1      33.890   5.715  48.069  1.00  0.00     0.074 A 
HETATM   19 CL1  UNL     1      35.120   5.476  49.305  1.00  0.00    -0.081 Cl
HETATM   20  C22 UNL     1      32.763   6.464  48.377  1.00  0.00     0.057 A 
ENDBRANCH  12  13
BRANCH   8  21
HETATM   21  O1  UNL     1      25.715   5.184  49.201  1.00  0.00    -0.355 OA
BRANCH  21  22
HETATM   22  C7  UNL     1      25.370   4.359  50.264  1.00  0.00     0.177 C 
BRANCH  22  23
HETATM   23  C8  UNL     1      25.833   2.918  50.042  1.00  0.00     0.057 C 
BRANCH  23  24
HETATM   24  C9  UNL     1      26.662   2.456  51.194  1.00  0.00     0.274 C 
BRANCH  24  25
HETATM   25  N3  UNL     1      26.190   1.243  51.774  1.00  0.00     0.092 N 
HETATM   26  C10 UNL     1      25.081   1.487  52.705  1.00  0.00     0.298 C 
HETATM   27  C11 UNL     1      25.560   2.414  53.772  1.00  0.00     0.198 C 
HETATM   28  O2  UNL     1      26.890   2.307  54.094  1.00  0.00    -0.388 OA
HETATM   29  C12 UNL     1      27.452   1.068  53.885  1.00  0.00     0.198 C 
HETATM   30  C13 UNL     1      27.178   0.501  52.505  1.00  0.00     0.298 C 
ENDBRANCH  24  25
ENDBRANCH  23  24
ENDBRANCH  22  23
ENDBRANCH  21  22
ENDBRANCH   8  21
TORSDOF 6
ENDMDL
MODEL 8
REMARK VINA RESULT:      -7.8      2.142      2.755
REMARK  6 active torsions:
REMARK  status: ('A' for Active; 'I' for Inactive)
REMARK    1  A    between atoms: C6_8  and  O1_9 
REMARK    2  A    between atoms: O1_9  and  C7_10 
REMARK    3  A    between atoms: C7_10  and  C8_11 
REMARK    4  A    between atoms: C8_11  and  C9_12 
REMARK    5  A    between atoms: C9_12  and  N3_13 
REMARK    6  A    between atoms: N4_22  and  C17_23 
ROOT
HETATM    1  N1  UNL     1      23.551  -0.860  54.339  1.00  0.00    -0.190 NA
HETATM    2  C1  UNL     1      23.658   0.003  53.580  1.00  0.00     0.119 C 
HETATM    3  C2  UNL     1      23.769   1.090  52.637  1.00  0.00     0.139 A 
HETATM    4  C3  UNL     1      22.737   1.808  52.230  1.00  0.00     0.158 A 
HETATM    5  N2  UNL     1      22.922   2.870  51.294  1.00  0.00    -0.260 NA
HETATM    6  C4  UNL     1      24.099   3.150  50.828  1.00  0.00     0.067 A 
HETATM    7  C5  UNL     1      24.088   4.285  49.868  1.00  0.00     0.126 A 
HETATM    8  C6  UNL     1      25.468   4.550  49.374  1.00  0.00     0.052 A 
HETATM    9  C14 UNL     1      26.526   3.853  49.757  1.00  0.00     0.035 A 
HETATM   10  C15 UNL     1      26.468   2.761  50.693  1.00  0.00     0.034 A 
HETATM   11  C16 UNL     1      25.300   2.415  51.216  1.00  0.00     0.066 A 
HETATM   12  N4  UNL     1      25.104   1.358  52.150  1.00  0.00    -0.300 N 
ENDROOT
BRANCH  12  13
HETATM   13  C17 UNL     1      26.219   0.610  52.564  1.00  0.00     0.042 A 
HETATM   14  C18 UNL     1      26.479  -0.715  52.256  1.00  0.00     0.033 A 
HETATM   15  C19 UNL     1      27.609  -1.366  52.715  1.00  0.00     0.046 A 
HETATM   16  C20 UNL     1      28.532  -0.714  53.507  1.00  0.00     0.138 A 
HETATM   17  F1  UNL     1      29.634  -1.365  53.949  1.00  0.00    -0.204 F 
HETATM   18  C21 UNL     1      28.289   0.606  53.823  1.00  0.00     0.074 A 
HETATM   19 CL1  UNL     1      29.444   1.472  54.831  1.00  0.00    -0.081 Cl
HETATM   20  C22 UNL     1      27.159   1.273  53.369  1.00  0.00     0.057 A 
ENDBRANCH  12  13
BRANCH   8  21
HETATM   21  O1  UNL     1      25.459   5.591  48.490  1.00  0.00    -0.355 OA
BRANCH  21  22
HETATM   22  C7  UNL     1      25.024   6.896  48.690  1.00  0.00     0.177 C 
BRANCH  22  23
HETATM   23  C8  UNL     1      25.489   7.828  47.570  1.00  0.00     0.057 C 
BRANCH  23  24
HETATM   24  C9  UNL     1      26.455   8.835  48.100  1.00  0.00     0.274 C 
BRANCH  24  25
HETATM   25  N3  UNL     1      27.499   9.149  47.183  1.00  0.00     0.092 N 
HETATM   26  C10 UNL     1      28.620   8.208  47.298  1.00  0.00     0.298 C 
HETATM   27  C11 UNL     1      29.134   8.262  48.698  1.00  0.00     0.198 C 
HETATM   28  O2  UNL     1      29.019   9.477  49.323  1.00  0.00    -0.388 OA
HETATM   29  C12 UNL     1      29.027  10.575  48.491  1.00  0.00     0.198 C 
HETATM   30  C13 UNL     1      28.056  10.465  47.332  1.00  0.00     0.298 C 
ENDBRANCH  24  25
ENDBRANCH  23  24
ENDBRANCH  22  23
ENDBRANCH  21  22
ENDBRANCH   8  21
TORSDOF 6
ENDMDL
MODEL 9
REMARK VINA RESULT:      -7.5      7.184      9.254
REMARK  6 active torsions:
REMARK  status: ('A' for Active; 'I' for Inactive)
REMARK    1  A    between atoms: C6_8  and  O1_9 
REMARK    2  A    between atoms: O1_9  and  C7_10 
REMARK    3  A    between atoms: C7_10  and  C8_11 
REMARK    4  A    between atoms: C8_11  and  C9_12 
REMARK    5  A    between atoms: C9_12  and  N3_13 
REMARK    6  A    between atoms: N4_22  and  C17_23 
ROOT
HETATM    1  N1  UNL     1      24.778   0.381  53.369  1.00  0.00    -0.190 NA
HETATM    2  C1  UNL     1      23.661   0.090  53.363  1.00  0.00     0.119 C 
HETATM    3  C2  UNL     1      22.268  -0.286  53.376  1.00  0.00     0.139 A 
HETATM    4  C3  UNL     1      21.782  -1.252  54.137  1.00  0.00     0.158 A 
HETATM    5  N2  UNL     1      20.392  -1.569  54.099  1.00  0.00    -0.260 NA
HETATM    6  C4  UNL     1      19.581  -0.921  53.322  1.00  0.00     0.067 A 
HETATM    7  C5  UNL     1      18.176  -1.396  53.422  1.00  0.00     0.126 A 
HETATM    8  C6  UNL     1      17.304  -0.610  52.506  1.00  0.00     0.052 A 
HETATM    9  C14 UNL     1      17.752   0.363  51.729  1.00  0.00     0.035 A 
HETATM   10  C15 UNL     1      19.130   0.776  51.679  1.00  0.00     0.034 A 
HETATM   11  C16 UNL     1      20.020   0.162  52.445  1.00  0.00     0.066 A 
HETATM   12  N4  UNL     1      21.410   0.470  52.491  1.00  0.00    -0.300 N 
ENDROOT
BRANCH  12  13
HETATM   13  C17 UNL     1      21.899   1.501  51.671  1.00  0.00     0.042 A 
HETATM   14  C18 UNL     1      22.317   2.753  52.088  1.00  0.00     0.033 A 
HETATM   15  C19 UNL     1      22.783   3.704  51.199  1.00  0.00     0.046 A 
HETATM   16  C20 UNL     1      22.850   3.439  49.846  1.00  0.00     0.138 A 
HETATM   17  F1  UNL     1      23.309   4.381  48.988  1.00  0.00    -0.204 F 
HETATM   18  C21 UNL     1      22.439   2.197  49.414  1.00  0.00     0.074 A 
HETATM   19 CL1  UNL     1      22.509   1.821  47.695  1.00  0.00    -0.081 Cl
HETATM   20  C22 UNL     1      21.968   1.232  50.294  1.00  0.00     0.057 A 
ENDBRANCH  12  13
BRANCH   8  21
HETATM   21  O1  UNL     1      16.013  -1.047  52.596  1.00  0.00    -0.355 OA
BRANCH  21  22
HETATM   22  C7  UNL     1      14.846  -0.389  52.229  1.00  0.00     0.177 C 
BRANCH  22  23
HETATM   23  C8  UNL     1      14.264   0.426  53.385  1.00  0.00     0.057 C 
BRANCH  23  24
HETATM   24  C9  UNL     1      13.949   1.814  52.935  1.00  0.00     0.274 C 
BRANCH  24  25
HETATM   25  N3  UNL     1      12.551   2.068  52.832  1.00  0.00     0.092 N 
HETATM   26  C10 UNL     1      12.275   3.219  51.963  1.00  0.00     0.298 C 
HETATM   27  C11 UNL     1      12.972   4.411  52.529  1.00  0.00     0.198 C 
HETATM   28  O2  UNL     1      13.097   4.428  53.895  1.00  0.00    -0.388 OA
HETATM   29  C12 UNL     1      12.124   3.744  54.588  1.00  0.00     0.198 C 
HETATM   30  C13 UNL     1      11.894   2.334  54.080  1.00  0.00     0.298 C 
ENDBRANCH  24  25
ENDBRANCH  23  24
ENDBRANCH  22  23
ENDBRANCH  21  22
ENDBRANCH   8  21
TORSDOF 6
ENDMDL
