MODEL 1
REMARK VINA RESULT:      -9.9      0.000      0.000
REMARK  5 active torsions:
REMARK  status: ('A' for Active; 'I' for Inactive)
REMARK    1  A    between atoms: O1_2  and  C2_3 
REMARK    2  A    between atoms: C5_6  and  N1_7 
REMARK    3  A    between atoms: C12_15  and  N3_16 
REMARK    4  A    between atoms: N3_16  and  C13_17 
REMARK    5  A    between atoms: C19_23  and  C20_24 
REMARK       I    between atoms: C20_24  and  N4_25 
ROOT
HETATM    1  C13 UNL     1      23.788   2.947  52.626  1.00  0.00     0.229 C 
HETATM    2  C14 UNL     1      22.798   1.865  52.711  1.00  0.00     0.017 C 
HETATM    3  C15 UNL     1      22.906   0.543  52.584  1.00  0.00    -0.026 C 
HETATM    4  C16 UNL     1      24.328   0.302  52.310  1.00  0.00     0.032 C 
HETATM    5  C17 UNL     1      24.975  -0.500  53.431  1.00  0.00     0.047 C 
HETATM    6  C18 UNL     1      26.447  -0.399  53.310  1.00  0.00     0.007 A 
HETATM    7  C19 UNL     1      27.692  -0.880  53.100  1.00  0.00     0.147 A 
HETATM    8  N5  UNL     1      28.592   0.087  53.185  1.00  0.00    -0.167 NA
HETATM    9  N6  UNL     1      27.978   1.217  53.450  1.00  0.00    -0.272 N 
HETATM   10  C21 UNL     1      28.835   2.396  53.578  1.00  0.00     0.180 C 
HETATM   11  C22 UNL     1      26.661   0.971  53.535  1.00  0.00     0.078 A 
HETATM   12  C23 UNL     1      25.779   2.120  53.838  1.00  0.00     0.145 C 
HETATM   13  N7  UNL     1      24.801   2.855  53.595  1.00  0.00    -0.270 NA
ENDROOT
BRANCH   1  14
HETATM   14  N3  UNL     1      24.243   3.264  51.285  1.00  0.00    -0.362 N 
HETATM   15  H18 UNL     1      24.443   2.498  50.572  1.00  0.00     0.162 HD
BRANCH  14  16
HETATM   16  C12 UNL     1      24.489   4.563  50.767  1.00  0.00     0.065 A 
HETATM   17  C2  UNL     1      23.626   5.647  50.971  1.00  0.00     0.094 A 
HETATM   18  C3  UNL     1      23.874   6.899  50.458  1.00  0.00     0.041 A 
HETATM   19  C4  UNL     1      25.004   7.146  49.710  1.00  0.00     0.032 A 
HETATM   20  C5  UNL     1      25.875   6.105  49.489  1.00  0.00     0.032 A 
HETATM   21  C11 UNL     1      25.597   4.867  50.016  1.00  0.00     0.061 A 
BRANCH  17  22
HETATM   22  O1  UNL     1      22.483   5.408  51.724  1.00  0.00    -0.354 OA
HETATM   23  C1  UNL     1      21.236   5.341  51.065  1.00  0.00     0.210 C 
ENDBRANCH  17  22
BRANCH  20  24
HETATM   24  N1  UNL     1      27.056   6.290  48.726  1.00  0.00    -0.377 N 
HETATM   25  C6  UNL     1      27.407   7.464  47.962  1.00  0.00     0.153 C 
HETATM   26  C7  UNL     1      28.700   7.986  48.596  1.00  0.00     0.291 C 
HETATM   27  N2  UNL     1      29.736   7.040  48.319  1.00  0.00     0.087 N 
HETATM   28  C8  UNL     1      30.745   7.570  47.440  1.00  0.00     0.310 C 
HETATM   29  C9  UNL     1      29.276   5.735  47.910  1.00  0.00     0.291 C 
HETATM   30  C10 UNL     1      28.069   5.255  48.649  1.00  0.00     0.153 C 
ENDBRANCH  20  24
ENDBRANCH  14  16
ENDBRANCH   1  14
BRANCH   7  31
HETATM   31  C20 UNL     1      27.743  -2.309  52.838  1.00  0.00     0.249 C 
HETATM   32  N4  UNL     1      28.588  -3.314  53.360  1.00  0.00    -0.267 NA
HETATM   33  H26 UNL     1      28.122  -3.534  54.279  1.00  0.00     0.127 HD
HETATM   34  H27 UNL     1      28.635  -3.895  54.208  1.00  0.00     0.127 HD
HETATM   35  O2  UNL     1      26.878  -2.670  52.005  1.00  0.00    -0.272 OA
ENDBRANCH   7  31
TORSDOF 5
ENDMDL
MODEL 2
REMARK VINA RESULT:      -9.5      1.055      1.380
REMARK  5 active torsions:
REMARK  status: ('A' for Active; 'I' for Inactive)
REMARK    1  A    between atoms: O1_2  and  C2_3 
REMARK    2  A    between atoms: C5_6  and  N1_7 
REMARK    3  A    between atoms: C12_15  and  N3_16 
REMARK    4  A    between atoms: N3_16  and  C13_17 
REMARK    5  A    between atoms: C19_23  and  C20_24 
REMARK       I    between atoms: C20_24  and  N4_25 
ROOT
HETATM    1  C13 UNL     1      23.931   2.973  52.602  1.00  0.00     0.229 C 
HETATM    2  C14 UNL     1      22.928   1.902  52.676  1.00  0.00     0.017 C 
HETATM    3  C15 UNL     1      23.023   0.578  52.552  1.00  0.00    -0.026 C 
HETATM    4  C16 UNL     1      24.447   0.322  52.298  1.00  0.00     0.032 C 
HETATM    5  C17 UNL     1      25.070  -0.485  53.428  1.00  0.00     0.047 C 
HETATM    6  C18 UNL     1      26.544  -0.400  53.326  1.00  0.00     0.007 A 
HETATM    7  C19 UNL     1      27.788  -0.894  53.134  1.00  0.00     0.147 A 
HETATM    8  N5  UNL     1      28.697   0.064  53.229  1.00  0.00    -0.167 NA
HETATM    9  N6  UNL     1      28.091   1.200  53.484  1.00  0.00    -0.272 N 
HETATM   10  C21 UNL     1      28.959   2.370  53.622  1.00  0.00     0.180 C 
HETATM   11  C22 UNL     1      26.771   0.968  53.553  1.00  0.00     0.078 A 
HETATM   12  C23 UNL     1      25.897   2.127  53.842  1.00  0.00     0.145 C 
HETATM   13  N7  UNL     1      24.930   2.872  53.585  1.00  0.00    -0.270 NA
ENDROOT
BRANCH   1  14
HETATM   14  N3  UNL     1      24.406   3.283  51.267  1.00  0.00    -0.362 N 
HETATM   15  H18 UNL     1      24.918   2.557  50.678  1.00  0.00     0.162 HD
BRANCH  14  16
HETATM   16  C12 UNL     1      24.282   4.531  50.600  1.00  0.00     0.065 A 
HETATM   17  C2  UNL     1      23.059   5.042  50.149  1.00  0.00     0.094 A 
HETATM   18  C3  UNL     1      22.954   6.249  49.499  1.00  0.00     0.041 A 
HETATM   19  C4  UNL     1      24.069   7.023  49.261  1.00  0.00     0.032 A 
HETATM   20  C5  UNL     1      25.288   6.554  49.690  1.00  0.00     0.032 A 
HETATM   21  C11 UNL     1      25.356   5.343  50.336  1.00  0.00     0.061 A 
BRANCH  17  22
HETATM   22  O1  UNL     1      21.929   4.268  50.385  1.00  0.00    -0.354 OA
HETATM   23  C1  UNL     1      20.860   4.831  51.118  1.00  0.00     0.210 C 
ENDBRANCH  17  22
BRANCH  20  24
HETATM   24  N1  UNL     1      26.474   7.299  49.476  1.00  0.00    -0.377 N 
HETATM   25  C6  UNL     1      27.551   6.954  48.577  1.00  0.00     0.153 C 
HETATM   26  C7  UNL     1      27.611   8.098  47.560  1.00  0.00     0.291 C 
HETATM   27  N2  UNL     1      28.059   9.270  48.245  1.00  0.00     0.087 N 
HETATM   28  C8  UNL     1      29.358   9.703  47.800  1.00  0.00     0.310 C 
HETATM   29  C9  UNL     1      27.957   9.212  49.682  1.00  0.00     0.291 C 
HETATM   30  C10 UNL     1      26.717   8.543  50.179  1.00  0.00     0.153 C 
ENDBRANCH  20  24
ENDBRANCH  14  16
ENDBRANCH   1  14
BRANCH   7  31
HETATM   31  C20 UNL     1      27.826  -2.324  52.874  1.00  0.00     0.249 C 
HETATM   32  N4  UNL     1      28.669  -3.333  53.392  1.00  0.00    -0.267 NA
HETATM   33  H26 UNL     1      28.208  -3.548  54.314  1.00  0.00     0.127 HD
HETATM   34  H27 UNL     1      28.719  -3.913  54.241  1.00  0.00     0.127 HD
HETATM   35  O2  UNL     1      26.953  -2.681  52.049  1.00  0.00    -0.272 OA
ENDBRANCH   7  31
TORSDOF 5
ENDMDL
MODEL 3
REMARK VINA RESULT:      -9.3      2.393      7.511
REMARK  5 active torsions:
REMARK  status: ('A' for Active; 'I' for Inactive)
REMARK    1  A    between atoms: O1_2  and  C2_3 
REMARK    2  A    between atoms: C5_6  and  N1_7 
REMARK    3  A    between atoms: C12_15  and  N3_16 
REMARK    4  A    between atoms: N3_16  and  C13_17 
REMARK    5  A    between atoms: C19_23  and  C20_24 
REMARK       I    between atoms: C20_24  and  N4_25 
ROOT
HETATM    1  C13 UNL     1      22.005   4.584  50.626  1.00  0.00     0.229 C 
HETATM    2  C14 UNL     1      21.229   5.828  50.716  1.00  0.00     0.017 C 
HETATM    3  C15 UNL     1      21.597   7.101  50.857  1.00  0.00    -0.026 C 
HETATM    4  C16 UNL     1      23.063   7.069  50.922  1.00  0.00     0.032 C 
HETATM    5  C17 UNL     1      23.682   7.799  49.738  1.00  0.00     0.047 C 
HETATM    6  C18 UNL     1      25.111   7.430  49.636  1.00  0.00     0.007 A 
HETATM    7  C19 UNL     1      26.441   7.668  49.669  1.00  0.00     0.147 A 
HETATM    8  N5  UNL     1      27.126   6.562  49.428  1.00  0.00    -0.167 NA
HETATM    9  N6  UNL     1      26.282   5.575  49.230  1.00  0.00    -0.272 N 
HETATM   10  C21 UNL     1      26.880   4.270  48.947  1.00  0.00     0.180 C 
HETATM   11  C22 UNL     1      25.035   6.057  49.347  1.00  0.00     0.078 A 
HETATM   12  C23 UNL     1      23.922   5.101  49.151  1.00  0.00     0.145 C 
HETATM   13  N7  UNL     1      22.870   4.542  49.520  1.00  0.00    -0.270 NA
ENDROOT
BRANCH   1  14
HETATM   14  N3  UNL     1      22.579   4.122  51.876  1.00  0.00    -0.362 N 
HETATM   15  H18 UNL     1      22.884   4.808  52.633  1.00  0.00     0.162 HD
BRANCH  14  16
HETATM   16  C12 UNL     1      22.819   2.771  52.241  1.00  0.00     0.065 A 
HETATM   17  C2  UNL     1      21.801   1.883  52.610  1.00  0.00     0.094 A 
HETATM   18  C3  UNL     1      22.048   0.578  52.968  1.00  0.00     0.041 A 
HETATM   19  C4  UNL     1      23.332   0.079  52.977  1.00  0.00     0.032 A 
HETATM   20  C5  UNL     1      24.358   0.921  52.621  1.00  0.00     0.032 A 
HETATM   21  C11 UNL     1      24.075   2.219  52.269  1.00  0.00     0.061 A 
BRANCH  17  22
HETATM   22  O1  UNL     1      20.502   2.377  52.604  1.00  0.00    -0.354 OA
HETATM   23  C1  UNL     1      19.570   1.828  51.695  1.00  0.00     0.210 C 
ENDBRANCH  17  22
BRANCH  20  24
HETATM   24  N1  UNL     1      25.703   0.473  52.611  1.00  0.00    -0.377 N 
HETATM   25  C6  UNL     1      26.863   1.254  52.251  1.00  0.00     0.153 C 
HETATM   26  C7  UNL     1      27.733   1.290  53.512  1.00  0.00     0.291 C 
HETATM   27  N2  UNL     1      28.230  -0.031  53.738  1.00  0.00     0.087 N 
HETATM   28  C8  UNL     1      29.657  -0.118  53.570  1.00  0.00     0.310 C 
HETATM   29  C9  UNL     1      27.525  -1.076  53.037  1.00  0.00     0.291 C 
HETATM   30  C10 UNL     1      26.044  -0.885  52.987  1.00  0.00     0.153 C 
ENDBRANCH  20  24
ENDBRANCH  14  16
ENDBRANCH   1  14
BRANCH   7  31
HETATM   31  C20 UNL     1      26.791   9.050  49.955  1.00  0.00     0.249 C 
HETATM   32  N4  UNL     1      27.557   9.611  51.003  1.00  0.00    -0.267 NA
HETATM   33  H26 UNL     1      28.540   9.471  50.652  1.00  0.00     0.127 HD
HETATM   34  H27 UNL     1      28.553   9.756  51.215  1.00  0.00     0.127 HD
HETATM   35  O2  UNL     1      26.316   9.845  49.111  1.00  0.00    -0.272 OA
ENDBRANCH   7  31
TORSDOF 5
ENDMDL
MODEL 4
REMARK VINA RESULT:      -9.2      2.632      3.853
REMARK  5 active torsions:
REMARK  status: ('A' for Active; 'I' for Inactive)
REMARK    1  A    between atoms: O1_2  and  C2_3 
REMARK    2  A    between atoms: C5_6  and  N1_7 
REMARK    3  A    between atoms: C12_15  and  N3_16 
REMARK    4  A    between atoms: N3_16  and  C13_17 
REMARK    5  A    between atoms: C19_23  and  C20_24 
REMARK       I    between atoms: C20_24  and  N4_25 
ROOT
HETATM    1  C13 UNL     1      24.959   3.245  50.587  1.00  0.00     0.229 C 
HETATM    2  C14 UNL     1      26.277   2.632  50.800  1.00  0.00     0.017 C 
HETATM    3  C15 UNL     1      26.737   1.810  51.742  1.00  0.00    -0.026 C 
HETATM    4  C16 UNL     1      25.598   1.583  52.640  1.00  0.00     0.032 C 
HETATM    5  C17 UNL     1      25.167   0.123  52.624  1.00  0.00     0.047 C 
HETATM    6  C18 UNL     1      23.821   0.010  53.227  1.00  0.00     0.007 A 
HETATM    7  C19 UNL     1      22.928  -0.392  54.159  1.00  0.00     0.147 A 
HETATM    8  N5  UNL     1      21.711   0.038  53.864  1.00  0.00    -0.167 NA
HETATM    9  N6  UNL     1      21.763   0.724  52.746  1.00  0.00    -0.272 N 
HETATM   10  C21 UNL     1      20.492   1.274  52.274  1.00  0.00     0.180 C 
HETATM   11  C22 UNL     1      23.035   0.736  52.317  1.00  0.00     0.078 A 
HETATM   12  C23 UNL     1      23.314   1.458  51.055  1.00  0.00     0.145 C 
HETATM   13  N7  UNL     1      23.933   2.306  50.383  1.00  0.00    -0.270 NA
ENDROOT
BRANCH   1  14
HETATM   14  N3  UNL     1      24.629   4.334  51.488  1.00  0.00    -0.362 N 
HETATM   15  H18 UNL     1      24.700   4.219  52.545  1.00  0.00     0.162 HD
BRANCH  14  16
HETATM   16  C12 UNL     1      24.174   5.626  51.112  1.00  0.00     0.065 A 
HETATM   17  C2  UNL     1      22.833   6.020  51.191  1.00  0.00     0.094 A 
HETATM   18  C3  UNL     1      22.406   7.273  50.817  1.00  0.00     0.041 A 
HETATM   19  C4  UNL     1      23.295   8.211  50.342  1.00  0.00     0.032 A 
HETATM   20  C5  UNL     1      24.621   7.860  50.250  1.00  0.00     0.032 A 
HETATM   21  C11 UNL     1      25.014   6.600  50.633  1.00  0.00     0.061 A 
BRANCH  17  22
HETATM   22  O1  UNL     1      21.928   5.080  51.668  1.00  0.00    -0.354 OA
HETATM   23  C1  UNL     1      20.866   4.672  50.831  1.00  0.00     0.210 C 
ENDBRANCH  17  22
BRANCH  20  24
HETATM   24  N1  UNL     1      25.589   8.777  49.769  1.00  0.00    -0.377 N 
HETATM   25  C6  UNL     1      26.936   8.938  50.263  1.00  0.00     0.153 C 
HETATM   26  C7  UNL     1      27.845   8.599  49.077  1.00  0.00     0.291 C 
HETATM   27  N2  UNL     1      27.684   9.626  48.096  1.00  0.00     0.087 N 
HETATM   28  C8  UNL     1      28.878  10.412  47.921  1.00  0.00     0.310 C 
HETATM   29  C9  UNL     1      26.504  10.440  48.253  1.00  0.00     0.291 C 
HETATM   30  C10 UNL     1      25.289   9.678  48.674  1.00  0.00     0.153 C 
ENDBRANCH  20  24
ENDBRANCH  14  16
ENDBRANCH   1  14
BRANCH   7  31
HETATM   31  C20 UNL     1      23.505  -1.181  55.235  1.00  0.00     0.249 C 
HETATM   32  N4  UNL     1      24.820  -1.219  55.749  1.00  0.00    -0.267 NA
HETATM   33  H26 UNL     1      24.822  -0.392  56.401  1.00  0.00     0.127 HD
HETATM   34  H27 UNL     1      25.387  -0.673  56.412  1.00  0.00     0.127 HD
HETATM   35  O2  UNL     1      22.664  -1.941  55.770  1.00  0.00    -0.272 OA
ENDBRANCH   7  31
TORSDOF 5
ENDMDL
MODEL 5
REMARK VINA RESULT:      -9.1      2.395      4.516
REMARK  5 active torsions:
REMARK  status: ('A' for Active; 'I' for Inactive)
REMARK    1  A    between atoms: O1_2  and  C2_3 
REMARK    2  A    between atoms: C5_6  and  N1_7 
REMARK    3  A    between atoms: C12_15  and  N3_16 
REMARK    4  A    between atoms: N3_16  and  C13_17 
REMARK    5  A    between atoms: C19_23  and  C20_24 
REMARK       I    between atoms: C20_24  and  N4_25 
ROOT
HETATM    1  C13 UNL     1      23.778   2.901  52.406  1.00  0.00     0.229 C 
HETATM    2  C14 UNL     1      22.782   1.825  52.493  1.00  0.00     0.017 C 
HETATM    3  C15 UNL     1      22.889   0.500  52.399  1.00  0.00    -0.026 C 
HETATM    4  C16 UNL     1      24.317   0.249  52.166  1.00  0.00     0.032 C 
HETATM    5  C17 UNL     1      24.934  -0.528  53.320  1.00  0.00     0.047 C 
HETATM    6  C18 UNL     1      26.408  -0.434  53.233  1.00  0.00     0.007 A 
HETATM    7  C19 UNL     1      27.657  -0.922  53.066  1.00  0.00     0.147 A 
HETATM    8  N5  UNL     1      28.558   0.044  53.150  1.00  0.00    -0.167 NA
HETATM    9  N6  UNL     1      27.941   1.181  53.373  1.00  0.00    -0.272 N 
HETATM   10  C21 UNL     1      28.798   2.360  53.495  1.00  0.00     0.180 C 
HETATM   11  C22 UNL     1      26.622   0.940  53.432  1.00  0.00     0.078 A 
HETATM   12  C23 UNL     1      25.736   2.099  53.686  1.00  0.00     0.145 C 
HETATM   13  N7  UNL     1      24.767   2.830  53.402  1.00  0.00    -0.270 NA
ENDROOT
BRANCH   1  14
HETATM   14  N3  UNL     1      24.266   3.186  51.070  1.00  0.00    -0.362 N 
HETATM   15  H18 UNL     1      24.766   2.443  50.493  1.00  0.00     0.162 HD
BRANCH  14  16
HETATM   16  C12 UNL     1      24.170   4.428  50.388  1.00  0.00     0.065 A 
HETATM   17  C2  UNL     1      25.256   5.041  49.752  1.00  0.00     0.094 A 
HETATM   18  C3  UNL     1      25.150   6.247  49.100  1.00  0.00     0.041 A 
HETATM   19  C4  UNL     1      23.947   6.917  49.043  1.00  0.00     0.032 A 
HETATM   20  C5  UNL     1      22.857   6.346  49.656  1.00  0.00     0.032 A 
HETATM   21  C11 UNL     1      22.999   5.139  50.298  1.00  0.00     0.061 A 
BRANCH  17  22
HETATM   22  O1  UNL     1      26.474   4.373  49.804  1.00  0.00    -0.354 OA
HETATM   23  C1  UNL     1      27.441   4.645  48.810  1.00  0.00     0.210 C 
ENDBRANCH  17  22
BRANCH  20  24
HETATM   24  N1  UNL     1      21.591   6.981  49.637  1.00  0.00    -0.377 N 
HETATM   25  C6  UNL     1      21.218   8.170  50.367  1.00  0.00     0.153 C 
HETATM   26  C7  UNL     1      20.854   9.204  49.297  1.00  0.00     0.291 C 
HETATM   27  N2  UNL     1      19.650   8.768  48.660  1.00  0.00     0.087 N 
HETATM   28  C8  UNL     1      18.539   9.643  48.926  1.00  0.00     0.310 C 
HETATM   29  C9  UNL     1      19.322   7.379  48.863  1.00  0.00     0.291 C 
HETATM   30  C10 UNL     1      20.503   6.462  48.832  1.00  0.00     0.153 C 
ENDBRANCH  20  24
ENDBRANCH  14  16
ENDBRANCH   1  14
BRANCH   7  31
HETATM   31  C20 UNL     1      27.710  -2.357  52.838  1.00  0.00     0.249 C 
HETATM   32  N4  UNL     1      28.578  -3.343  53.359  1.00  0.00    -0.267 NA
HETATM   33  H26 UNL     1      28.142  -3.543  54.297  1.00  0.00     0.127 HD
HETATM   34  H27 UNL     1      28.656  -3.902  54.219  1.00  0.00     0.127 HD
HETATM   35  O2  UNL     1      26.823  -2.745  52.042  1.00  0.00    -0.272 OA
ENDBRANCH   7  31
TORSDOF 5
ENDMDL
MODEL 6
REMARK VINA RESULT:      -8.9      2.762      7.632
REMARK  5 active torsions:
REMARK  status: ('A' for Active; 'I' for Inactive)
REMARK    1  A    between atoms: O1_2  and  C2_3 
REMARK    2  A    between atoms: C5_6  and  N1_7 
REMARK    3  A    between atoms: C12_15  and  N3_16 
REMARK    4  A    between atoms: N3_16  and  C13_17 
REMARK    5  A    between atoms: C19_23  and  C20_24 
REMARK       I    between atoms: C20_24  and  N4_25 
ROOT
HETATM    1  C13 UNL     1      21.662   2.653  50.715  1.00  0.00     0.229 C 
HETATM    2  C14 UNL     1      20.602   3.642  50.478  1.00  0.00     0.017 C 
HETATM    3  C15 UNL     1      20.628   4.969  50.366  1.00  0.00    -0.026 C 
HETATM    4  C16 UNL     1      22.039   5.339  50.539  1.00  0.00     0.032 C 
HETATM    5  C17 UNL     1      22.601   5.965  49.271  1.00  0.00     0.047 C 
HETATM    6  C18 UNL     1      24.079   5.974  49.350  1.00  0.00     0.007 A 
HETATM    7  C19 UNL     1      25.296   6.557  49.424  1.00  0.00     0.147 A 
HETATM    8  N5  UNL     1      26.255   5.645  49.477  1.00  0.00    -0.167 NA
HETATM    9  N6  UNL     1      25.707   4.452  49.439  1.00  0.00    -0.272 N 
HETATM   10  C21 UNL     1      26.635   3.322  49.487  1.00  0.00     0.180 C 
HETATM   11  C22 UNL     1      24.376   4.601  49.361  1.00  0.00     0.078 A 
HETATM   12  C23 UNL     1      23.562   3.366  49.300  1.00  0.00     0.145 C 
HETATM   13  N7  UNL     1      22.641   2.630  49.707  1.00  0.00    -0.270 NA
ENDROOT
BRANCH   1  14
HETATM   14  N3  UNL     1      22.173   2.607  52.072  1.00  0.00    -0.362 N 
HETATM   15  H18 UNL     1      22.339   3.499  52.633  1.00  0.00     0.162 HD
BRANCH  14  16
HETATM   16  C12 UNL     1      22.523   1.438  52.799  1.00  0.00     0.065 A 
HETATM   17  C2  UNL     1      21.577   0.558  53.338  1.00  0.00     0.094 A 
HETATM   18  C3  UNL     1      21.930  -0.568  54.045  1.00  0.00     0.041 A 
HETATM   19  C4  UNL     1      23.254  -0.885  54.256  1.00  0.00     0.032 A 
HETATM   20  C5  UNL     1      24.211  -0.044  53.741  1.00  0.00     0.032 A 
HETATM   21  C11 UNL     1      23.824   1.072  53.039  1.00  0.00     0.061 A 
BRANCH  17  22
HETATM   22  O1  UNL     1      20.238   0.869  53.132  1.00  0.00    -0.354 OA
HETATM   23  C1  UNL     1      19.366  -0.147  52.682  1.00  0.00     0.210 C 
ENDBRANCH  17  22
BRANCH  20  24
HETATM   24  N1  UNL     1      25.592  -0.310  53.922  1.00  0.00    -0.377 N 
HETATM   25  C6  UNL     1      26.414  -1.166  53.099  1.00  0.00     0.153 C 
HETATM   26  C7  UNL     1      27.493  -0.249  52.514  1.00  0.00     0.291 C 
HETATM   27  N2  UNL     1      28.344   0.164  53.586  1.00  0.00     0.087 N 
HETATM   28  C8  UNL     1      29.677  -0.365  53.465  1.00  0.00     0.310 C 
HETATM   29  C9  UNL     1      27.794  -0.021  54.907  1.00  0.00     0.291 C 
HETATM   30  C10 UNL     1      26.336   0.294  55.009  1.00  0.00     0.153 C 
ENDBRANCH  20  24
ENDBRANCH  14  16
ENDBRANCH   1  14
BRANCH   7  31
HETATM   31  C20 UNL     1      25.261   8.010  49.428  1.00  0.00     0.249 C 
HETATM   32  N4  UNL     1      25.591   8.939  50.441  1.00  0.00    -0.267 NA
HETATM   33  H26 UNL     1      26.638   8.999  50.348  1.00  0.00     0.127 HD
HETATM   34  H27 UNL     1      26.443   9.378  50.814  1.00  0.00     0.127 HD
HETATM   35  O2  UNL     1      24.868   8.478  48.334  1.00  0.00    -0.272 OA
ENDBRANCH   7  31
TORSDOF 5
ENDMDL
MODEL 7
REMARK VINA RESULT:      -8.8      3.436      9.094
REMARK  5 active torsions:
REMARK  status: ('A' for Active; 'I' for Inactive)
REMARK    1  A    between atoms: O1_2  and  C2_3 
REMARK    2  A    between atoms: C5_6  and  N1_7 
REMARK    3  A    between atoms: C12_15  and  N3_16 
REMARK    4  A    between atoms: N3_16  and  C13_17 
REMARK    5  A    between atoms: C19_23  and  C20_24 
REMARK       I    between atoms: C20_24  and  N4_25 
ROOT
HETATM    1  C13 UNL     1      25.278   2.553  52.004  1.00  0.00     0.229 C 
HETATM    2  C14 UNL     1      26.439   2.898  51.172  1.00  0.00     0.017 C 
HETATM    3  C15 UNL     1      26.542   3.309  49.908  1.00  0.00    -0.026 C 
HETATM    4  C16 UNL     1      25.160   3.367  49.414  1.00  0.00     0.032 C 
HETATM    5  C17 UNL     1      24.762   4.794  49.063  1.00  0.00     0.047 C 
HETATM    6  C18 UNL     1      23.289   4.867  48.935  1.00  0.00     0.007 A 
HETATM    7  C19 UNL     1      22.127   5.050  48.269  1.00  0.00     0.147 A 
HETATM    8  N5  UNL     1      21.090   4.890  49.076  1.00  0.00    -0.167 NA
HETATM    9  N6  UNL     1      21.530   4.603  50.280  1.00  0.00    -0.272 N 
HETATM   10  C21 UNL     1      20.503   4.394  51.302  1.00  0.00     0.180 C 
HETATM   11  C22 UNL     1      22.871   4.577  50.244  1.00  0.00     0.078 A 
HETATM   12  C23 UNL     1      23.573   4.276  51.512  1.00  0.00     0.145 C 
HETATM   13  N7  UNL     1      24.388   3.624  52.194  1.00  0.00    -0.270 NA
ENDROOT
BRANCH   1  14
HETATM   14  N3  UNL     1      24.655   1.279  51.698  1.00  0.00    -0.362 N 
HETATM   15  H18 UNL     1      24.806   0.800  50.757  1.00  0.00     0.162 HD
BRANCH  14  16
HETATM   16  C12 UNL     1      23.792   0.540  52.550  1.00  0.00     0.065 A 
HETATM   17  C2  UNL     1      24.254  -0.266  53.597  1.00  0.00     0.094 A 
HETATM   18  C3  UNL     1      23.407  -0.982  54.411  1.00  0.00     0.041 A 
HETATM   19  C4  UNL     1      22.043  -0.934  54.228  1.00  0.00     0.032 A 
HETATM   20  C5  UNL     1      21.552  -0.153  53.209  1.00  0.00     0.032 A 
HETATM   21  C11 UNL     1      22.427   0.549  52.415  1.00  0.00     0.061 A 
BRANCH  17  22
HETATM   22  O1  UNL     1      25.629  -0.322  53.790  1.00  0.00    -0.354 OA
HETATM   23  C1  UNL     1      26.158   0.081  55.037  1.00  0.00     0.210 C 
ENDBRANCH  17  22
BRANCH  20  24
HETATM   24  N1  UNL     1      20.159  -0.060  52.965  1.00  0.00    -0.377 N 
HETATM   25  C6  UNL     1      19.486   0.988  52.233  1.00  0.00     0.153 C 
HETATM   26  C7  UNL     1      18.831   0.289  51.038  1.00  0.00     0.291 C 
HETATM   27  N2  UNL     1      17.783  -0.544  51.539  1.00  0.00     0.087 N 
HETATM   28  C8  UNL     1      16.479  -0.093  51.132  1.00  0.00     0.310 C 
HETATM   29  C9  UNL     1      17.855  -0.831  52.951  1.00  0.00     0.291 C 
HETATM   30  C10 UNL     1      19.242  -1.070  53.455  1.00  0.00     0.153 C 
ENDBRANCH  20  24
ENDBRANCH  14  16
ENDBRANCH   1  14
BRANCH   7  31
HETATM   31  C20 UNL     1      22.292   5.370  46.861  1.00  0.00     0.249 C 
HETATM   32  N4  UNL     1      22.685   6.570  46.226  1.00  0.00    -0.267 NA
HETATM   33  H26 UNL     1      23.734   6.522  46.302  1.00  0.00     0.127 HD
HETATM   34  H27 UNL     1      23.565   7.054  46.006  1.00  0.00     0.127 HD
HETATM   35  O2  UNL     1      22.032   4.394  46.119  1.00  0.00    -0.272 OA
ENDBRANCH   7  31
TORSDOF 5
ENDMDL
MODEL 8
REMARK VINA RESULT:      -8.7      4.545      8.150
REMARK  5 active torsions:
REMARK  status: ('A' for Active; 'I' for Inactive)
REMARK    1  A    between atoms: O1_2  and  C2_3 
REMARK    2  A    between atoms: C5_6  and  N1_7 
REMARK    3  A    between atoms: C12_15  and  N3_16 
REMARK    4  A    between atoms: N3_16  and  C13_17 
REMARK    5  A    between atoms: C19_23  and  C20_24 
REMARK       I    between atoms: C20_24  and  N4_25 
ROOT
HETATM    1  C13 UNL     1      21.725   1.068  53.130  1.00  0.00     0.229 C 
HETATM    2  C14 UNL     1      21.618   0.097  54.226  1.00  0.00     0.017 C 
HETATM    3  C15 UNL     1      22.402  -0.911  54.606  1.00  0.00    -0.026 C 
HETATM    4  C16 UNL     1      23.516  -0.908  53.650  1.00  0.00     0.032 C 
HETATM    5  C17 UNL     1      24.835  -0.600  54.345  1.00  0.00     0.047 C 
HETATM    6  C18 UNL     1      25.846  -0.239  53.326  1.00  0.00     0.007 A 
HETATM    7  C19 UNL     1      26.984  -0.410  52.618  1.00  0.00     0.147 A 
HETATM    8  N5  UNL     1      27.145   0.566  51.738  1.00  0.00    -0.167 NA
HETATM    9  N6  UNL     1      26.135   1.398  51.839  1.00  0.00    -0.272 N 
HETATM   10  C21 UNL     1      26.159   2.545  50.930  1.00  0.00     0.180 C 
HETATM   11  C22 UNL     1      25.311   0.948  52.798  1.00  0.00     0.078 A 
HETATM   12  C23 UNL     1      24.101   1.753  53.079  1.00  0.00     0.145 C 
HETATM   13  N7  UNL     1      22.868   1.881  53.212  1.00  0.00    -0.270 NA
ENDROOT
BRANCH   1  14
HETATM   14  N3  UNL     1      21.434   0.543  51.808  1.00  0.00    -0.362 N 
HETATM   15  H18 UNL     1      22.033  -0.223  51.372  1.00  0.00     0.162 HD
BRANCH  14  16
HETATM   16  C12 UNL     1      20.383   0.963  50.950  1.00  0.00     0.065 A 
HETATM   17  C2  UNL     1      20.603   1.548  49.697  1.00  0.00     0.094 A 
HETATM   18  C3  UNL     1      19.576   1.956  48.879  1.00  0.00     0.041 A 
HETATM   19  C4  UNL     1      18.262   1.804  49.263  1.00  0.00     0.032 A 
HETATM   20  C5  UNL     1      18.007   1.234  50.488  1.00  0.00     0.032 A 
HETATM   21  C11 UNL     1      19.058   0.837  51.280  1.00  0.00     0.061 A 
BRANCH  17  22
HETATM   22  O1  UNL     1      21.926   1.707  49.300  1.00  0.00    -0.354 OA
HETATM   23  C1  UNL     1      22.523   2.981  49.420  1.00  0.00     0.210 C 
ENDBRANCH  17  22
BRANCH  20  24
HETATM   24  N1  UNL     1      16.679   1.048  50.946  1.00  0.00    -0.377 N 
HETATM   25  C6  UNL     1      16.039  -0.215  51.229  1.00  0.00     0.153 C 
HETATM   26  C7  UNL     1      15.687  -0.165  52.719  1.00  0.00     0.291 C 
HETATM   27  N2  UNL     1      14.663   0.817  52.894  1.00  0.00     0.087 N 
HETATM   28  C8  UNL     1      13.411   0.238  53.306  1.00  0.00     0.310 C 
HETATM   29  C9  UNL     1      14.512   1.741  51.798  1.00  0.00     0.291 C 
HETATM   30  C10 UNL     1      15.803   2.179  51.185  1.00  0.00     0.153 C 
ENDBRANCH  20  24
ENDBRANCH  14  16
ENDBRANCH   1  14
BRANCH   7  31
HETATM   31  C20 UNL     1      27.739  -1.597  52.984  1.00  0.00     0.249 C 
HETATM   32  N4  UNL     1      27.573  -2.950  52.609  1.00  0.00    -0.267 NA
HETATM   33  H26 UNL     1      28.052  -2.976  51.672  1.00  0.00     0.127 HD
HETATM   34  H27 UNL     1      27.826  -3.548  51.811  1.00  0.00     0.127 HD
HETATM   35  O2  UNL     1      28.686  -1.336  53.762  1.00  0.00    -0.272 OA
ENDBRANCH   7  31
TORSDOF 5
ENDMDL
MODEL 9
REMARK VINA RESULT:      -8.5      3.021      4.352
REMARK  5 active torsions:
REMARK  status: ('A' for Active; 'I' for Inactive)
REMARK    1  A    between atoms: O1_2  and  C2_3 
REMARK    2  A    between atoms: C5_6  and  N1_7 
REMARK    3  A    between atoms: C12_15  and  N3_16 
REMARK    4  A    between atoms: N3_16  and  C13_17 
REMARK    5  A    between atoms: C19_23  and  C20_24 
REMARK       I    between atoms: C20_24  and  N4_25 
ROOT
HETATM    1  C13 UNL     1      24.897   3.411  50.698  1.00  0.00     0.229 C 
HETATM    2  C14 UNL     1      25.863   2.657  51.508  1.00  0.00     0.017 C 
HETATM    3  C15 UNL     1      25.717   1.890  52.587  1.00  0.00    -0.026 C 
HETATM    4  C16 UNL     1      24.278   1.918  52.883  1.00  0.00     0.032 C 
HETATM    5  C17 UNL     1      23.659   0.536  52.732  1.00  0.00     0.047 C 
HETATM    6  C18 UNL     1      22.187   0.670  52.666  1.00  0.00     0.007 A 
HETATM    7  C19 UNL     1      20.922   0.496  53.109  1.00  0.00     0.147 A 
HETATM    8  N5  UNL     1      20.050   1.048  52.279  1.00  0.00    -0.167 NA
HETATM    9  N6  UNL     1      20.704   1.593  51.279  1.00  0.00    -0.272 N 
HETATM   10  C21 UNL     1      19.882   2.251  50.263  1.00  0.00     0.180 C 
HETATM   11  C22 UNL     1      22.016   1.388  51.471  1.00  0.00     0.078 A 
HETATM   12  C23 UNL     1      22.939   1.922  50.443  1.00  0.00     0.145 C 
HETATM   13  N7  UNL     1      23.923   2.601  50.090  1.00  0.00    -0.270 NA
ENDROOT
BRANCH   1  14
HETATM   14  N3  UNL     1      24.394   4.628  51.309  1.00  0.00    -0.362 N 
HETATM   15  H18 UNL     1      23.933   4.616  52.270  1.00  0.00     0.162 HD
BRANCH  14  16
HETATM   16  C12 UNL     1      24.426   5.928  50.740  1.00  0.00     0.065 A 
HETATM   17  C2  UNL     1      23.320   6.786  50.722  1.00  0.00     0.094 A 
HETATM   18  C3  UNL     1      23.364   8.041  50.161  1.00  0.00     0.041 A 
HETATM   19  C4  UNL     1      24.519   8.518  49.583  1.00  0.00     0.032 A 
HETATM   20  C5  UNL     1      25.627   7.704  49.582  1.00  0.00     0.032 A 
HETATM   21  C11 UNL     1      25.549   6.455  50.151  1.00  0.00     0.061 A 
BRANCH  17  22
HETATM   22  O1  UNL     1      22.149   6.314  51.302  1.00  0.00    -0.354 OA
HETATM   23  C1  UNL     1      21.082   5.925  50.462  1.00  0.00     0.210 C 
ENDBRANCH  17  22
BRANCH  20  24
HETATM   24  N1  UNL     1      26.848   8.131  49.003  1.00  0.00    -0.377 N 
HETATM   25  C6  UNL     1      27.299   9.496  48.865  1.00  0.00     0.153 C 
HETATM   26  C7  UNL     1      28.592   9.579  49.683  1.00  0.00     0.291 C 
HETATM   27  N2  UNL     1      29.582   8.793  49.017  1.00  0.00     0.087 N 
HETATM   28  C8  UNL     1      30.657   9.592  48.490  1.00  0.00     0.310 C 
HETATM   29  C9  UNL     1      29.066   7.854  48.051  1.00  0.00     0.291 C 
HETATM   30  C10 UNL     1      27.802   7.177  48.473  1.00  0.00     0.153 C 
ENDBRANCH  20  24
ENDBRANCH  14  16
ENDBRANCH   1  14
BRANCH   7  31
HETATM   31  C20 UNL     1      20.825  -0.238  54.360  1.00  0.00     0.249 C 
HETATM   32  N4  UNL     1      20.817  -1.627  54.617  1.00  0.00    -0.267 NA
HETATM   33  H26 UNL     1      21.845  -1.856  54.603  1.00  0.00     0.127 HD
HETATM   34  H27 UNL     1      21.511  -2.380  54.718  1.00  0.00     0.127 HD
HETATM   35  O2  UNL     1      20.734   0.524  55.351  1.00  0.00    -0.272 OA
ENDBRANCH   7  31
TORSDOF 5
ENDMDL
