MODEL 1
REMARK VINA RESULT:      -7.8      0.000      0.000
REMARK  3 active torsions:
REMARK  status: ('A' for Active; 'I' for Inactive)
REMARK    1  A    between atoms: C3_3  and  C4_5 
REMARK    2  A    between atoms: C8_10  and  N2_11 
REMARK    3  A    between atoms: N2_11  and  C9_12 
ROOT
HETATM    1  C4  UNL     1      26.358  -0.659  53.038  1.00  0.00     0.048 C 
HETATM    2  C5  UNL     1      25.470   0.055  53.697  1.00  0.00    -0.035 C 
HETATM    3  C6  UNL     1      24.091  -0.516  53.711  1.00  0.00     0.156 C 
HETATM    4  N1  UNL     1      23.229   0.290  52.875  1.00  0.00    -0.379 N 
HETATM    5  C7  UNL     1      23.559   1.442  52.119  1.00  0.00     0.128 A 
HETATM    6  C8  UNL     1      22.849   1.610  50.957  1.00  0.00     0.160 A 
HETATM    7  N3  UNL     1      23.136   2.709  50.258  1.00  0.00    -0.222 NA
HETATM    8  C15 UNL     1      24.035   3.647  50.579  1.00  0.00     0.238 A 
HETATM    9  N4  UNL     1      24.729   3.478  51.720  1.00  0.00    -0.216 NA
HETATM   10  C16 UNL     1      24.507   2.382  52.505  1.00  0.00     0.197 A 
HETATM   11  O1  UNL     1      25.329   2.403  53.633  1.00  0.00    -0.328 OA
HETATM   12  C17 UNL     1      25.884   1.316  54.338  1.00  0.00     0.213 C 
HETATM   13  H8  UNL     1      22.205   0.047  52.774  1.00  0.00     0.160 HD
ENDROOT
BRANCH   6  14
HETATM   14  N2  UNL     1      21.917   0.621  50.553  1.00  0.00    -0.339 N 
HETATM   15  H9  UNL     1      22.176  -0.262  50.073  1.00  0.00     0.167 HD
BRANCH  14  16
HETATM   16  C9  UNL     1      20.502   0.641  50.691  1.00  0.00     0.035 A 
HETATM   17  C10 UNL     1      19.633   1.423  49.927  1.00  0.00     0.029 A 
HETATM   18  C11 UNL     1      18.273   1.416  50.076  1.00  0.00     0.004 A 
HETATM   19  C12 UNL     1      17.673   0.615  51.015  1.00  0.00     0.019 A 
HETATM   20  C13 UNL     1      18.490  -0.171  51.788  1.00  0.00     0.013 A 
HETATM   21 BR1  UNL     1      17.580  -1.267  53.082  1.00  0.00    -0.051 Br
HETATM   22  C14 UNL     1      19.846  -0.142  51.614  1.00  0.00     0.048 A 
ENDBRANCH  14  16
ENDBRANCH   6  14
BRANCH   1  23
HETATM   23  C3  UNL     1      27.711  -0.143  52.998  1.00  0.00     0.112 C 
HETATM   24  C2  UNL     1      28.711  -0.890  53.459  1.00  0.00     0.011 C 
HETATM   25  C1  UNL     1      30.158  -0.795  53.618  1.00  0.00     0.039 C 
HETATM   26  F1  UNL     1      28.809   0.615  52.824  1.00  0.00    -0.206 F 
ENDBRANCH   1  23
TORSDOF 3
ENDMDL
MODEL 2
REMARK VINA RESULT:      -7.5      3.757      5.625
REMARK  3 active torsions:
REMARK  status: ('A' for Active; 'I' for Inactive)
REMARK    1  A    between atoms: C3_3  and  C4_5 
REMARK    2  A    between atoms: C8_10  and  N2_11 
REMARK    3  A    between atoms: N2_11  and  C9_12 
ROOT
HETATM    1  C4  UNL     1      24.158   5.190  51.153  1.00  0.00     0.048 C 
HETATM    2  C5  UNL     1      22.889   5.366  50.850  1.00  0.00    -0.035 C 
HETATM    3  C6  UNL     1      21.937   5.120  51.974  1.00  0.00     0.156 C 
HETATM    4  N1  UNL     1      21.205   3.898  51.723  1.00  0.00    -0.379 N 
HETATM    5  C7  UNL     1      21.318   3.011  50.624  1.00  0.00     0.128 A 
HETATM    6  C8  UNL     1      21.081   1.689  50.904  1.00  0.00     0.160 A 
HETATM    7  N3  UNL     1      21.158   0.855  49.866  1.00  0.00    -0.222 NA
HETATM    8  C15 UNL     1      21.439   1.182  48.599  1.00  0.00     0.238 A 
HETATM    9  N4  UNL     1      21.672   2.480  48.329  1.00  0.00    -0.216 NA
HETATM   10  C16 UNL     1      21.617   3.411  49.327  1.00  0.00     0.197 A 
HETATM   11  O1  UNL     1      21.890   4.687  48.832  1.00  0.00    -0.328 OA
HETATM   12  C17 UNL     1      22.518   5.769  49.483  1.00  0.00     0.213 C 
HETATM   13  H8  UNL     1      20.469   3.567  52.407  1.00  0.00     0.160 HD
ENDROOT
BRANCH   6  14
HETATM   14  N2  UNL     1      20.822   1.288  52.239  1.00  0.00    -0.339 N 
HETATM   15  H9  UNL     1      19.972   1.550  52.771  1.00  0.00     0.167 HD
BRANCH  14  16
HETATM   16  C9  UNL     1      21.645   0.503  53.095  1.00  0.00     0.035 A 
HETATM   17  C10 UNL     1      21.188  -0.240  54.184  1.00  0.00     0.029 A 
HETATM   18  C11 UNL     1      22.002  -0.994  54.985  1.00  0.00     0.004 A 
HETATM   19  C12 UNL     1      23.352  -1.059  54.752  1.00  0.00     0.019 A 
HETATM   20  C13 UNL     1      23.844  -0.344  53.690  1.00  0.00     0.013 A 
HETATM   21 BR1  UNL     1      25.745  -0.483  53.425  1.00  0.00    -0.051 Br
HETATM   22  C14 UNL     1      23.005   0.400  52.908  1.00  0.00     0.048 A 
ENDBRANCH  14  16
ENDBRANCH   6  14
BRANCH   1  23
HETATM   23  C3  UNL     1      25.120   5.419  50.093  1.00  0.00     0.112 C 
HETATM   24  C2  UNL     1      26.053   4.504  49.848  1.00  0.00     0.011 C 
HETATM   25  C1  UNL     1      27.175   4.311  48.934  1.00  0.00     0.039 C 
HETATM   26  F1  UNL     1      25.836   5.932  49.077  1.00  0.00    -0.206 F 
ENDBRANCH   1  23
TORSDOF 3
ENDMDL
MODEL 3
REMARK VINA RESULT:      -7.5      6.112      8.811
REMARK  3 active torsions:
REMARK  status: ('A' for Active; 'I' for Inactive)
REMARK    1  A    between atoms: C3_3  and  C4_5 
REMARK    2  A    between atoms: C8_10  and  N2_11 
REMARK    3  A    between atoms: N2_11  and  C9_12 
ROOT
HETATM    1  C4  UNL     1      26.322   2.831  51.032  1.00  0.00     0.048 C 
HETATM    2  C5  UNL     1      25.971   3.339  49.870  1.00  0.00    -0.035 C 
HETATM    3  C6  UNL     1      26.987   4.238  49.247  1.00  0.00     0.156 C 
HETATM    4  N1  UNL     1      26.518   5.605  49.305  1.00  0.00    -0.379 N 
HETATM    5  C7  UNL     1      25.311   6.101  49.859  1.00  0.00     0.128 A 
HETATM    6  C8  UNL     1      25.383   7.360  50.401  1.00  0.00     0.160 A 
HETATM    7  N3  UNL     1      24.243   7.842  50.896  1.00  0.00    -0.222 NA
HETATM    8  C15 UNL     1      23.056   7.224  50.913  1.00  0.00     0.238 A 
HETATM    9  N4  UNL     1      22.990   5.989  50.380  1.00  0.00    -0.216 NA
HETATM   10  C16 UNL     1      24.106   5.409  49.848  1.00  0.00     0.197 A 
HETATM   11  O1  UNL     1      23.818   4.136  49.355  1.00  0.00    -0.328 OA
HETATM   12  C17 UNL     1      24.655   3.003  49.298  1.00  0.00     0.213 C 
HETATM   13  H8  UNL     1      27.100   6.387  48.896  1.00  0.00     0.160 HD
ENDROOT
BRANCH   6  14
HETATM   14  N2  UNL     1      26.628   8.036  50.446  1.00  0.00    -0.339 N 
HETATM   15  H9  UNL     1      27.416   7.767  51.065  1.00  0.00     0.167 HD
BRANCH  14  16
HETATM   16  C9  UNL     1      27.030   9.184  49.707  1.00  0.00     0.035 A 
HETATM   17  C10 UNL     1      26.167  10.026  49.003  1.00  0.00     0.029 A 
HETATM   18  C11 UNL     1      26.581  11.129  48.307  1.00  0.00     0.004 A 
HETATM   19  C12 UNL     1      27.908  11.475  48.263  1.00  0.00     0.019 A 
HETATM   20  C13 UNL     1      28.792  10.674  48.942  1.00  0.00     0.013 A 
HETATM   21 BR1  UNL     1      30.634  11.220  48.835  1.00  0.00    -0.051 Br
HETATM   22  C14 UNL     1      28.347   9.579  49.629  1.00  0.00     0.048 A 
ENDBRANCH  14  16
ENDBRANCH   6  14
BRANCH   1  23
HETATM   23  C3  UNL     1      25.368   1.951  51.675  1.00  0.00     0.112 C 
HETATM   24  C2  UNL     1      25.798   0.845  52.276  1.00  0.00     0.011 C 
HETATM   25  C1  UNL     1      25.237  -0.284  53.012  1.00  0.00     0.039 C 
HETATM   26  F1  UNL     1      24.253   1.370  52.155  1.00  0.00    -0.206 F 
ENDBRANCH   1  23
TORSDOF 3
ENDMDL
MODEL 4
REMARK VINA RESULT:      -7.4      4.855      7.275
REMARK  3 active torsions:
REMARK  status: ('A' for Active; 'I' for Inactive)
REMARK    1  A    between atoms: C3_3  and  C4_5 
REMARK    2  A    between atoms: C8_10  and  N2_11 
REMARK    3  A    between atoms: N2_11  and  C9_12 
ROOT
HETATM    1  C4  UNL     1      21.710   0.111  51.267  1.00  0.00     0.048 C 
HETATM    2  C5  UNL     1      21.137   1.120  50.646  1.00  0.00    -0.035 C 
HETATM    3  C6  UNL     1      21.698   1.425  49.296  1.00  0.00     0.156 C 
HETATM    4  N1  UNL     1      22.439   2.665  49.353  1.00  0.00    -0.379 N 
HETATM    5  C7  UNL     1      22.661   3.511  50.469  1.00  0.00     0.128 A 
HETATM    6  C8  UNL     1      23.859   4.179  50.476  1.00  0.00     0.160 A 
HETATM    7  N3  UNL     1      24.058   4.998  51.509  1.00  0.00    -0.222 NA
HETATM    8  C15 UNL     1      23.213   5.225  52.522  1.00  0.00     0.238 A 
HETATM    9  N4  UNL     1      22.039   4.566  52.512  1.00  0.00    -0.216 NA
HETATM   10  C16 UNL     1      21.743   3.704  51.494  1.00  0.00     0.197 A 
HETATM   11  O1  UNL     1      20.484   3.130  51.679  1.00  0.00    -0.328 OA
HETATM   12  C17 UNL     1      20.037   1.847  51.302  1.00  0.00     0.213 C 
HETATM   13  H8  UNL     1      22.898   3.053  48.483  1.00  0.00     0.160 HD
ENDROOT
BRANCH   6  14
HETATM   14  N2  UNL     1      24.805   3.939  49.447  1.00  0.00    -0.339 N 
HETATM   15  H9  UNL     1      24.838   3.072  48.878  1.00  0.00     0.167 HD
BRANCH  14  16
HETATM   16  C9  UNL     1      25.867   4.782  49.018  1.00  0.00     0.035 A 
HETATM   17  C10 UNL     1      27.212   4.412  48.968  1.00  0.00     0.029 A 
HETATM   18  C11 UNL     1      28.214   5.242  48.542  1.00  0.00     0.004 A 
HETATM   19  C12 UNL     1      27.938   6.522  48.131  1.00  0.00     0.019 A 
HETATM   20  C13 UNL     1      26.628   6.927  48.164  1.00  0.00     0.013 A 
HETATM   21 BR1  UNL     1      26.318   8.732  47.573  1.00  0.00    -0.051 Br
HETATM   22  C14 UNL     1      25.650   6.073  48.593  1.00  0.00     0.048 A 
ENDBRANCH  14  16
ENDBRANCH   6  14
BRANCH   1  23
HETATM   23  C3  UNL     1      21.198  -0.222  52.580  1.00  0.00     0.112 C 
HETATM   24  C2  UNL     1      22.047  -0.559  53.548  1.00  0.00     0.011 C 
HETATM   25  C1  UNL     1      21.996  -0.955  54.951  1.00  0.00     0.039 C 
HETATM   26  F1  UNL     1      20.416  -0.471  53.645  1.00  0.00    -0.206 F 
ENDBRANCH   1  23
TORSDOF 3
ENDMDL
MODEL 5
REMARK VINA RESULT:      -7.4      3.664      7.444
REMARK  3 active torsions:
REMARK  status: ('A' for Active; 'I' for Inactive)
REMARK    1  A    between atoms: C3_3  and  C4_5 
REMARK    2  A    between atoms: C8_10  and  N2_11 
REMARK    3  A    between atoms: N2_11  and  C9_12 
ROOT
HETATM    1  C4  UNL     1      20.531   1.232  52.828  1.00  0.00     0.048 C 
HETATM    2  C5  UNL     1      21.369   0.518  52.107  1.00  0.00    -0.035 C 
HETATM    3  C6  UNL     1      22.489  -0.100  52.877  1.00  0.00     0.156 C 
HETATM    4  N1  UNL     1      23.726   0.574  52.549  1.00  0.00    -0.379 N 
HETATM    5  C7  UNL     1      23.931   1.662  51.664  1.00  0.00     0.128 A 
HETATM    6  C8  UNL     1      24.942   2.523  52.008  1.00  0.00     0.160 A 
HETATM    7  N3  UNL     1      25.157   3.530  51.162  1.00  0.00    -0.222 NA
HETATM    8  C15 UNL     1      24.490   3.775  50.028  1.00  0.00     0.238 A 
HETATM    9  N4  UNL     1      23.498   2.928  49.694  1.00  0.00    -0.216 NA
HETATM   10  C16 UNL     1      23.202   1.865  50.498  1.00  0.00     0.197 A 
HETATM   11  O1  UNL     1      22.146   1.121  49.970  1.00  0.00    -0.328 OA
HETATM   12  C17 UNL     1      21.153   0.391  50.656  1.00  0.00     0.213 C 
HETATM   13  H8  UNL     1      24.636   0.263  52.989  1.00  0.00     0.160 HD
ENDROOT
BRANCH   6  14
HETATM   14  N2  UNL     1      25.648   2.329  53.223  1.00  0.00    -0.339 N 
HETATM   15  H9  UNL     1      25.293   2.615  54.155  1.00  0.00     0.167 HD
BRANCH  14  16
HETATM   16  C9  UNL     1      26.936   1.753  53.406  1.00  0.00     0.035 A 
HETATM   17  C10 UNL     1      28.078   2.453  53.799  1.00  0.00     0.029 A 
HETATM   18  C11 UNL     1      29.304   1.871  53.976  1.00  0.00     0.004 A 
HETATM   19  C12 UNL     1      29.479   0.526  53.769  1.00  0.00     0.019 A 
HETATM   20  C13 UNL     1      28.381  -0.201  53.383  1.00  0.00     0.013 A 
HETATM   21 BR1  UNL     1      28.703  -2.079  53.112  1.00  0.00    -0.051 Br
HETATM   22  C14 UNL     1      27.170   0.410  53.215  1.00  0.00     0.048 A 
ENDBRANCH  14  16
ENDBRANCH   6  14
BRANCH   1  23
HETATM   23  C3  UNL     1      19.427   1.850  52.123  1.00  0.00     0.112 C 
HETATM   24  C2  UNL     1      19.480   3.147  51.831  1.00  0.00     0.011 C 
HETATM   25  C1  UNL     1      18.649   4.150  51.172  1.00  0.00     0.039 C 
HETATM   26  F1  UNL     1      18.269   2.102  51.488  1.00  0.00    -0.206 F 
ENDBRANCH   1  23
TORSDOF 3
ENDMDL
MODEL 6
REMARK VINA RESULT:      -7.3      4.423      7.614
REMARK  3 active torsions:
REMARK  status: ('A' for Active; 'I' for Inactive)
REMARK    1  A    between atoms: C3_3  and  C4_5 
REMARK    2  A    between atoms: C8_10  and  N2_11 
REMARK    3  A    between atoms: N2_11  and  C9_12 
ROOT
HETATM    1  C4  UNL     1      24.029   6.755  48.840  1.00  0.00     0.048 C 
HETATM    2  C5  UNL     1      23.572   7.187  49.996  1.00  0.00    -0.035 C 
HETATM    3  C6  UNL     1      24.538   7.086  51.130  1.00  0.00     0.156 C 
HETATM    4  N1  UNL     1      24.107   6.042  52.034  1.00  0.00    -0.379 N 
HETATM    5  C7  UNL     1      22.975   5.196  51.931  1.00  0.00     0.128 A 
HETATM    6  C8  UNL     1      23.130   3.935  52.450  1.00  0.00     0.160 A 
HETATM    7  N3  UNL     1      22.058   3.146  52.382  1.00  0.00    -0.222 NA
HETATM    8  C15 UNL     1      20.865   3.464  51.863  1.00  0.00     0.238 A 
HETATM    9  N4  UNL     1      20.718   4.702  51.354  1.00  0.00    -0.216 NA
HETATM   10  C16 UNL     1      21.761   5.584  51.378  1.00  0.00     0.197 A 
HETATM   11  O1  UNL     1      21.396   6.801  50.801  1.00  0.00    -0.328 OA
HETATM   12  C17 UNL     1      22.198   7.711  50.082  1.00  0.00     0.213 C 
HETATM   13  H8  UNL     1      24.662   5.834  52.911  1.00  0.00     0.160 HD
ENDROOT
BRANCH   6  14
HETATM   14  N2  UNL     1      24.388   3.539  52.971  1.00  0.00    -0.339 N 
HETATM   15  H9  UNL     1      25.149   4.197  53.222  1.00  0.00     0.167 HD
BRANCH  14  16
HETATM   16  C9  UNL     1      24.856   2.219  53.222  1.00  0.00     0.035 A 
HETATM   17  C10 UNL     1      24.126   1.052  52.989  1.00  0.00     0.029 A 
HETATM   18  C11 UNL     1      24.606  -0.207  53.232  1.00  0.00     0.004 A 
HETATM   19  C12 UNL     1      25.869  -0.392  53.735  1.00  0.00     0.019 A 
HETATM   20  C13 UNL     1      26.622   0.729  53.978  1.00  0.00     0.013 A 
HETATM   21 BR1  UNL     1      28.381   0.392  54.682  1.00  0.00    -0.051 Br
HETATM   22  C14 UNL     1      26.114   1.973  53.724  1.00  0.00     0.048 A 
ENDBRANCH  14  16
ENDBRANCH   6  14
BRANCH   1  23
HETATM   23  C3  UNL     1      23.127   6.835  47.709  1.00  0.00     0.112 C 
HETATM   24  C2  UNL     1      22.655   5.715  47.168  1.00  0.00     0.011 C 
HETATM   25  C1  UNL     1      21.771   5.323  46.075  1.00  0.00     0.039 C 
HETATM   26  F1  UNL     1      22.341   7.252  46.701  1.00  0.00    -0.206 F 
ENDBRANCH   1  23
TORSDOF 3
ENDMDL
MODEL 7
REMARK VINA RESULT:      -7.3      2.480      3.446
REMARK  3 active torsions:
REMARK  status: ('A' for Active; 'I' for Inactive)
REMARK    1  A    between atoms: C3_3  and  C4_5 
REMARK    2  A    between atoms: C8_10  and  N2_11 
REMARK    3  A    between atoms: N2_11  and  C9_12 
ROOT
HETATM    1  C4  UNL     1      24.505   2.685  52.634  1.00  0.00     0.048 C 
HETATM    2  C5  UNL     1      23.976   3.682  51.957  1.00  0.00    -0.035 C 
HETATM    3  C6  UNL     1      22.624   4.109  52.424  1.00  0.00     0.156 C 
HETATM    4  N1  UNL     1      21.633   3.713  51.448  1.00  0.00    -0.379 N 
HETATM    5  C7  UNL     1      21.823   3.018  50.228  1.00  0.00     0.128 A 
HETATM    6  C8  UNL     1      20.792   2.197  49.848  1.00  0.00     0.160 A 
HETATM    7  N3  UNL     1      20.955   1.564  48.685  1.00  0.00    -0.222 NA
HETATM    8  C15 UNL     1      22.012   1.655  47.870  1.00  0.00     0.238 A 
HETATM    9  N4  UNL     1      23.022   2.461  48.247  1.00  0.00    -0.216 NA
HETATM   10  C16 UNL     1      22.948   3.152  49.422  1.00  0.00     0.197 A 
HETATM   11  O1  UNL     1      24.095   3.922  49.620  1.00  0.00    -0.328 OA
HETATM   12  C17 UNL     1      24.723   4.273  50.833  1.00  0.00     0.213 C 
HETATM   13  H8  UNL     1      20.612   3.946  51.600  1.00  0.00     0.160 HD
ENDROOT
BRANCH   6  14
HETATM   14  N2  UNL     1      19.670   2.035  50.700  1.00  0.00    -0.339 N 
HETATM   15  H9  UNL     1      18.902   2.726  50.790  1.00  0.00     0.167 HD
BRANCH  14  16
HETATM   16  C9  UNL     1      19.390   0.957  51.585  1.00  0.00     0.035 A 
HETATM   17  C10 UNL     1      18.179   0.266  51.648  1.00  0.00     0.029 A 
HETATM   18  C11 UNL     1      17.939  -0.774  52.504  1.00  0.00     0.004 A 
HETATM   19  C12 UNL     1      18.909  -1.204  53.375  1.00  0.00     0.019 A 
HETATM   20  C13 UNL     1      20.116  -0.553  53.347  1.00  0.00     0.013 A 
HETATM   21 BR1  UNL     1      21.426  -1.210  54.594  1.00  0.00    -0.051 Br
HETATM   22  C14 UNL     1      20.324   0.483  52.479  1.00  0.00     0.048 A 
ENDBRANCH  14  16
ENDBRANCH   6  14
BRANCH   1  23
HETATM   23  C3  UNL     1      25.818   2.237  52.218  1.00  0.00     0.112 C 
HETATM   24  C2  UNL     1      26.792   2.136  53.118  1.00  0.00     0.011 C 
HETATM   25  C1  UNL     1      28.200   1.753  53.162  1.00  0.00     0.039 C 
HETATM   26  F1  UNL     1      26.883   1.809  51.517  1.00  0.00    -0.206 F 
ENDBRANCH   1  23
TORSDOF 3
ENDMDL
MODEL 8
REMARK VINA RESULT:      -7.2      9.231     10.859
REMARK  3 active torsions:
REMARK  status: ('A' for Active; 'I' for Inactive)
REMARK    1  A    between atoms: C3_3  and  C4_5 
REMARK    2  A    between atoms: C8_10  and  N2_11 
REMARK    3  A    between atoms: N2_11  and  C9_12 
ROOT
HETATM    1  C4  UNL     1      32.328   4.860  47.920  1.00  0.00     0.048 C 
HETATM    2  C5  UNL     1      32.826   5.657  48.841  1.00  0.00    -0.035 C 
HETATM    3  C6  UNL     1      31.954   5.855  50.037  1.00  0.00     0.156 C 
HETATM    4  N1  UNL     1      31.419   7.199  50.022  1.00  0.00    -0.379 N 
HETATM    5  C7  UNL     1      31.625   8.221  49.062  1.00  0.00     0.128 A 
HETATM    6  C8  UNL     1      30.569   9.077  48.875  1.00  0.00     0.160 A 
HETATM    7  N3  UNL     1      30.769  10.058  47.994  1.00  0.00    -0.222 NA
HETATM    8  C15 UNL     1      31.884  10.281  47.289  1.00  0.00     0.238 A 
HETATM    9  N4  UNL     1      32.918   9.438  47.475  1.00  0.00    -0.216 NA
HETATM   10  C16 UNL     1      32.809   8.401  48.357  1.00  0.00     0.197 A 
HETATM   11  O1  UNL     1      33.987   7.654  48.395  1.00  0.00    -0.328 OA
HETATM   12  C17 UNL     1      34.148   6.273  48.630  1.00  0.00     0.213 C 
HETATM   13  H8  UNL     1      30.788   7.530  50.804  1.00  0.00     0.160 HD
ENDROOT
BRANCH   6  14
HETATM   14  N2  UNL     1      29.352   8.855  49.568  1.00  0.00    -0.339 N 
HETATM   15  H9  UNL     1      29.244   8.934  50.596  1.00  0.00     0.167 HD
BRANCH  14  16
HETATM   16  C9  UNL     1      28.092   8.474  49.027  1.00  0.00     0.035 A 
HETATM   17  C10 UNL     1      27.871   8.093  47.703  1.00  0.00     0.029 A 
HETATM   18  C11 UNL     1      26.648   7.723  47.212  1.00  0.00     0.004 A 
HETATM   19  C12 UNL     1      25.541   7.707  48.022  1.00  0.00     0.019 A 
HETATM   20  C13 UNL     1      25.714   8.073  49.333  1.00  0.00     0.013 A 
HETATM   21 BR1  UNL     1      24.119   8.026  50.409  1.00  0.00    -0.051 Br
HETATM   22  C14 UNL     1      26.949   8.438  49.793  1.00  0.00     0.048 A 
ENDBRANCH  14  16
ENDBRANCH   6  14
BRANCH   1  23
HETATM   23  C3  UNL     1      33.140   4.636  46.741  1.00  0.00     0.112 C 
HETATM   24  C2  UNL     1      32.671   4.988  45.547  1.00  0.00     0.011 C 
HETATM   25  C1  UNL     1      33.106   4.956  44.154  1.00  0.00     0.039 C 
HETATM   26  F1  UNL     1      34.116   4.296  45.881  1.00  0.00    -0.206 F 
ENDBRANCH   1  23
TORSDOF 3
ENDMDL
MODEL 9
REMARK VINA RESULT:      -7.2      2.385      3.066
REMARK  3 active torsions:
REMARK  status: ('A' for Active; 'I' for Inactive)
REMARK    1  A    between atoms: C3_3  and  C4_5 
REMARK    2  A    between atoms: C8_10  and  N2_11 
REMARK    3  A    between atoms: N2_11  and  C9_12 
ROOT
HETATM    1  C4  UNL     1      25.645   1.216  51.658  1.00  0.00     0.048 C 
HETATM    2  C5  UNL     1      24.941   1.410  52.753  1.00  0.00    -0.035 C 
HETATM    3  C6  UNL     1      24.070   0.265  53.150  1.00  0.00     0.156 C 
HETATM    4  N1  UNL     1      22.685   0.613  52.921  1.00  0.00    -0.379 N 
HETATM    5  C7  UNL     1      22.153   1.816  52.394  1.00  0.00     0.128 A 
HETATM    6  C8  UNL     1      21.000   1.682  51.662  1.00  0.00     0.160 A 
HETATM    7  N3  UNL     1      20.480   2.816  51.190  1.00  0.00    -0.222 NA
HETATM    8  C15 UNL     1      20.969   4.050  51.361  1.00  0.00     0.238 A 
HETATM    9  N4  UNL     1      22.101   4.176  52.080  1.00  0.00    -0.216 NA
HETATM   10  C16 UNL     1      22.709   3.072  52.605  1.00  0.00     0.197 A 
HETATM   11  O1  UNL     1      23.862   3.426  53.308  1.00  0.00    -0.328 OA
HETATM   12  C17 UNL     1      25.054   2.692  53.471  1.00  0.00     0.213 C 
HETATM   13  H8  UNL     1      21.916  -0.073  53.159  1.00  0.00     0.160 HD
ENDROOT
BRANCH   6  14
HETATM   14  N2  UNL     1      20.468   0.391  51.417  1.00  0.00    -0.339 N 
HETATM   15  H9  UNL     1      20.977  -0.364  50.920  1.00  0.00     0.167 HD
BRANCH  14  16
HETATM   16  C9  UNL     1      19.181  -0.107  51.761  1.00  0.00     0.035 A 
HETATM   17  C10 UNL     1      18.860  -0.733  52.967  1.00  0.00     0.029 A 
HETATM   18  C11 UNL     1      17.609  -1.195  53.276  1.00  0.00     0.004 A 
HETATM   19  C12 UNL     1      16.573  -1.064  52.386  1.00  0.00     0.019 A 
HETATM   20  C13 UNL     1      16.844  -0.453  51.188  1.00  0.00     0.013 A 
HETATM   21 BR1  UNL     1      15.343  -0.303  49.992  1.00  0.00    -0.051 Br
HETATM   22  C14 UNL     1      18.104  -0.001  50.910  1.00  0.00     0.048 A 
ENDBRANCH  14  16
ENDBRANCH   6  14
BRANCH   1  23
HETATM   23  C3  UNL     1      26.506   2.301  51.234  1.00  0.00     0.112 C 
HETATM   24  C2  UNL     1      26.258   2.923  50.085  1.00  0.00     0.011 C 
HETATM   25  C1  UNL     1      26.823   4.009  49.291  1.00  0.00     0.039 C 
HETATM   26  F1  UNL     1      27.472   3.231  51.138  1.00  0.00    -0.206 F 
ENDBRANCH   1  23
TORSDOF 3
ENDMDL
