MODEL 1
REMARK VINA RESULT:      -8.7      0.000      0.000
REMARK  6 active torsions:
REMARK  status: ('A' for Active; 'I' for Inactive)
REMARK    1  A    between atoms: C5_5  and  C6_6 
REMARK    2  A    between atoms: N1_7  and  C7_8 
REMARK    3  A    between atoms: C9_12  and  N4_13 
REMARK    4  A    between atoms: C10_14  and  C11_15 
REMARK    5  A    between atoms: C12_16  and  C13_17 
REMARK    6  A    between atoms: C15_19  and  O1_20 
ROOT
HETATM    1  C7  UNL     1      22.933  -0.052  53.102  1.00  0.00     0.160 A 
HETATM    2  N2  UNL     1      21.699  -0.313  53.611  1.00  0.00    -0.222 NA
HETATM    3  C8  UNL     1      21.580  -0.963  54.779  1.00  0.00     0.237 A 
HETATM    4  N3  UNL     1      22.650  -1.389  55.510  1.00  0.00    -0.224 NA
HETATM    5  C9  UNL     1      23.894  -1.127  54.999  1.00  0.00     0.133 A 
HETATM    6  C10 UNL     1      24.097  -0.450  53.781  1.00  0.00     0.041 A 
ENDROOT
BRANCH   1   7
HETATM    7  N1  UNL     1      23.333   0.608  51.910  1.00  0.00    -0.240 NA
HETATM    8  C6  UNL     1      22.460   1.312  51.285  1.00  0.00     0.130 C 
BRANCH   8   9
HETATM    9  C5  UNL     1      21.091   1.763  51.282  1.00  0.00    -0.019 A 
HETATM   10  C4  UNL     1      20.127   0.991  50.719  1.00  0.00     0.013 A 
HETATM   11  C3  UNL     1      18.816   1.453  50.733  1.00  0.00     0.007 A 
HETATM   12  C2  UNL     1      18.561   2.676  51.318  1.00  0.00    -0.062 A 
HETATM   13  C1  UNL     1      17.173   3.196  51.347  1.00  0.00     0.048 C 
HETATM   14  C19 UNL     1      19.585   3.438  51.885  1.00  0.00     0.007 A 
HETATM   15  C18 UNL     1      20.906   2.988  51.880  1.00  0.00     0.013 A 
ENDBRANCH   8   9
ENDBRANCH   1   7
BRANCH   6  16
HETATM   16  C11 UNL     1      25.525  -0.450  53.711  1.00  0.00     0.073 C 
HETATM   17  C12 UNL     1      26.534  -0.777  52.954  1.00  0.00     0.015 C 
BRANCH  17  18
HETATM   18  C13 UNL     1      27.809  -0.434  53.627  1.00  0.00    -0.043 C 
HETATM   19  C14 UNL     1      28.205   0.278  54.676  1.00  0.00     0.017 C 
HETATM   20  C15 UNL     1      29.267   1.036  54.445  1.00  0.00     0.077 C 
HETATM   21  C16 UNL     1      30.094   0.045  53.759  1.00  0.00     0.038 C 
HETATM   22  C17 UNL     1      29.190  -0.830  53.276  1.00  0.00     0.011 C 
BRANCH  20  23
HETATM   23  O1  UNL     1      29.698   2.343  54.670  1.00  0.00    -0.360 OA
HETATM   24  H12 UNL     1      30.386   2.764  54.081  1.00  0.00     0.217 HD
ENDBRANCH  20  23
ENDBRANCH  17  18
ENDBRANCH   6  16
BRANCH   5  25
HETATM   25  N4  UNL     1      24.730  -1.716  56.018  1.00  0.00    -0.383 N 
HETATM   26  H8  UNL     1      25.452  -2.439  55.822  1.00  0.00     0.157 HD
HETATM   27  H9  UNL     1      24.777  -1.555  57.055  1.00  0.00     0.157 HD
ENDBRANCH   5  25
TORSDOF 6
ENDMDL
MODEL 2
REMARK VINA RESULT:      -8.5      2.922      8.061
REMARK  6 active torsions:
REMARK  status: ('A' for Active; 'I' for Inactive)
REMARK    1  A    between atoms: C5_5  and  C6_6 
REMARK    2  A    between atoms: N1_7  and  C7_8 
REMARK    3  A    between atoms: C9_12  and  N4_13 
REMARK    4  A    between atoms: C10_14  and  C11_15 
REMARK    5  A    between atoms: C12_16  and  C13_17 
REMARK    6  A    between atoms: C15_19  and  O1_20 
ROOT
HETATM    1  C7  UNL     1      23.442  -0.003  53.475  1.00  0.00     0.160 A 
HETATM    2  N2  UNL     1      24.037  -0.627  54.528  1.00  0.00    -0.222 NA
HETATM    3  C8  UNL     1      23.315  -1.430  55.325  1.00  0.00     0.237 A 
HETATM    4  N3  UNL     1      21.985  -1.667  55.141  1.00  0.00    -0.224 NA
HETATM    5  C9  UNL     1      21.383  -1.040  54.081  1.00  0.00     0.133 A 
HETATM    6  C10 UNL     1      22.075  -0.184  53.203  1.00  0.00     0.041 A 
ENDROOT
BRANCH   1   7
HETATM    7  N1  UNL     1      23.964   0.880  52.495  1.00  0.00    -0.240 NA
HETATM    8  C6  UNL     1      25.231   0.870  52.283  1.00  0.00     0.130 C 
BRANCH   8   9
HETATM    9  C5  UNL     1      26.486   0.274  52.666  1.00  0.00    -0.019 A 
HETATM   10  C4  UNL     1      26.695  -1.051  52.460  1.00  0.00     0.013 A 
HETATM   11  C3  UNL     1      27.916  -1.596  52.839  1.00  0.00     0.007 A 
HETATM   12  C2  UNL     1      28.855  -0.761  53.409  1.00  0.00    -0.062 A 
HETATM   13  C1  UNL     1      30.167  -1.314  53.824  1.00  0.00     0.048 C 
HETATM   14  C19 UNL     1      28.597   0.598  53.602  1.00  0.00     0.007 A 
HETATM   15  C18 UNL     1      27.376   1.161  53.227  1.00  0.00     0.013 A 
ENDBRANCH   8   9
ENDBRANCH   1   7
BRANCH   6  16
HETATM   16  C11 UNL     1      21.020   0.199  52.317  1.00  0.00     0.073 C 
HETATM   17  C12 UNL     1      20.692   0.287  51.059  1.00  0.00     0.015 C 
BRANCH  17  18
HETATM   18  C13 UNL     1      19.314   0.816  50.927  1.00  0.00    -0.043 C 
HETATM   19  C14 UNL     1      18.730   1.952  50.561  1.00  0.00     0.017 C 
HETATM   20  C15 UNL     1      17.741   2.332  51.357  1.00  0.00     0.077 C 
HETATM   21  C16 UNL     1      17.052   1.048  51.473  1.00  0.00     0.038 C 
HETATM   22  C17 UNL     1      18.024   0.152  51.208  1.00  0.00     0.011 C 
BRANCH  20  23
HETATM   23  O1  UNL     1      17.288   3.484  51.999  1.00  0.00    -0.360 OA
HETATM   24  H12 UNL     1      16.730   3.424  52.825  1.00  0.00     0.217 HD
ENDBRANCH  20  23
ENDBRANCH  17  18
ENDBRANCH   6  16
BRANCH   5  25
HETATM   25  N4  UNL     1      20.029  -1.520  54.221  1.00  0.00    -0.383 N 
HETATM   26  H8  UNL     1      19.592  -1.750  55.136  1.00  0.00     0.157 HD
HETATM   27  H9  UNL     1      19.285  -1.715  53.505  1.00  0.00     0.157 HD
ENDBRANCH   5  25
TORSDOF 6
ENDMDL
MODEL 3
REMARK VINA RESULT:      -8.5      3.933      7.104
REMARK  6 active torsions:
REMARK  status: ('A' for Active; 'I' for Inactive)
REMARK    1  A    between atoms: C5_5  and  C6_6 
REMARK    2  A    between atoms: N1_7  and  C7_8 
REMARK    3  A    between atoms: C9_12  and  N4_13 
REMARK    4  A    between atoms: C10_14  and  C11_15 
REMARK    5  A    between atoms: C12_16  and  C13_17 
REMARK    6  A    between atoms: C15_19  and  O1_20 
ROOT
HETATM    1  C7  UNL     1      23.900   2.288  52.750  1.00  0.00     0.160 A 
HETATM    2  N2  UNL     1      22.799   1.550  53.057  1.00  0.00    -0.222 NA
HETATM    3  C8  UNL     1      21.982   1.128  52.081  1.00  0.00     0.237 A 
HETATM    4  N3  UNL     1      22.191   1.400  50.761  1.00  0.00    -0.224 NA
HETATM    5  C9  UNL     1      23.299   2.143  50.448  1.00  0.00     0.133 A 
HETATM    6  C10 UNL     1      24.202   2.620  51.418  1.00  0.00     0.041 A 
ENDROOT
BRANCH   1   7
HETATM    7  N1  UNL     1      24.911   2.849  53.574  1.00  0.00    -0.240 NA
HETATM    8  C6  UNL     1      25.961   2.148  53.806  1.00  0.00     0.130 C 
BRANCH   8   9
HETATM    9  C5  UNL     1      26.620   0.890  53.555  1.00  0.00    -0.019 A 
HETATM   10  C4  UNL     1      25.978  -0.080  52.855  1.00  0.00     0.013 A 
HETATM   11  C3  UNL     1      26.640  -1.282  52.629  1.00  0.00     0.007 A 
HETATM   12  C2  UNL     1      27.917  -1.427  53.128  1.00  0.00    -0.062 A 
HETATM   13  C1  UNL     1      28.648  -2.698  52.903  1.00  0.00     0.048 C 
HETATM   14  C19 UNL     1      28.540  -0.401  53.843  1.00  0.00     0.007 A 
HETATM   15  C18 UNL     1      27.889   0.811  54.079  1.00  0.00     0.013 A 
ENDBRANCH   8   9
ENDBRANCH   1   7
BRANCH   6  16
HETATM   16  C11 UNL     1      25.136   3.320  50.592  1.00  0.00     0.073 C 
HETATM   17  C12 UNL     1      26.363   3.298  50.153  1.00  0.00     0.015 C 
BRANCH  17  18
HETATM   18  C13 UNL     1      26.607   4.458  49.263  1.00  0.00    -0.043 C 
HETATM   19  C14 UNL     1      27.619   4.969  48.572  1.00  0.00     0.017 C 
HETATM   20  C15 UNL     1      27.738   6.284  48.680  1.00  0.00     0.077 C 
HETATM   21  C16 UNL     1      26.335   6.644  48.480  1.00  0.00     0.038 C 
HETATM   22  C17 UNL     1      25.676   5.524  48.838  1.00  0.00     0.011 C 
BRANCH  20  23
HETATM   23  O1  UNL     1      28.729   7.239  48.905  1.00  0.00    -0.360 OA
HETATM   24  H12 UNL     1      28.893   7.971  48.246  1.00  0.00     0.217 HD
ENDBRANCH  20  23
ENDBRANCH  17  18
ENDBRANCH   6  16
BRANCH   5  25
HETATM   25  N4  UNL     1      23.173   2.219  49.012  1.00  0.00    -0.383 N 
HETATM   26  H8  UNL     1      22.309   2.533  48.526  1.00  0.00     0.157 HD
HETATM   27  H9  UNL     1      23.855   1.997  48.244  1.00  0.00     0.157 HD
ENDBRANCH   5  25
TORSDOF 6
ENDMDL
MODEL 4
REMARK VINA RESULT:      -8.3      3.016      4.127
REMARK  6 active torsions:
REMARK  status: ('A' for Active; 'I' for Inactive)
REMARK    1  A    between atoms: C5_5  and  C6_6 
REMARK    2  A    between atoms: N1_7  and  C7_8 
REMARK    3  A    between atoms: C9_12  and  N4_13 
REMARK    4  A    between atoms: C10_14  and  C11_15 
REMARK    5  A    between atoms: C12_16  and  C13_17 
REMARK    6  A    between atoms: C15_19  and  O1_20 
ROOT
HETATM    1  C7  UNL     1      22.424   3.360  50.269  1.00  0.00     0.160 A 
HETATM    2  N2  UNL     1      21.581   4.408  50.060  1.00  0.00    -0.222 NA
HETATM    3  C8  UNL     1      21.581   5.447  50.908  1.00  0.00     0.237 A 
HETATM    4  N3  UNL     1      22.397   5.522  51.998  1.00  0.00    -0.224 NA
HETATM    5  C9  UNL     1      23.248   4.469  52.211  1.00  0.00     0.133 A 
HETATM    6  C10 UNL     1      23.304   3.345  51.364  1.00  0.00     0.041 A 
ENDROOT
BRANCH   1   7
HETATM    7  N1  UNL     1      22.624   2.160  49.538  1.00  0.00    -0.240 NA
HETATM    8  C6  UNL     1      21.865   1.157  49.800  1.00  0.00     0.130 C 
BRANCH   8   9
HETATM    9  C5  UNL     1      20.776   0.684  50.617  1.00  0.00    -0.019 A 
HETATM   10  C4  UNL     1      21.025   0.201  51.861  1.00  0.00     0.013 A 
HETATM   11  C3  UNL     1      19.953  -0.247  52.625  1.00  0.00     0.007 A 
HETATM   12  C2  UNL     1      18.689  -0.178  52.078  1.00  0.00    -0.062 A 
HETATM   13  C1  UNL     1      17.525  -0.649  52.869  1.00  0.00     0.048 C 
HETATM   14  C19 UNL     1      18.478   0.327  50.793  1.00  0.00     0.007 A 
HETATM   15  C18 UNL     1      19.543   0.780  50.013  1.00  0.00     0.013 A 
ENDBRANCH   8   9
ENDBRANCH   1   7
BRANCH   6  16
HETATM   16  C11 UNL     1      24.310   2.568  52.018  1.00  0.00     0.073 C 
HETATM   17  C12 UNL     1      24.597   1.366  52.432  1.00  0.00     0.015 C 
BRANCH  17  18
HETATM   18  C13 UNL     1      25.937   1.351  53.066  1.00  0.00    -0.043 C 
HETATM   19  C14 UNL     1      26.728   2.202  53.710  1.00  0.00     0.017 C 
HETATM   20  C15 UNL     1      27.996   2.156  53.329  1.00  0.00     0.077 C 
HETATM   21  C16 UNL     1      28.168   0.704  53.330  1.00  0.00     0.038 C 
HETATM   22  C17 UNL     1      26.911   0.244  53.171  1.00  0.00     0.011 C 
BRANCH  20  23
HETATM   23  O1  UNL     1      29.026   3.031  52.985  1.00  0.00    -0.360 OA
HETATM   24  H12 UNL     1      29.933   2.938  53.391  1.00  0.00     0.217 HD
ENDBRANCH  20  23
ENDBRANCH  17  18
ENDBRANCH   6  16
BRANCH   5  25
HETATM   25  N4  UNL     1      23.915   4.903  53.415  1.00  0.00    -0.383 N 
HETATM   26  H8  UNL     1      24.664   4.356  53.887  1.00  0.00     0.157 HD
HETATM   27  H9  UNL     1      23.795   5.767  54.001  1.00  0.00     0.157 HD
ENDBRANCH   5  25
TORSDOF 6
ENDMDL
MODEL 5
REMARK VINA RESULT:      -8.3      5.923      7.816
REMARK  6 active torsions:
REMARK  status: ('A' for Active; 'I' for Inactive)
REMARK    1  A    between atoms: C5_5  and  C6_6 
REMARK    2  A    between atoms: N1_7  and  C7_8 
REMARK    3  A    between atoms: C9_12  and  N4_13 
REMARK    4  A    between atoms: C10_14  and  C11_15 
REMARK    5  A    between atoms: C12_16  and  C13_17 
REMARK    6  A    between atoms: C15_19  and  O1_20 
ROOT
HETATM    1  C7  UNL     1      24.182   5.528  49.602  1.00  0.00     0.160 A 
HETATM    2  N2  UNL     1      23.169   6.146  50.268  1.00  0.00    -0.222 NA
HETATM    3  C8  UNL     1      23.394   7.309  50.897  1.00  0.00     0.237 A 
HETATM    4  N3  UNL     1      24.609   7.929  50.912  1.00  0.00    -0.224 NA
HETATM    5  C9  UNL     1      25.631   7.308  50.242  1.00  0.00     0.133 A 
HETATM    6  C10 UNL     1      25.470   6.087  49.559  1.00  0.00     0.041 A 
ENDROOT
BRANCH   1   7
HETATM    7  N1  UNL     1      24.213   4.315  48.865  1.00  0.00    -0.240 NA
HETATM    8  C6  UNL     1      24.557   3.241  49.480  1.00  0.00     0.130 C 
BRANCH   8   9
HETATM    9  C5  UNL     1      24.973   2.687  50.745  1.00  0.00    -0.019 A 
HETATM   10  C4  UNL     1      24.045   2.392  51.690  1.00  0.00     0.013 A 
HETATM   11  C3  UNL     1      24.477   1.859  52.899  1.00  0.00     0.007 A 
HETATM   12  C2  UNL     1      25.830   1.657  53.077  1.00  0.00    -0.062 A 
HETATM   13  C1  UNL     1      26.321   1.090  54.356  1.00  0.00     0.048 C 
HETATM   14  C19 UNL     1      26.750   1.975  52.075  1.00  0.00     0.007 A 
HETATM   15  C18 UNL     1      26.333   2.511  50.856  1.00  0.00     0.013 A 
ENDBRANCH   8   9
ENDBRANCH   1   7
BRANCH   6  16
HETATM   16  C11 UNL     1      26.795   5.883  49.062  1.00  0.00     0.073 C 
HETATM   17  C12 UNL     1      27.611   4.976  48.602  1.00  0.00     0.015 C 
BRANCH  17  18
HETATM   18  C13 UNL     1      28.919   5.587  48.271  1.00  0.00    -0.043 C 
HETATM   19  C14 UNL     1      30.126   5.180  47.896  1.00  0.00     0.017 C 
HETATM   20  C15 UNL     1      31.122   5.778  48.532  1.00  0.00     0.077 C 
HETATM   21  C16 UNL     1      30.646   7.157  48.429  1.00  0.00     0.038 C 
HETATM   22  C17 UNL     1      29.315   7.012  48.272  1.00  0.00     0.011 C 
BRANCH  20  23
HETATM   23  O1  UNL     1      32.316   5.446  49.171  1.00  0.00    -0.360 OA
HETATM   24  H12 UNL     1      32.477   5.703  50.122  1.00  0.00     0.217 HD
ENDBRANCH  20  23
ENDBRANCH  17  18
ENDBRANCH   6  16
BRANCH   5  25
HETATM   25  N4  UNL     1      26.711   8.234  50.486  1.00  0.00    -0.383 N 
HETATM   26  H8  UNL     1      27.716   7.968  50.444  1.00  0.00     0.157 HD
HETATM   27  H9  UNL     1      26.707   9.256  50.729  1.00  0.00     0.157 HD
ENDBRANCH   5  25
TORSDOF 6
ENDMDL
MODEL 6
REMARK VINA RESULT:      -8.3      3.879      7.715
REMARK  6 active torsions:
REMARK  status: ('A' for Active; 'I' for Inactive)
REMARK    1  A    between atoms: C5_5  and  C6_6 
REMARK    2  A    between atoms: N1_7  and  C7_8 
REMARK    3  A    between atoms: C9_12  and  N4_13 
REMARK    4  A    between atoms: C10_14  and  C11_15 
REMARK    5  A    between atoms: C12_16  and  C13_17 
REMARK    6  A    between atoms: C15_19  and  O1_20 
ROOT
HETATM    1  C7  UNL     1      23.705   3.717  51.285  1.00  0.00     0.160 A 
HETATM    2  N2  UNL     1      24.350   4.341  50.262  1.00  0.00    -0.222 NA
HETATM    3  C8  UNL     1      23.976   4.110  48.994  1.00  0.00     0.237 A 
HETATM    4  N3  UNL     1      22.959   3.266  48.657  1.00  0.00    -0.224 NA
HETATM    5  C9  UNL     1      22.308   2.636  49.685  1.00  0.00     0.133 A 
HETATM    6  C10 UNL     1      22.645   2.828  51.039  1.00  0.00     0.041 A 
ENDROOT
BRANCH   1   7
HETATM    7  N1  UNL     1      23.896   3.782  52.690  1.00  0.00    -0.240 NA
HETATM    8  C6  UNL     1      24.532   2.824  53.260  1.00  0.00     0.130 C 
BRANCH   8   9
HETATM    9  C5  UNL     1      25.209   1.568  53.052  1.00  0.00    -0.019 A 
HETATM   10  C4  UNL     1      26.441   1.551  52.483  1.00  0.00     0.013 A 
HETATM   11  C3  UNL     1      27.068   0.324  52.297  1.00  0.00     0.007 A 
HETATM   12  C2  UNL     1      26.403  -0.816  52.698  1.00  0.00    -0.062 A 
HETATM   13  C1  UNL     1      27.045  -2.140  52.511  1.00  0.00     0.048 C 
HETATM   14  C19 UNL     1      25.134  -0.752  53.279  1.00  0.00     0.007 A 
HETATM   15  C18 UNL     1      24.492   0.472  53.474  1.00  0.00     0.013 A 
ENDBRANCH   8   9
ENDBRANCH   1   7
BRANCH   6  16
HETATM   16  C11 UNL     1      21.701   1.962  51.674  1.00  0.00     0.073 C 
HETATM   17  C12 UNL     1      20.656   1.946  52.452  1.00  0.00     0.015 C 
BRANCH  17  18
HETATM   18  C13 UNL     1      20.206   0.552  52.674  1.00  0.00    -0.043 C 
HETATM   19  C14 UNL     1      19.153  -0.200  52.373  1.00  0.00     0.017 C 
HETATM   20  C15 UNL     1      18.715  -0.944  53.377  1.00  0.00     0.077 C 
HETATM   21  C16 UNL     1      20.000  -1.468  53.834  1.00  0.00     0.038 C 
HETATM   22  C17 UNL     1      20.882  -0.547  53.396  1.00  0.00     0.011 C 
BRANCH  20  23
HETATM   23  O1  UNL     1      17.509  -1.282  53.991  1.00  0.00    -0.360 OA
HETATM   24  H12 UNL     1      16.814  -0.587  54.171  1.00  0.00     0.217 HD
ENDBRANCH  20  23
ENDBRANCH  17  18
ENDBRANCH   6  16
BRANCH   5  25
HETATM   25  N4  UNL     1      21.342   1.855  48.950  1.00  0.00    -0.383 N 
HETATM   26  H8  UNL     1      21.566   0.952  48.485  1.00  0.00     0.157 HD
HETATM   27  H9  UNL     1      20.322   2.018  48.754  1.00  0.00     0.157 HD
ENDBRANCH   5  25
TORSDOF 6
ENDMDL
MODEL 7
REMARK VINA RESULT:      -8.1      5.327      7.029
REMARK  6 active torsions:
REMARK  status: ('A' for Active; 'I' for Inactive)
REMARK    1  A    between atoms: C5_5  and  C6_6 
REMARK    2  A    between atoms: N1_7  and  C7_8 
REMARK    3  A    between atoms: C9_12  and  N4_13 
REMARK    4  A    between atoms: C10_14  and  C11_15 
REMARK    5  A    between atoms: C12_16  and  C13_17 
REMARK    6  A    between atoms: C15_19  and  O1_20 
ROOT
HETATM    1  C7  UNL     1      22.859   4.990  49.413  1.00  0.00     0.160 A 
HETATM    2  N2  UNL     1      21.754   5.464  50.050  1.00  0.00    -0.222 NA
HETATM    3  C8  UNL     1      21.846   6.555  50.826  1.00  0.00     0.237 A 
HETATM    4  N3  UNL     1      23.010   7.237  51.022  1.00  0.00    -0.224 NA
HETATM    5  C9  UNL     1      24.124   6.761  50.382  1.00  0.00     0.133 A 
HETATM    6  C10 UNL     1      24.105   5.624  49.552  1.00  0.00     0.041 A 
ENDROOT
BRANCH   1   7
HETATM    7  N1  UNL     1      23.035   3.877  48.549  1.00  0.00    -0.240 NA
HETATM    8  C6  UNL     1      23.033   2.702  49.066  1.00  0.00     0.130 C 
BRANCH   8   9
HETATM    9  C5  UNL     1      22.916   1.952  50.292  1.00  0.00    -0.019 A 
HETATM   10  C4  UNL     1      23.897   2.030  51.227  1.00  0.00     0.013 A 
HETATM   11  C3  UNL     1      23.755   1.296  52.399  1.00  0.00     0.007 A 
HETATM   12  C2  UNL     1      22.621   0.524  52.552  1.00  0.00    -0.062 A 
HETATM   13  C1  UNL     1      22.442  -0.270  53.791  1.00  0.00     0.048 C 
HETATM   14  C19 UNL     1      21.636   0.475  51.563  1.00  0.00     0.007 A 
HETATM   15  C18 UNL     1      21.764   1.205  50.381  1.00  0.00     0.013 A 
ENDBRANCH   8   9
ENDBRANCH   1   7
BRANCH   6  16
HETATM   16  C11 UNL     1      25.479   5.557  49.159  1.00  0.00     0.073 C 
HETATM   17  C12 UNL     1      26.518   4.773  49.124  1.00  0.00     0.015 C 
BRANCH  17  18
HETATM   18  C13 UNL     1      27.672   5.480  48.520  1.00  0.00    -0.043 C 
HETATM   19  C14 UNL     1      28.946   5.225  48.246  1.00  0.00     0.017 C 
HETATM   20  C15 UNL     1      29.775   6.208  48.565  1.00  0.00     0.077 C 
HETATM   21  C16 UNL     1      29.015   7.323  48.002  1.00  0.00     0.038 C 
HETATM   22  C17 UNL     1      27.751   6.856  47.985  1.00  0.00     0.011 C 
BRANCH  20  23
HETATM   23  O1  UNL     1      30.999   6.387  49.209  1.00  0.00    -0.360 OA
HETATM   24  H12 UNL     1      31.859   6.214  48.732  1.00  0.00     0.217 HD
ENDBRANCH  20  23
ENDBRANCH  17  18
ENDBRANCH   6  16
BRANCH   5  25
HETATM   25  N4  UNL     1      25.115   7.712  50.828  1.00  0.00    -0.383 N 
HETATM   26  H8  UNL     1      25.921   7.460  51.435  1.00  0.00     0.157 HD
HETATM   27  H9  UNL     1      25.216   8.743  50.651  1.00  0.00     0.157 HD
ENDBRANCH   5  25
TORSDOF 6
ENDMDL
MODEL 8
REMARK VINA RESULT:      -7.9      8.942     12.585
REMARK  6 active torsions:
REMARK  status: ('A' for Active; 'I' for Inactive)
REMARK    1  A    between atoms: C5_5  and  C6_6 
REMARK    2  A    between atoms: N1_7  and  C7_8 
REMARK    3  A    between atoms: C9_12  and  N4_13 
REMARK    4  A    between atoms: C10_14  and  C11_15 
REMARK    5  A    between atoms: C12_16  and  C13_17 
REMARK    6  A    between atoms: C15_19  and  O1_20 
ROOT
HETATM    1  C7  UNL     1      31.080   8.247  48.474  1.00  0.00     0.160 A 
HETATM    2  N2  UNL     1      31.690   9.266  47.809  1.00  0.00    -0.222 NA
HETATM    3  C8  UNL     1      31.135   9.763  46.693  1.00  0.00     0.237 A 
HETATM    4  N3  UNL     1      29.964   9.300  46.170  1.00  0.00    -0.224 NA
HETATM    5  C9  UNL     1      29.347   8.275  46.838  1.00  0.00     0.133 A 
HETATM    6  C10 UNL     1      29.870   7.702  48.014  1.00  0.00     0.041 A 
ENDROOT
BRANCH   1   7
HETATM    7  N1  UNL     1      31.445   7.551  49.656  1.00  0.00    -0.240 NA
HETATM    8  C6  UNL     1      32.225   6.537  49.546  1.00  0.00     0.130 C 
BRANCH   8   9
HETATM    9  C5  UNL     1      32.966   5.713  48.623  1.00  0.00    -0.019 A 
HETATM   10  C4  UNL     1      34.287   5.951  48.418  1.00  0.00     0.013 A 
HETATM   11  C3  UNL     1      34.975   5.139  47.523  1.00  0.00     0.007 A 
HETATM   12  C2  UNL     1      34.278   4.133  46.887  1.00  0.00    -0.062 A 
HETATM   13  C1  UNL     1      34.985   3.251  45.926  1.00  0.00     0.048 C 
HETATM   14  C19 UNL     1      32.919   3.924  47.128  1.00  0.00     0.007 A 
HETATM   15  C18 UNL     1      32.213   4.730  48.024  1.00  0.00     0.013 A 
ENDBRANCH   8   9
ENDBRANCH   1   7
BRANCH   6  16
HETATM   16  C11 UNL     1      28.882   6.704  48.286  1.00  0.00     0.073 C 
HETATM   17  C12 UNL     1      28.654   5.422  48.245  1.00  0.00     0.015 C 
BRANCH  17  18
HETATM   18  C13 UNL     1      27.285   5.132  48.732  1.00  0.00    -0.043 C 
HETATM   19  C14 UNL     1      26.129   5.775  48.854  1.00  0.00     0.017 C 
HETATM   20  C15 UNL     1      25.519   5.575  50.012  1.00  0.00     0.077 C 
HETATM   21  C16 UNL     1      25.668   4.123  50.087  1.00  0.00     0.038 C 
HETATM   22  C17 UNL     1      26.739   3.883  49.305  1.00  0.00     0.011 C 
BRANCH  20  23
HETATM   23  O1  UNL     1      24.877   6.312  51.007  1.00  0.00    -0.360 OA
HETATM   24  H12 UNL     1      24.379   5.855  51.742  1.00  0.00     0.217 HD
ENDBRANCH  20  23
ENDBRANCH  17  18
ENDBRANCH   6  16
BRANCH   5  25
HETATM   25  N4  UNL     1      28.188   8.070  46.003  1.00  0.00    -0.383 N 
HETATM   26  H8  UNL     1      28.195   8.193  44.970  1.00  0.00     0.157 HD
HETATM   27  H9  UNL     1      27.204   7.787  46.240  1.00  0.00     0.157 HD
ENDBRANCH   5  25
TORSDOF 6
ENDMDL
MODEL 9
REMARK VINA RESULT:      -7.7      9.483     12.702
REMARK  6 active torsions:
REMARK  status: ('A' for Active; 'I' for Inactive)
REMARK    1  A    between atoms: C5_5  and  C6_6 
REMARK    2  A    between atoms: N1_7  and  C7_8 
REMARK    3  A    between atoms: C9_12  and  N4_13 
REMARK    4  A    between atoms: C10_14  and  C11_15 
REMARK    5  A    between atoms: C12_16  and  C13_17 
REMARK    6  A    between atoms: C15_19  and  O1_20 
ROOT
HETATM    1  C7  UNL     1      30.259   9.160  46.905  1.00  0.00     0.160 A 
HETATM    2  N2  UNL     1      30.768  10.409  47.088  1.00  0.00    -0.222 NA
HETATM    3  C8  UNL     1      30.446  11.108  48.187  1.00  0.00     0.237 A 
HETATM    4  N3  UNL     1      29.619  10.632  49.161  1.00  0.00    -0.224 NA
HETATM    5  C9  UNL     1      29.105   9.374  48.979  1.00  0.00     0.133 A 
HETATM    6  C10 UNL     1      29.398   8.582  47.852  1.00  0.00     0.041 A 
ENDROOT
BRANCH   1   7
HETATM    7  N1  UNL     1      30.435   8.223  45.854  1.00  0.00    -0.240 NA
HETATM    8  C6  UNL     1      31.363   7.343  45.975  1.00  0.00     0.130 C 
BRANCH   8   9
HETATM    9  C5  UNL     1      32.420   6.852  46.824  1.00  0.00    -0.019 A 
HETATM   10  C4  UNL     1      32.233   5.718  47.546  1.00  0.00     0.013 A 
HETATM   11  C3  UNL     1      33.272   5.270  48.355  1.00  0.00     0.007 A 
HETATM   12  C2  UNL     1      34.440   6.002  48.382  1.00  0.00    -0.062 A 
HETATM   13  C1  UNL     1      35.566   5.549  49.236  1.00  0.00     0.048 C 
HETATM   14  C19 UNL     1      34.588   7.164  47.621  1.00  0.00     0.007 A 
HETATM   15  C18 UNL     1      33.556   7.628  46.805  1.00  0.00     0.013 A 
ENDBRANCH   8   9
ENDBRANCH   1   7
BRANCH   6  16
HETATM   16  C11 UNL     1      28.627   7.412  48.142  1.00  0.00     0.073 C 
HETATM   17  C12 UNL     1      28.667   6.110  48.148  1.00  0.00     0.015 C 
BRANCH  17  18
HETATM   18  C13 UNL     1      27.372   5.562  48.615  1.00  0.00    -0.043 C 
HETATM   19  C14 UNL     1      26.132   5.999  48.805  1.00  0.00     0.017 C 
HETATM   20  C15 UNL     1      25.586   5.600  49.944  1.00  0.00     0.077 C 
HETATM   21  C16 UNL     1      25.965   4.189  49.882  1.00  0.00     0.038 C 
HETATM   22  C17 UNL     1      27.044   4.195  49.073  1.00  0.00     0.011 C 
BRANCH  20  23
HETATM   23  O1  UNL     1      24.858   6.132  51.008  1.00  0.00    -0.360 OA
HETATM   24  H12 UNL     1      23.915   6.436  50.881  1.00  0.00     0.217 HD
ENDBRANCH  20  23
ENDBRANCH  17  18
ENDBRANCH   6  16
BRANCH   5  25
HETATM   25  N4  UNL     1      28.305   9.238  50.173  1.00  0.00    -0.383 N 
HETATM   26  H8  UNL     1      28.101  10.025  50.822  1.00  0.00     0.157 HD
HETATM   27  H9  UNL     1      27.816   8.405  50.588  1.00  0.00     0.157 HD
ENDBRANCH   5  25
TORSDOF 6
ENDMDL
