MODEL 1
REMARK VINA RESULT:      -8.7      0.000      0.000
REMARK  3 active torsions:
REMARK  status: ('A' for Active; 'I' for Inactive)
REMARK    1  A    between atoms: O1_2  and  C2_3 
REMARK    2  A    between atoms: C5_6  and  C6_7 
REMARK    3  A    between atoms: C16_19  and  O2_20 
ROOT
HETATM    1  C2  UNL     1      25.282   3.412  50.175  1.00  0.00     0.070 C 
HETATM    2  C3  UNL     1      24.885   2.193  50.316  1.00  0.00     0.052 C 
HETATM    3  C4  UNL     1      23.703   1.903  51.101  1.00  0.00     0.015 A 
HETATM    4  C5  UNL     1      23.705   1.256  52.288  1.00  0.00     0.013 A 
HETATM    5  C13 UNL     1      22.584   1.002  53.045  1.00  0.00     0.017 A 
HETATM    6  C14 UNL     1      21.400   1.467  52.504  1.00  0.00     0.033 A 
HETATM    7  C15 UNL     1      21.392   2.128  51.292  1.00  0.00     0.067 A 
HETATM    8  C16 UNL     1      22.528   2.368  50.550  1.00  0.00     0.106 A 
HETATM    9  N2  UNL     1      20.080   2.537  50.928  1.00  0.00    -0.349 N 
HETATM   10  C18 UNL     1      19.839   3.887  50.583  1.00  0.00     0.208 C 
HETATM   11  N3  UNL     1      20.394   5.004  50.811  1.00  0.00    -0.237 NA
HETATM   12  C19 UNL     1      21.561   5.117  51.587  1.00  0.00     0.233 C 
HETATM   13  N4  UNL     1      22.736   5.210  52.146  1.00  0.00    -0.254 NA
HETATM   14  C20 UNL     1      23.900   5.178  51.332  1.00  0.00     0.120 C 
HETATM   15  C21 UNL     1      24.893   4.722  50.591  1.00  0.00     0.056 C 
HETATM   16  H14 UNL     1      19.314   1.850  50.924  1.00  0.00     0.167 HD
ENDROOT
BRANCH   4  17
HETATM   17  C6  UNL     1      25.093   0.836  52.672  1.00  0.00     0.110 A 
HETATM   18  N1  UNL     1      25.813  -0.103  52.535  1.00  0.00    -0.240 NA
HETATM   19  C7  UNL     1      27.042  -0.214  52.995  1.00  0.00     0.075 A 
HETATM   20  C8  UNL     1      27.918  -1.277  52.867  1.00  0.00     0.033 A 
HETATM   21  C12 UNL     1      27.564   0.887  53.724  1.00  0.00     0.035 A 
HETATM   22  C9  UNL     1      29.170  -1.184  53.430  1.00  0.00     0.002 A 
HETATM   23  C10 UNL     1      29.657  -0.105  54.134  1.00  0.00     0.002 A 
HETATM   24  C11 UNL     1      28.839   0.985  54.300  1.00  0.00     0.021 A 
HETATM   25  S1  UNL     1      26.083   2.052  53.649  1.00  0.00    -0.067 SA
ENDBRANCH   4  17
BRANCH   8  26
HETATM   26  O2  UNL     1      22.430   3.036  49.339  1.00  0.00    -0.353 OA
HETATM   27  C17 UNL     1      22.202   2.343  48.109  1.00  0.00     0.210 C 
ENDBRANCH   8  26
BRANCH   1  28
HETATM   28  O1  UNL     1      26.399   3.249  49.382  1.00  0.00    -0.356 OA
HETATM   29  C1  UNL     1      27.133   4.403  49.019  1.00  0.00     0.210 C 
ENDBRANCH   1  28
TORSDOF 3
ENDMDL
MODEL 2
REMARK VINA RESULT:      -8.6      1.519      1.998
REMARK  3 active torsions:
REMARK  status: ('A' for Active; 'I' for Inactive)
REMARK    1  A    between atoms: O1_2  and  C2_3 
REMARK    2  A    between atoms: C5_6  and  C6_7 
REMARK    3  A    between atoms: C16_19  and  O2_20 
ROOT
HETATM    1  C2  UNL     1      23.872   3.190  50.588  1.00  0.00     0.070 C 
HETATM    2  C3  UNL     1      23.983   1.910  50.706  1.00  0.00     0.052 C 
HETATM    3  C4  UNL     1      23.045   1.175  51.528  1.00  0.00     0.015 A 
HETATM    4  C5  UNL     1      23.355   0.562  52.693  1.00  0.00     0.013 A 
HETATM    5  C13 UNL     1      22.458  -0.115  53.486  1.00  0.00     0.017 A 
HETATM    6  C14 UNL     1      21.161  -0.136  53.009  1.00  0.00     0.033 A 
HETATM    7  C15 UNL     1      20.838   0.487  51.820  1.00  0.00     0.067 A 
HETATM    8  C16 UNL     1      21.755   1.158  51.041  1.00  0.00     0.106 A 
HETATM    9  N2  UNL     1      19.452   0.363  51.524  1.00  0.00    -0.349 N 
HETATM   10  C18 UNL     1      18.694   1.520  51.234  1.00  0.00     0.208 C 
HETATM   11  N3  UNL     1      18.787   2.761  51.474  1.00  0.00    -0.237 NA
HETATM   12  C19 UNL     1      19.858   3.305  52.206  1.00  0.00     0.233 C 
HETATM   13  N4  UNL     1      20.932   3.837  52.719  1.00  0.00    -0.254 NA
HETATM   14  C20 UNL     1      21.977   4.268  51.858  1.00  0.00     0.120 C 
HETATM   15  C21 UNL     1      23.029   4.242  51.062  1.00  0.00     0.056 C 
HETATM   16  H14 UNL     1      19.011  -0.567  51.529  1.00  0.00     0.167 HD
ENDROOT
BRANCH   4  17
HETATM   17  C6  UNL     1      24.815   0.705  53.005  1.00  0.00     0.110 A 
HETATM   18  N1  UNL     1      25.593   1.568  53.266  1.00  0.00    -0.240 NA
HETATM   19  C7  UNL     1      26.878   1.409  53.509  1.00  0.00     0.075 A 
HETATM   20  C8  UNL     1      27.823   2.372  53.815  1.00  0.00     0.033 A 
HETATM   21  C12 UNL     1      27.390   0.086  53.456  1.00  0.00     0.035 A 
HETATM   22  C9  UNL     1      29.125   1.984  54.035  1.00  0.00     0.002 A 
HETATM   23  C10 UNL     1      29.602   0.693  53.978  1.00  0.00     0.002 A 
HETATM   24  C11 UNL     1      28.716  -0.313  53.679  1.00  0.00     0.021 A 
HETATM   25  S1  UNL     1      25.812  -0.852  53.024  1.00  0.00    -0.067 SA
ENDBRANCH   4  17
BRANCH   8  26
HETATM   26  O2  UNL     1      21.347   1.754  49.858  1.00  0.00    -0.353 OA
HETATM   27  C17 UNL     1      21.429   1.075  48.601  1.00  0.00     0.210 C 
ENDBRANCH   8  26
BRANCH   1  28
HETATM   28  O1  UNL     1      24.925   3.482  49.746  1.00  0.00    -0.356 OA
HETATM   29  C1  UNL     1      26.237   3.225  50.206  1.00  0.00     0.210 C 
ENDBRANCH   1  28
TORSDOF 3
ENDMDL
MODEL 3
REMARK VINA RESULT:      -8.0      6.276      7.902
REMARK  3 active torsions:
REMARK  status: ('A' for Active; 'I' for Inactive)
REMARK    1  A    between atoms: O1_2  and  C2_3 
REMARK    2  A    between atoms: C5_6  and  C6_7 
REMARK    3  A    between atoms: C16_19  and  O2_20 
ROOT
HETATM    1  C2  UNL     1      29.887   8.881  47.245  1.00  0.00     0.070 C 
HETATM    2  C3  UNL     1      29.530   7.724  46.798  1.00  0.00     0.052 C 
HETATM    3  C4  UNL     1      28.515   6.962  47.495  1.00  0.00     0.015 A 
HETATM    4  C5  UNL     1      28.741   5.807  48.163  1.00  0.00     0.013 A 
HETATM    5  C13 UNL     1      27.780   5.096  48.845  1.00  0.00     0.017 A 
HETATM    6  C14 UNL     1      26.514   5.649  48.812  1.00  0.00     0.033 A 
HETATM    7  C15 UNL     1      26.278   6.827  48.131  1.00  0.00     0.067 A 
HETATM    8  C16 UNL     1      27.256   7.520  47.452  1.00  0.00     0.106 A 
HETATM    9  N2  UNL     1      24.919   7.231  48.239  1.00  0.00    -0.349 N 
HETATM   10  C18 UNL     1      24.611   8.537  48.680  1.00  0.00     0.208 C 
HETATM   11  N3  UNL     1      25.192   9.436  49.360  1.00  0.00    -0.237 NA
HETATM   12  C19 UNL     1      26.482   9.258  49.891  1.00  0.00     0.233 C 
HETATM   13  N4  UNL     1      27.739   9.173  50.228  1.00  0.00    -0.254 NA
HETATM   14  C20 UNL     1      28.732   9.672  49.344  1.00  0.00     0.120 C 
HETATM   15  C21 UNL     1      29.573   9.755  48.330  1.00  0.00     0.056 C 
HETATM   16  H14 UNL     1      24.169   6.566  48.001  1.00  0.00     0.167 HD
ENDROOT
BRANCH   4  17
HETATM   17  C6  UNL     1      30.178   5.392  48.055  1.00  0.00     0.110 A 
HETATM   18  N1  UNL     1      30.842   4.623  47.433  1.00  0.00    -0.240 NA
HETATM   19  C7  UNL     1      32.143   4.456  47.541  1.00  0.00     0.075 A 
HETATM   20  C8  UNL     1      32.961   3.582  46.848  1.00  0.00     0.033 A 
HETATM   21  C12 UNL     1      32.826   5.268  48.485  1.00  0.00     0.035 A 
HETATM   22  C9  UNL     1      34.310   3.571  47.118  1.00  0.00     0.002 A 
HETATM   23  C10 UNL     1      34.953   4.367  48.040  1.00  0.00     0.002 A 
HETATM   24  C11 UNL     1      34.201   5.259  48.764  1.00  0.00     0.021 A 
HETATM   25  S1  UNL     1      31.374   6.261  49.164  1.00  0.00    -0.067 SA
ENDBRANCH   4  17
BRANCH   8  26
HETATM   26  O2  UNL     1      26.932   8.694  46.790  1.00  0.00    -0.353 OA
HETATM   27  C17 UNL     1      26.445   8.695  45.445  1.00  0.00     0.210 C 
ENDBRANCH   8  26
BRANCH   1  28
HETATM   28  O1  UNL     1      30.840   9.252  46.319  1.00  0.00    -0.356 OA
HETATM   29  C1  UNL     1      31.789   8.284  45.915  1.00  0.00     0.210 C 
ENDBRANCH   1  28
TORSDOF 3
ENDMDL
MODEL 4
REMARK VINA RESULT:      -7.9      1.845      3.665
REMARK  3 active torsions:
REMARK  status: ('A' for Active; 'I' for Inactive)
REMARK    1  A    between atoms: O1_2  and  C2_3 
REMARK    2  A    between atoms: C5_6  and  C6_7 
REMARK    3  A    between atoms: C16_19  and  O2_20 
ROOT
HETATM    1  C2  UNL     1      22.846   1.193  52.237  1.00  0.00     0.070 C 
HETATM    2  C3  UNL     1      23.803   2.024  52.481  1.00  0.00     0.052 C 
HETATM    3  C4  UNL     1      24.310   2.873  51.424  1.00  0.00     0.015 A 
HETATM    4  C5  UNL     1      25.542   2.769  50.875  1.00  0.00     0.013 A 
HETATM    5  C13 UNL     1      26.015   3.560  49.853  1.00  0.00     0.017 A 
HETATM    6  C14 UNL     1      25.124   4.513  49.396  1.00  0.00     0.033 A 
HETATM    7  C15 UNL     1      23.866   4.625  49.954  1.00  0.00     0.067 A 
HETATM    8  C16 UNL     1      23.415   3.822  50.979  1.00  0.00     0.106 A 
HETATM    9  N2  UNL     1      23.105   5.650  49.326  1.00  0.00    -0.349 N 
HETATM   10  C18 UNL     1      21.815   5.357  48.828  1.00  0.00     0.208 C 
HETATM   11  N3  UNL     1      21.192   4.319  48.452  1.00  0.00    -0.237 NA
HETATM   12  C19 UNL     1      21.782   3.042  48.470  1.00  0.00     0.233 C 
HETATM   13  N4  UNL     1      22.254   1.841  48.655  1.00  0.00    -0.254 NA
HETATM   14  C20 UNL     1      21.973   1.161  49.870  1.00  0.00     0.120 C 
HETATM   15  C21 UNL     1      22.031   0.789  51.135  1.00  0.00     0.056 C 
HETATM   16  H14 UNL     1      23.501   6.596  49.235  1.00  0.00     0.167 HD
ENDROOT
BRANCH   4  17
HETATM   17  C6  UNL     1      26.336   1.680  51.533  1.00  0.00     0.110 A 
HETATM   18  N1  UNL     1      26.361   0.489  51.570  1.00  0.00    -0.240 NA
HETATM   19  C7  UNL     1      27.205  -0.248  52.262  1.00  0.00     0.075 A 
HETATM   20  C8  UNL     1      27.279  -1.627  52.341  1.00  0.00     0.033 A 
HETATM   21  C12 UNL     1      28.178   0.433  53.038  1.00  0.00     0.035 A 
HETATM   22  C9  UNL     1      28.249  -2.201  53.132  1.00  0.00     0.002 A 
HETATM   23  C10 UNL     1      29.185  -1.520  53.878  1.00  0.00     0.002 A 
HETATM   24  C11 UNL     1      29.168  -0.147  53.845  1.00  0.00     0.021 A 
HETATM   25  S1  UNL     1      27.715   2.217  52.639  1.00  0.00    -0.067 SA
ENDBRANCH   4  17
BRANCH   8  26
HETATM   26  O2  UNL     1      22.137   4.005  51.484  1.00  0.00    -0.353 OA
HETATM   27  C17 UNL     1      21.852   4.989  52.483  1.00  0.00     0.210 C 
ENDBRANCH   8  26
BRANCH   1  28
HETATM   28  O1  UNL     1      22.670   0.604  53.472  1.00  0.00    -0.356 OA
HETATM   29  C1  UNL     1      23.520  -0.471  53.824  1.00  0.00     0.210 C 
ENDBRANCH   1  28
TORSDOF 3
ENDMDL
MODEL 5
REMARK VINA RESULT:      -7.4      3.918      6.868
REMARK  3 active torsions:
REMARK  status: ('A' for Active; 'I' for Inactive)
REMARK    1  A    between atoms: O1_2  and  C2_3 
REMARK    2  A    between atoms: C5_6  and  C6_7 
REMARK    3  A    between atoms: C16_19  and  O2_20 
ROOT
HETATM    1  C2  UNL     1      23.854   7.391  49.938  1.00  0.00     0.070 C 
HETATM    2  C3  UNL     1      24.831   6.763  50.500  1.00  0.00     0.052 C 
HETATM    3  C4  UNL     1      25.990   6.381  49.720  1.00  0.00     0.015 A 
HETATM    4  C5  UNL     1      26.327   5.108  49.412  1.00  0.00     0.013 A 
HETATM    5  C13 UNL     1      27.415   4.747  48.650  1.00  0.00     0.017 A 
HETATM    6  C14 UNL     1      28.181   5.804  48.194  1.00  0.00     0.033 A 
HETATM    7  C15 UNL     1      27.842   7.105  48.506  1.00  0.00     0.067 A 
HETATM    8  C16 UNL     1      26.748   7.442  49.274  1.00  0.00     0.106 A 
HETATM    9  N2  UNL     1      28.746   8.035  47.923  1.00  0.00    -0.349 N 
HETATM   10  C18 UNL     1      28.245   9.100  47.140  1.00  0.00     0.208 C 
HETATM   11  N3  UNL     1      27.187   9.335  46.482  1.00  0.00    -0.237 NA
HETATM   12  C19 UNL     1      26.133   8.407  46.400  1.00  0.00     0.233 C 
HETATM   13  N4  UNL     1      25.084   7.636  46.470  1.00  0.00    -0.254 NA
HETATM   14  C20 UNL     1      24.109   7.876  47.475  1.00  0.00     0.120 C 
HETATM   15  C21 UNL     1      23.501   7.890  48.647  1.00  0.00     0.056 C 
HETATM   16  H14 UNL     1      29.758   7.923  48.070  1.00  0.00     0.167 HD
ENDROOT
BRANCH   4  17
HETATM   17  C6  UNL     1      25.364   4.132  50.020  1.00  0.00     0.110 A 
HETATM   18  N1  UNL     1      25.237   3.513  51.030  1.00  0.00    -0.240 NA
HETATM   19  C7  UNL     1      24.250   2.691  51.318  1.00  0.00     0.075 A 
HETATM   20  C8  UNL     1      24.053   1.950  52.470  1.00  0.00     0.033 A 
HETATM   21  C12 UNL     1      23.238   2.522  50.337  1.00  0.00     0.035 A 
HETATM   22  C9  UNL     1      22.941   1.145  52.565  1.00  0.00     0.002 A 
HETATM   23  C10 UNL     1      21.970   0.995  51.600  1.00  0.00     0.002 A 
HETATM   24  C11 UNL     1      22.103   1.702  50.430  1.00  0.00     0.021 A 
HETATM   25  S1  UNL     1      23.895   3.674  48.997  1.00  0.00    -0.067 SA
ENDBRANCH   4  17
BRANCH   8  26
HETATM   26  O2  UNL     1      26.482   8.775  49.543  1.00  0.00    -0.353 OA
HETATM   27  C17 UNL     1      27.203   9.504  50.541  1.00  0.00     0.210 C 
ENDBRANCH   8  26
BRANCH   1  28
HETATM   28  O1  UNL     1      22.988   7.560  50.998  1.00  0.00    -0.356 OA
HETATM   29  C1  UNL     1      21.672   7.056  50.870  1.00  0.00     0.210 C 
ENDBRANCH   1  28
TORSDOF 3
ENDMDL
MODEL 6
REMARK VINA RESULT:      -7.4      2.221      3.898
REMARK  3 active torsions:
REMARK  status: ('A' for Active; 'I' for Inactive)
REMARK    1  A    between atoms: O1_2  and  C2_3 
REMARK    2  A    between atoms: C5_6  and  C6_7 
REMARK    3  A    between atoms: C16_19  and  O2_20 
ROOT
HETATM    1  C2  UNL     1      21.609   1.076  50.467  1.00  0.00     0.070 C 
HETATM    2  C3  UNL     1      22.007   1.989  51.288  1.00  0.00     0.052 C 
HETATM    3  C4  UNL     1      22.490   3.256  50.782  1.00  0.00     0.015 A 
HETATM    4  C5  UNL     1      23.773   3.678  50.856  1.00  0.00     0.013 A 
HETATM    5  C13 UNL     1      24.236   4.872  50.352  1.00  0.00     0.017 A 
HETATM    6  C14 UNL     1      23.277   5.654  49.737  1.00  0.00     0.033 A 
HETATM    7  C15 UNL     1      21.966   5.229  49.659  1.00  0.00     0.067 A 
HETATM    8  C16 UNL     1      21.525   4.029  50.173  1.00  0.00     0.106 A 
HETATM    9  N2  UNL     1      21.151   6.170  48.972  1.00  0.00    -0.349 N 
HETATM   10  C18 UNL     1      20.354   5.743  47.886  1.00  0.00     0.208 C 
HETATM   11  N3  UNL     1      20.366   4.777  47.064  1.00  0.00    -0.237 NA
HETATM   12  C19 UNL     1      21.356   3.779  47.095  1.00  0.00     0.233 C 
HETATM   13  N4  UNL     1      22.156   2.758  47.232  1.00  0.00    -0.254 NA
HETATM   14  C20 UNL     1      21.741   1.647  48.013  1.00  0.00     0.120 C 
HETATM   15  C21 UNL     1      21.476   0.885  49.058  1.00  0.00     0.056 C 
HETATM   16  H14 UNL     1      21.151   7.156  49.266  1.00  0.00     0.167 HD
ENDROOT
BRANCH   4  17
HETATM   17  C6  UNL     1      24.630   2.677  51.572  1.00  0.00     0.110 A 
HETATM   18  N1  UNL     1      25.300   1.726  51.314  1.00  0.00    -0.240 NA
HETATM   19  C7  UNL     1      25.978   0.997  52.176  1.00  0.00     0.075 A 
HETATM   20  C8  UNL     1      26.768  -0.113  51.933  1.00  0.00     0.033 A 
HETATM   21  C12 UNL     1      25.909   1.374  53.543  1.00  0.00     0.035 A 
HETATM   22  C9  UNL     1      27.395  -0.732  52.990  1.00  0.00     0.002 A 
HETATM   23  C10 UNL     1      27.314  -0.349  54.310  1.00  0.00     0.002 A 
HETATM   24  C11 UNL     1      26.546   0.746  54.623  1.00  0.00     0.021 A 
HETATM   25  S1  UNL     1      24.770   2.871  53.405  1.00  0.00    -0.067 SA
ENDBRANCH   4  17
BRANCH   8  26
HETATM   26  O2  UNL     1      20.188   3.681  50.055  1.00  0.00    -0.353 OA
HETATM   27  C17 UNL     1      19.227   4.017  51.060  1.00  0.00     0.210 C 
ENDBRANCH   8  26
BRANCH   1  28
HETATM   28  O1  UNL     1      21.241   0.067  51.333  1.00  0.00    -0.356 OA
HETATM   29  C1  UNL     1      21.932  -0.040  52.563  1.00  0.00     0.210 C 
ENDBRANCH   1  28
TORSDOF 3
ENDMDL
MODEL 7
REMARK VINA RESULT:      -7.2      1.603      2.126
REMARK  3 active torsions:
REMARK  status: ('A' for Active; 'I' for Inactive)
REMARK    1  A    between atoms: O1_2  and  C2_3 
REMARK    2  A    between atoms: C5_6  and  C6_7 
REMARK    3  A    between atoms: C16_19  and  O2_20 
ROOT
HETATM    1  C2  UNL     1      24.609   4.845  49.495  1.00  0.00     0.070 C 
HETATM    2  C3  UNL     1      24.133   3.648  49.421  1.00  0.00     0.052 C 
HETATM    3  C4  UNL     1      22.793   3.372  49.896  1.00  0.00     0.015 A 
HETATM    4  C5  UNL     1      22.499   2.623  50.983  1.00  0.00     0.013 A 
HETATM    5  C13 UNL     1      21.227   2.381  51.447  1.00  0.00     0.017 A 
HETATM    6  C14 UNL     1      20.217   2.972  50.711  1.00  0.00     0.033 A 
HETATM    7  C15 UNL     1      20.511   3.737  49.600  1.00  0.00     0.067 A 
HETATM    8  C16 UNL     1      21.795   3.963  49.152  1.00  0.00     0.106 A 
HETATM    9  N2  UNL     1      19.334   4.267  49.003  1.00  0.00    -0.349 N 
HETATM   10  C18 UNL     1      19.241   5.655  48.753  1.00  0.00     0.208 C 
HETATM   11  N3  UNL     1      19.783   6.706  49.209  1.00  0.00    -0.237 NA
HETATM   12  C19 UNL     1      20.752   6.669  50.229  1.00  0.00     0.233 C 
HETATM   13  N4  UNL     1      21.775   6.631  51.036  1.00  0.00    -0.254 NA
HETATM   14  C20 UNL     1      23.088   6.592  50.497  1.00  0.00     0.120 C 
HETATM   15  C21 UNL     1      24.199   6.137  49.947  1.00  0.00     0.056 C 
HETATM   16  H14 UNL     1      18.557   3.636  48.762  1.00  0.00     0.167 HD
ENDROOT
BRANCH   4  17
HETATM   17  C6  UNL     1      23.744   2.076  51.615  1.00  0.00     0.110 A 
HETATM   18  N1  UNL     1      24.488   1.156  51.475  1.00  0.00    -0.240 NA
HETATM   19  C7  UNL     1      25.556   0.902  52.203  1.00  0.00     0.075 A 
HETATM   20  C8  UNL     1      26.450  -0.147  52.085  1.00  0.00     0.033 A 
HETATM   21  C12 UNL     1      25.855   1.808  53.255  1.00  0.00     0.035 A 
HETATM   22  C9  UNL     1      27.510  -0.223  52.960  1.00  0.00     0.002 A 
HETATM   23  C10 UNL     1      27.782   0.667  53.975  1.00  0.00     0.002 A 
HETATM   24  C11 UNL     1      26.933   1.733  54.148  1.00  0.00     0.021 A 
HETATM   25  S1  UNL     1      24.429   3.024  53.046  1.00  0.00    -0.067 SA
ENDBRANCH   4  17
BRANCH   8  26
HETATM   26  O2  UNL     1      22.001   4.741  48.024  1.00  0.00    -0.353 OA
HETATM   27  C17 UNL     1      21.969   4.187  46.706  1.00  0.00     0.210 C 
ENDBRANCH   8  26
BRANCH   1  28
HETATM   28  O1  UNL     1      25.866   4.676  48.952  1.00  0.00    -0.356 OA
HETATM   29  C1  UNL     1      26.734   3.739  49.560  1.00  0.00     0.210 C 
ENDBRANCH   1  28
TORSDOF 3
ENDMDL
MODEL 8
REMARK VINA RESULT:      -7.1      8.939     11.176
REMARK  3 active torsions:
REMARK  status: ('A' for Active; 'I' for Inactive)
REMARK    1  A    between atoms: O1_2  and  C2_3 
REMARK    2  A    between atoms: C5_6  and  C6_7 
REMARK    3  A    between atoms: C16_19  and  O2_20 
ROOT
HETATM    1  C2  UNL     1      29.525   7.545  46.972  1.00  0.00     0.070 C 
HETATM    2  C3  UNL     1      30.482   7.840  47.786  1.00  0.00     0.052 C 
HETATM    3  C4  UNL     1      31.245   9.055  47.593  1.00  0.00     0.015 A 
HETATM    4  C5  UNL     1      32.546   9.098  47.225  1.00  0.00     0.013 A 
HETATM    5  C13 UNL     1      33.265  10.253  47.018  1.00  0.00     0.017 A 
HETATM    6  C14 UNL     1      32.555  11.423  47.216  1.00  0.00     0.033 A 
HETATM    7  C15 UNL     1      31.227  11.385  47.593  1.00  0.00     0.067 A 
HETATM    8  C16 UNL     1      30.529  10.215  47.797  1.00  0.00     0.106 A 
HETATM    9  N2  UNL     1      30.683  12.692  47.722  1.00  0.00    -0.349 N 
HETATM   10  C18 UNL     1      29.491  13.024  47.039  1.00  0.00     0.208 C 
HETATM   11  N3  UNL     1      28.869  12.594  46.021  1.00  0.00    -0.237 NA
HETATM   12  C19 UNL     1      29.342  11.514  45.253  1.00  0.00     0.233 C 
HETATM   13  N4  UNL     1      29.673  10.406  44.650  1.00  0.00    -0.254 NA
HETATM   14  C20 UNL     1      29.114   9.178  45.092  1.00  0.00     0.120 C 
HETATM   15  C21 UNL     1      28.903   8.087  45.806  1.00  0.00     0.056 C 
HETATM   16  H14 UNL     1      31.163  13.389  48.308  1.00  0.00     0.167 HD
ENDROOT
BRANCH   4  17
HETATM   17  C6  UNL     1      33.112   7.717  47.080  1.00  0.00     0.110 A 
HETATM   18  N1  UNL     1      33.587   6.869  47.768  1.00  0.00    -0.240 NA
HETATM   19  C7  UNL     1      34.022   5.693  47.364  1.00  0.00     0.075 A 
HETATM   20  C8  UNL     1      34.581   4.675  48.116  1.00  0.00     0.033 A 
HETATM   21  C12 UNL     1      33.917   5.403  45.978  1.00  0.00     0.035 A 
HETATM   22  C9  UNL     1      34.971   3.515  47.487  1.00  0.00     0.002 A 
HETATM   23  C10 UNL     1      34.860   3.254  46.139  1.00  0.00     0.002 A 
HETATM   24  C11 UNL     1      34.314   4.222  45.333  1.00  0.00     0.021 A 
HETATM   25  S1  UNL     1      33.132   7.008  45.373  1.00  0.00    -0.067 SA
ENDBRANCH   4  17
BRANCH   8  26
HETATM   26  O2  UNL     1      29.197  10.267  48.179  1.00  0.00    -0.353 OA
HETATM   27  C17 UNL     1      28.799  10.165  49.549  1.00  0.00     0.210 C 
ENDBRANCH   8  26
BRANCH   1  28
HETATM   28  O1  UNL     1      29.073   6.353  47.498  1.00  0.00    -0.356 OA
HETATM   29  C1  UNL     1      30.016   5.495  48.112  1.00  0.00     0.210 C 
ENDBRANCH   1  28
TORSDOF 3
ENDMDL
MODEL 9
REMARK VINA RESULT:      -7.0      5.997      9.246
REMARK  3 active torsions:
REMARK  status: ('A' for Active; 'I' for Inactive)
REMARK    1  A    between atoms: O1_2  and  C2_3 
REMARK    2  A    between atoms: C5_6  and  C6_7 
REMARK    3  A    between atoms: C16_19  and  O2_20 
ROOT
HETATM    1  C2  UNL     1      30.701   6.631  48.607  1.00  0.00     0.070 C 
HETATM    2  C3  UNL     1      29.792   6.463  47.705  1.00  0.00     0.052 C 
HETATM    3  C4  UNL     1      29.068   7.605  47.187  1.00  0.00     0.015 A 
HETATM    4  C5  UNL     1      27.756   7.848  47.403  1.00  0.00     0.013 A 
HETATM    5  C13 UNL     1      27.073   8.946  46.930  1.00  0.00     0.017 A 
HETATM    6  C14 UNL     1      27.836   9.829  46.189  1.00  0.00     0.033 A 
HETATM    7  C15 UNL     1      29.176   9.586  45.965  1.00  0.00     0.067 A 
HETATM    8  C16 UNL     1      29.837   8.477  46.447  1.00  0.00     0.106 A 
HETATM    9  N2  UNL     1      29.776  10.624  45.200  1.00  0.00    -0.349 N 
HETATM   10  C18 UNL     1      30.949  11.254  45.675  1.00  0.00     0.208 C 
HETATM   11  N3  UNL     1      31.509  11.418  46.801  1.00  0.00    -0.237 NA
HETATM   12  C19 UNL     1      30.962  10.909  47.992  1.00  0.00     0.233 C 
HETATM   13  N4  UNL     1      30.562  10.287  49.067  1.00  0.00    -0.254 NA
HETATM   14  C20 UNL     1      31.092   9.004  49.369  1.00  0.00     0.120 C 
HETATM   15  C21 UNL     1      31.291   7.700  49.348  1.00  0.00     0.056 C 
HETATM   16  H14 UNL     1      29.349  10.913  44.309  1.00  0.00     0.167 HD
ENDROOT
BRANCH   4  17
HETATM   17  C6  UNL     1      27.131   6.756  48.219  1.00  0.00     0.110 A 
HETATM   18  N1  UNL     1      27.255   5.583  48.388  1.00  0.00    -0.240 NA
HETATM   19  C7  UNL     1      26.541   4.835  49.203  1.00  0.00     0.075 A 
HETATM   20  C8  UNL     1      26.642   3.476  49.437  1.00  0.00     0.033 A 
HETATM   21  C12 UNL     1      25.524   5.482  49.954  1.00  0.00     0.035 A 
HETATM   22  C9  UNL     1      25.787   2.887  50.340  1.00  0.00     0.002 A 
HETATM   23  C10 UNL     1      24.805   3.533  51.059  1.00  0.00     0.002 A 
HETATM   24  C11 UNL     1      24.650   4.885  50.874  1.00  0.00     0.021 A 
HETATM   25  S1  UNL     1      25.743   7.250  49.335  1.00  0.00    -0.067 SA
ENDBRANCH   4  17
BRANCH   8  26
HETATM   26  O2  UNL     1      31.185   8.307  46.171  1.00  0.00    -0.353 OA
HETATM   27  C17 UNL     1      31.638   7.645  44.986  1.00  0.00     0.210 C 
ENDBRANCH   8  26
BRANCH   1  28
HETATM   28  O1  UNL     1      31.129   5.336  48.811  1.00  0.00    -0.356 OA
HETATM   29  C1  UNL     1      31.600   4.605  47.695  1.00  0.00     0.210 C 
ENDBRANCH   1  28
TORSDOF 3
ENDMDL
