MODEL 1
REMARK VINA RESULT:      -9.8      0.000      0.000
REMARK  5 active torsions:
REMARK  status: ('A' for Active; 'I' for Inactive)
REMARK    1  A    between atoms: C7_11  and  N3_12 
REMARK    2  A    between atoms: N3_12  and  C8_13 
REMARK    3  A    between atoms: N4_23  and  C17_24 
REMARK    4  A    between atoms: C17_24  and  C18_25 
REMARK    5  A    between atoms: C18_25  and  C19_26 
ROOT
HETATM    1  O1  UNL     1      21.149  -1.724  54.383  1.00  0.00    -0.271 OA
HETATM    2  C1  UNL     1      22.366  -1.359  54.484  1.00  0.00     0.248 C 
HETATM    3  C2  UNL     1      23.099  -1.877  55.669  1.00  0.00     0.279 C 
HETATM    4  O2  UNL     1      24.364  -1.285  55.799  1.00  0.00    -0.340 OA
HETATM    5  C3  UNL     1      24.883  -0.442  54.801  1.00  0.00     0.098 A 
HETATM    6  C4  UNL     1      26.164   0.013  54.985  1.00  0.00     0.071 A 
HETATM    7  C5  UNL     1      26.695   0.839  54.022  1.00  0.00     0.075 A 
HETATM    8  N1  UNL     1      27.965   1.261  54.265  1.00  0.00    -0.241 NA
HETATM    9  C6  UNL     1      28.599   2.072  53.417  1.00  0.00     0.236 A 
HETATM   10  N2  UNL     1      27.930   2.447  52.323  1.00  0.00    -0.224 NA
HETATM   11  C7  UNL     1      26.688   2.095  51.989  1.00  0.00     0.142 A 
HETATM   12  C14 UNL     1      26.038   1.257  52.870  1.00  0.00     0.041 A 
HETATM   13  C15 UNL     1      24.756   0.777  52.726  1.00  0.00     0.050 A 
HETATM   14  C16 UNL     1      24.199  -0.052  53.674  1.00  0.00     0.071 A 
HETATM   15  N4  UNL     1      22.872  -0.496  53.441  1.00  0.00    -0.314 N 
ENDROOT
BRANCH  15  16
HETATM   16  C17 UNL     1      22.025  -0.173  52.305  1.00  0.00     0.134 C 
BRANCH  16  17
HETATM   17  C18 UNL     1      21.342   1.118  52.599  1.00  0.00     0.045 C 
BRANCH  17  18
HETATM   18  C19 UNL     1      21.569   2.223  51.597  1.00  0.00     0.078 C 
HETATM   19  C20 UNL     1      21.946   1.665  50.268  1.00  0.00     0.027 C 
HETATM   20  C21 UNL     1      22.605   2.674  49.359  1.00  0.00     0.028 C 
HETATM   21  C22 UNL     1      21.690   3.754  48.890  1.00  0.00     0.167 C 
HETATM   22  O3  UNL     1      21.944   4.926  49.631  1.00  0.00    -0.390 OA
HETATM   23  C23 UNL     1      21.099   4.970  50.736  1.00  0.00     0.186 C 
HETATM   24  C24 UNL     1      21.861   4.608  51.964  1.00  0.00     0.140 C 
HETATM   25  N5  UNL     1      22.364   3.296  52.056  1.00  0.00    -0.415 N 
HETATM   26  H26 UNL     1      23.295   3.125  52.415  1.00  0.00     0.153 HD
ENDBRANCH  17  18
ENDBRANCH  16  17
ENDBRANCH  15  16
BRANCH  11  27
HETATM   27  N3  UNL     1      26.008   2.511  50.831  1.00  0.00    -0.340 N 
HETATM   28  H5  UNL     1      25.343   1.922  50.311  1.00  0.00     0.167 HD
BRANCH  27  29
HETATM   29  C8  UNL     1      26.121   3.776  50.202  1.00  0.00     0.035 A 
HETATM   30  C9  UNL     1      27.040   4.075  49.230  1.00  0.00     0.029 A 
HETATM   31  C10 UNL     1      27.163   5.290  48.597  1.00  0.00     0.004 A 
HETATM   32  C11 UNL     1      26.314   6.314  48.938  1.00  0.00     0.024 A 
HETATM   33  C12 UNL     1      25.375   6.091  49.897  1.00  0.00     0.036 A 
HETATM   34 CL1  UNL     1      24.274   7.372  50.359  1.00  0.00    -0.084 Cl
HETATM   35  C13 UNL     1      25.303   4.870  50.485  1.00  0.00     0.053 A 
ENDBRANCH  27  29
ENDBRANCH  11  27
TORSDOF 5
ENDMDL
MODEL 2
REMARK VINA RESULT:      -9.5      2.205      5.190
REMARK  5 active torsions:
REMARK  status: ('A' for Active; 'I' for Inactive)
REMARK    1  A    between atoms: C7_11  and  N3_12 
REMARK    2  A    between atoms: N3_12  and  C8_13 
REMARK    3  A    between atoms: N4_23  and  C17_24 
REMARK    4  A    between atoms: C17_24  and  C18_25 
REMARK    5  A    between atoms: C18_25  and  C19_26 
ROOT
HETATM    1  O1  UNL     1      29.014   1.133  52.833  1.00  0.00    -0.271 OA
HETATM    2  C1  UNL     1      27.975   0.699  53.431  1.00  0.00     0.248 C 
HETATM    3  C2  UNL     1      28.191   0.182  54.808  1.00  0.00     0.279 C 
HETATM    4  O2  UNL     1      27.041  -0.437  55.318  1.00  0.00    -0.340 OA
HETATM    5  C3  UNL     1      25.817  -0.388  54.629  1.00  0.00     0.098 A 
HETATM    6  C4  UNL     1      24.734  -0.949  55.257  1.00  0.00     0.071 A 
HETATM    7  C5  UNL     1      23.525  -0.914  54.602  1.00  0.00     0.075 A 
HETATM    8  N1  UNL     1      22.493  -1.491  55.273  1.00  0.00    -0.241 NA
HETATM    9  C6  UNL     1      21.266  -1.534  54.753  1.00  0.00     0.236 A 
HETATM   10  N2  UNL     1      21.101  -0.984  53.546  1.00  0.00    -0.224 NA
HETATM   11  C7  UNL     1      22.040  -0.396  52.804  1.00  0.00     0.142 A 
HETATM   12  C14 UNL     1      23.306  -0.356  53.347  1.00  0.00     0.041 A 
HETATM   13  C15 UNL     1      24.419   0.195  52.754  1.00  0.00     0.050 A 
HETATM   14  C16 UNL     1      25.642   0.175  53.386  1.00  0.00     0.071 A 
HETATM   15  N4  UNL     1      26.732   0.766  52.698  1.00  0.00    -0.314 N 
ENDROOT
BRANCH  15  16
HETATM   16  C17 UNL     1      26.705   1.397  51.389  1.00  0.00     0.134 C 
BRANCH  16  17
HETATM   17  C18 UNL     1      26.606   2.869  51.594  1.00  0.00     0.045 C 
BRANCH  17  18
HETATM   18  C19 UNL     1      25.760   3.615  50.592  1.00  0.00     0.078 C 
HETATM   19  C20 UNL     1      24.439   2.950  50.411  1.00  0.00     0.027 C 
HETATM   20  C21 UNL     1      23.731   3.357  49.143  1.00  0.00     0.028 C 
HETATM   21  C22 UNL     1      23.263   4.773  49.138  1.00  0.00     0.167 C 
HETATM   22  O3  UNL     1      24.148   5.547  48.361  1.00  0.00    -0.390 OA
HETATM   23  C23 UNL     1      25.135   6.089  49.178  1.00  0.00     0.186 C 
HETATM   24  C24 UNL     1      26.406   5.331  48.997  1.00  0.00     0.140 C 
HETATM   25  N5  UNL     1      26.424   3.983  49.401  1.00  0.00    -0.415 N 
HETATM   26  H26 UNL     1      26.879   3.281  48.831  1.00  0.00     0.153 HD
ENDBRANCH  17  18
ENDBRANCH  16  17
ENDBRANCH  15  16
BRANCH  11  27
HETATM   27  N3  UNL     1      21.836   0.170  51.533  1.00  0.00    -0.340 N 
HETATM   28  H5  UNL     1      22.133  -0.272  50.652  1.00  0.00     0.167 HD
BRANCH  27  29
HETATM   29  C8  UNL     1      21.206   1.409  51.258  1.00  0.00     0.035 A 
HETATM   30  C9  UNL     1      21.137   2.453  52.144  1.00  0.00     0.029 A 
HETATM   31  C10 UNL     1      20.541   3.668  51.899  1.00  0.00     0.004 A 
HETATM   32  C11 UNL     1      19.955   3.895  50.677  1.00  0.00     0.024 A 
HETATM   33  C12 UNL     1      19.983   2.903  49.747  1.00  0.00     0.036 A 
HETATM   34 CL1  UNL     1      19.248   3.153  48.177  1.00  0.00    -0.084 Cl
HETATM   35  C13 UNL     1      20.587   1.725  50.049  1.00  0.00     0.053 A 
ENDBRANCH  27  29
ENDBRANCH  11  27
TORSDOF 5
ENDMDL
MODEL 3
REMARK VINA RESULT:      -9.3      3.141      7.852
REMARK  5 active torsions:
REMARK  status: ('A' for Active; 'I' for Inactive)
REMARK    1  A    between atoms: C7_11  and  N3_12 
REMARK    2  A    between atoms: N3_12  and  C8_13 
REMARK    3  A    between atoms: N4_23  and  C17_24 
REMARK    4  A    between atoms: C17_24  and  C18_25 
REMARK    5  A    between atoms: C18_25  and  C19_26 
ROOT
HETATM    1  O1  UNL     1      27.589   2.608  51.816  1.00  0.00    -0.271 OA
HETATM    2  C1  UNL     1      26.496   2.727  51.172  1.00  0.00     0.248 C 
HETATM    3  C2  UNL     1      26.628   3.122  49.745  1.00  0.00     0.279 C 
HETATM    4  O2  UNL     1      25.382   3.405  49.166  1.00  0.00    -0.340 OA
HETATM    5  C3  UNL     1      24.182   3.158  49.855  1.00  0.00     0.098 A 
HETATM    6  C4  UNL     1      23.019   3.387  49.165  1.00  0.00     0.071 A 
HETATM    7  C5  UNL     1      21.830   3.153  49.819  1.00  0.00     0.075 A 
HETATM    8  N1  UNL     1      20.714   3.404  49.084  1.00  0.00    -0.241 NA
HETATM    9  C6  UNL     1      19.494   3.227  49.595  1.00  0.00     0.236 A 
HETATM   10  N2  UNL     1      19.425   2.791  50.857  1.00  0.00    -0.224 NA
HETATM   11  C7  UNL     1      20.451   2.516  51.663  1.00  0.00     0.142 A 
HETATM   12  C14 UNL     1      21.708   2.703  51.129  1.00  0.00     0.041 A 
HETATM   13  C15 UNL     1      22.900   2.487  51.782  1.00  0.00     0.050 A 
HETATM   14  C16 UNL     1      24.104   2.712  51.154  1.00  0.00     0.071 A 
HETATM   15  N4  UNL     1      25.280   2.463  51.906  1.00  0.00    -0.314 N 
ENDROOT
BRANCH  15  16
HETATM   16  C17 UNL     1      25.360   1.992  53.279  1.00  0.00     0.134 C 
BRANCH  16  17
HETATM   17  C18 UNL     1      25.297   0.504  53.255  1.00  0.00     0.045 C 
BRANCH  17  18
HETATM   18  C19 UNL     1      26.619  -0.211  53.387  1.00  0.00     0.078 C 
HETATM   19  C20 UNL     1      26.607  -1.493  52.629  1.00  0.00     0.027 C 
HETATM   20  C21 UNL     1      27.690  -2.453  53.057  1.00  0.00     0.028 C 
HETATM   21  C22 UNL     1      29.069  -2.006  52.706  1.00  0.00     0.167 C 
HETATM   22  O3  UNL     1      29.692  -1.491  53.860  1.00  0.00    -0.390 OA
HETATM   23  C23 UNL     1      29.484  -0.117  53.929  1.00  0.00     0.186 C 
HETATM   24  C24 UNL     1      28.438   0.180  54.950  1.00  0.00     0.140 C 
HETATM   25  N5  UNL     1      27.133  -0.285  54.700  1.00  0.00    -0.415 N 
HETATM   26  H26 UNL     1      26.581  -0.695  55.443  1.00  0.00     0.153 HD
ENDBRANCH  17  18
ENDBRANCH  16  17
ENDBRANCH  15  16
BRANCH  11  27
HETATM   27  N3  UNL     1      20.345   2.064  52.990  1.00  0.00    -0.340 N 
HETATM   28  H5  UNL     1      20.138   2.676  53.791  1.00  0.00     0.167 HD
BRANCH  27  29
HETATM   29  C8  UNL     1      20.502   0.728  53.435  1.00  0.00     0.035 A 
HETATM   30  C9  UNL     1      19.602  -0.278  53.190  1.00  0.00     0.029 A 
HETATM   31  C10 UNL     1      19.736  -1.583  53.602  1.00  0.00     0.004 A 
HETATM   32  C11 UNL     1      20.847  -1.951  54.320  1.00  0.00     0.024 A 
HETATM   33  C12 UNL     1      21.783  -1.005  54.603  1.00  0.00     0.036 A 
HETATM   34 CL1  UNL     1      23.215  -1.435  55.516  1.00  0.00    -0.084 Cl
HETATM   35  C13 UNL     1      21.595   0.267  54.168  1.00  0.00     0.053 A 
ENDBRANCH  27  29
ENDBRANCH  11  27
TORSDOF 5
ENDMDL
MODEL 4
REMARK VINA RESULT:      -9.3      1.991      5.260
REMARK  5 active torsions:
REMARK  status: ('A' for Active; 'I' for Inactive)
REMARK    1  A    between atoms: C7_11  and  N3_12 
REMARK    2  A    between atoms: N3_12  and  C8_13 
REMARK    3  A    between atoms: N4_23  and  C17_24 
REMARK    4  A    between atoms: C17_24  and  C18_25 
REMARK    5  A    between atoms: C18_25  and  C19_26 
ROOT
HETATM    1  O1  UNL     1      21.990  -1.385  55.284  1.00  0.00    -0.271 OA
HETATM    2  C1  UNL     1      21.624  -0.814  54.205  1.00  0.00     0.248 C 
HETATM    3  C2  UNL     1      20.237  -1.106  53.758  1.00  0.00     0.279 C 
HETATM    4  O2  UNL     1      19.981  -0.588  52.480  1.00  0.00    -0.340 OA
HETATM    5  C3  UNL     1      20.908   0.246  51.830  1.00  0.00     0.098 A 
HETATM    6  C4  UNL     1      20.522   0.770  50.623  1.00  0.00     0.071 A 
HETATM    7  C5  UNL     1      21.413   1.589  49.966  1.00  0.00     0.075 A 
HETATM    8  N1  UNL     1      20.974   2.072  48.774  1.00  0.00    -0.241 NA
HETATM    9  C6  UNL     1      21.738   2.872  48.027  1.00  0.00     0.236 A 
HETATM   10  N2  UNL     1      22.947   3.174  48.508  1.00  0.00    -0.224 NA
HETATM   11  C7  UNL     1      23.474   2.756  49.660  1.00  0.00     0.142 A 
HETATM   12  C14 UNL     1      22.680   1.929  50.425  1.00  0.00     0.041 A 
HETATM   13  C15 UNL     1      23.025   1.381  51.639  1.00  0.00     0.050 A 
HETATM   14  C16 UNL     1      22.155   0.558  52.319  1.00  0.00     0.071 A 
HETATM   15  N4  UNL     1      22.598   0.039  53.561  1.00  0.00    -0.314 N 
ENDROOT
BRANCH  15  16
HETATM   16  C17 UNL     1      23.878   0.277  54.207  1.00  0.00     0.134 C 
BRANCH  16  17
HETATM   17  C18 UNL     1      24.905  -0.532  53.492  1.00  0.00     0.045 C 
BRANCH  17  18
HETATM   18  C19 UNL     1      26.289   0.067  53.436  1.00  0.00     0.078 C 
HETATM   19  C20 UNL     1      26.226   1.523  53.128  1.00  0.00     0.027 C 
HETATM   20  C21 UNL     1      27.532   2.087  52.627  1.00  0.00     0.028 C 
HETATM   21  C22 UNL     1      28.608   2.131  53.660  1.00  0.00     0.167 C 
HETATM   22  O3  UNL     1      29.501   1.063  53.438  1.00  0.00    -0.390 OA
HETATM   23  C23 UNL     1      29.105  -0.039  54.190  1.00  0.00     0.186 C 
HETATM   24  C24 UNL     1      28.449  -1.040  53.302  1.00  0.00     0.140 C 
HETATM   25  N5  UNL     1      27.234  -0.673  52.692  1.00  0.00    -0.415 N 
HETATM   26  H26 UNL     1      27.053  -0.908  51.724  1.00  0.00     0.153 HD
ENDBRANCH  17  18
ENDBRANCH  16  17
ENDBRANCH  15  16
BRANCH  11  27
HETATM   27  N3  UNL     1      24.754   3.088  50.136  1.00  0.00    -0.340 N 
HETATM   28  H5  UNL     1      25.216   2.613  50.924  1.00  0.00     0.167 HD
BRANCH  27  29
HETATM   29  C8  UNL     1      25.601   4.104  49.628  1.00  0.00     0.035 A 
HETATM   30  C9  UNL     1      26.863   3.885  49.140  1.00  0.00     0.029 A 
HETATM   31  C10 UNL     1      27.700   4.851  48.632  1.00  0.00     0.004 A 
HETATM   32  C11 UNL     1      27.273   6.156  48.591  1.00  0.00     0.024 A 
HETATM   33  C12 UNL     1      26.030   6.450  49.059  1.00  0.00     0.036 A 
HETATM   34 CL1  UNL     1      25.449   8.102  49.024  1.00  0.00    -0.084 Cl
HETATM   35  C13 UNL     1      25.251   5.453  49.548  1.00  0.00     0.053 A 
ENDBRANCH  27  29
ENDBRANCH  11  27
TORSDOF 5
ENDMDL
MODEL 5
REMARK VINA RESULT:      -9.1      2.930      5.793
REMARK  5 active torsions:
REMARK  status: ('A' for Active; 'I' for Inactive)
REMARK    1  A    between atoms: C7_11  and  N3_12 
REMARK    2  A    between atoms: N3_12  and  C8_13 
REMARK    3  A    between atoms: N4_23  and  C17_24 
REMARK    4  A    between atoms: C17_24  and  C18_25 
REMARK    5  A    between atoms: C18_25  and  C19_26 
ROOT
HETATM    1  O1  UNL     1      21.104   4.834  49.641  1.00  0.00    -0.271 OA
HETATM    2  C1  UNL     1      21.004   3.934  50.537  1.00  0.00     0.248 C 
HETATM    3  C2  UNL     1      19.703   3.880  51.255  1.00  0.00     0.279 C 
HETATM    4  O2  UNL     1      19.742   2.989  52.337  1.00  0.00    -0.340 OA
HETATM    5  C3  UNL     1      20.850   2.152  52.556  1.00  0.00     0.098 A 
HETATM    6  C4  UNL     1      20.749   1.257  53.591  1.00  0.00     0.071 A 
HETATM    7  C5  UNL     1      21.821   0.426  53.825  1.00  0.00     0.075 A 
HETATM    8  N1  UNL     1      21.663  -0.434  54.866  1.00  0.00    -0.241 NA
HETATM    9  C6  UNL     1      22.626  -1.291  55.210  1.00  0.00     0.236 A 
HETATM   10  N2  UNL     1      23.747  -1.263  54.483  1.00  0.00    -0.224 NA
HETATM   11  C7  UNL     1      24.006  -0.464  53.447  1.00  0.00     0.142 A 
HETATM   12  C14 UNL     1      23.007   0.420  53.099  1.00  0.00     0.041 A 
HETATM   13  C15 UNL     1      23.064   1.334  52.072  1.00  0.00     0.050 A 
HETATM   14  C16 UNL     1      22.007   2.178  51.813  1.00  0.00     0.071 A 
HETATM   15  N4  UNL     1      22.158   3.087  50.736  1.00  0.00    -0.314 N 
ENDROOT
BRANCH  15  16
HETATM   16  C17 UNL     1      23.311   3.232  49.864  1.00  0.00     0.134 C 
BRANCH  16  17
HETATM   17  C18 UNL     1      24.366   3.962  50.622  1.00  0.00     0.045 C 
BRANCH  17  18
HETATM   18  C19 UNL     1      24.769   5.303  50.060  1.00  0.00     0.078 C 
HETATM   19  C20 UNL     1      25.902   5.159  49.104  1.00  0.00     0.027 C 
HETATM   20  C21 UNL     1      26.637   6.451  48.845  1.00  0.00     0.028 C 
HETATM   21  C22 UNL     1      25.840   7.460  48.088  1.00  0.00     0.167 C 
HETATM   22  O3  UNL     1      25.360   8.434  48.986  1.00  0.00    -0.390 OA
HETATM   23  C23 UNL     1      24.094   8.071  49.435  1.00  0.00     0.186 C 
HETATM   24  C24 UNL     1      24.190   7.536  50.824  1.00  0.00     0.140 C 
HETATM   25  N5  UNL     1      24.903   6.337  51.012  1.00  0.00    -0.415 N 
HETATM   26  H26 UNL     1      25.528   6.228  51.801  1.00  0.00     0.153 HD
ENDBRANCH  17  18
ENDBRANCH  16  17
ENDBRANCH  15  16
BRANCH  11  27
HETATM   27  N3  UNL     1      25.200  -0.455  52.706  1.00  0.00    -0.340 N 
HETATM   28  H5  UNL     1      25.309  -0.903  51.786  1.00  0.00     0.167 HD
BRANCH  27  29
HETATM   29  C8  UNL     1      26.420   0.155  53.089  1.00  0.00     0.035 A 
HETATM   30  C9  UNL     1      26.568   1.495  53.340  1.00  0.00     0.029 A 
HETATM   31  C10 UNL     1      27.738   2.109  53.723  1.00  0.00     0.004 A 
HETATM   32  C11 UNL     1      28.874   1.354  53.878  1.00  0.00     0.024 A 
HETATM   33  C12 UNL     1      28.804   0.015  53.645  1.00  0.00     0.036 A 
HETATM   34 CL1  UNL     1      30.231  -0.983  53.833  1.00  0.00    -0.084 Cl
HETATM   35  C13 UNL     1      27.621  -0.533  53.270  1.00  0.00     0.053 A 
ENDBRANCH  27  29
ENDBRANCH  11  27
TORSDOF 5
ENDMDL
MODEL 6
REMARK VINA RESULT:      -9.0      1.544      1.890
REMARK  5 active torsions:
REMARK  status: ('A' for Active; 'I' for Inactive)
REMARK    1  A    between atoms: C7_11  and  N3_12 
REMARK    2  A    between atoms: N3_12  and  C8_13 
REMARK    3  A    between atoms: N4_23  and  C17_24 
REMARK    4  A    between atoms: C17_24  and  C18_25 
REMARK    5  A    between atoms: C18_25  and  C19_26 
ROOT
HETATM    1  O1  UNL     1      19.230  -0.449  53.466  1.00  0.00    -0.271 OA
HETATM    2  C1  UNL     1      20.503  -0.490  53.502  1.00  0.00     0.248 C 
HETATM    3  C2  UNL     1      21.091  -1.609  54.285  1.00  0.00     0.279 C 
HETATM    4  O2  UNL     1      22.480  -1.474  54.424  1.00  0.00    -0.340 OA
HETATM    5  C3  UNL     1      23.190  -0.475  53.735  1.00  0.00     0.098 A 
HETATM    6  C4  UNL     1      24.555  -0.486  53.871  1.00  0.00     0.071 A 
HETATM    7  C5  UNL     1      25.273   0.482  53.208  1.00  0.00     0.075 A 
HETATM    8  N1  UNL     1      26.619   0.421  53.386  1.00  0.00    -0.241 NA
HETATM    9  C6  UNL     1      27.436   1.303  52.807  1.00  0.00     0.236 A 
HETATM   10  N2  UNL     1      26.868   2.242  52.045  1.00  0.00    -0.224 NA
HETATM   11  C7  UNL     1      25.565   2.393  51.804  1.00  0.00     0.142 A 
HETATM   12  C14 UNL     1      24.728   1.480  52.407  1.00  0.00     0.041 A 
HETATM   13  C15 UNL     1      23.356   1.453  52.299  1.00  0.00     0.050 A 
HETATM   14  C16 UNL     1      22.612   0.496  52.952  1.00  0.00     0.071 A 
HETATM   15  N4  UNL     1      21.205   0.548  52.783  1.00  0.00    -0.314 N 
ENDROOT
BRANCH  15  16
HETATM   16  C17 UNL     1      20.451   1.506  51.992  1.00  0.00     0.134 C 
BRANCH  16  17
HETATM   17  C18 UNL     1      20.411   1.008  50.589  1.00  0.00     0.045 C 
BRANCH  17  18
HETATM   18  C19 UNL     1      20.830   1.998  49.530  1.00  0.00     0.078 C 
HETATM   19  C20 UNL     1      21.903   1.429  48.667  1.00  0.00     0.027 C 
HETATM   20  C21 UNL     1      22.668   2.474  47.893  1.00  0.00     0.028 C 
HETATM   21  C22 UNL     1      21.868   3.148  46.830  1.00  0.00     0.167 C 
HETATM   22  O3  UNL     1      21.474   4.420  47.288  1.00  0.00    -0.390 OA
HETATM   23  C23 UNL     1      20.222   4.332  47.890  1.00  0.00     0.186 C 
HETATM   24  C24 UNL     1      20.375   4.380  49.372  1.00  0.00     0.140 C 
HETATM   25  N5  UNL     1      21.054   3.313  49.991  1.00  0.00    -0.415 N 
HETATM   26  H26 UNL     1      21.717   3.488  50.736  1.00  0.00     0.153 HD
ENDBRANCH  17  18
ENDBRANCH  16  17
ENDBRANCH  15  16
BRANCH  11  27
HETATM   27  N3  UNL     1      24.998   3.398  51.001  1.00  0.00    -0.340 N 
HETATM   28  H5  UNL     1      23.986   3.570  50.924  1.00  0.00     0.167 HD
BRANCH  27  29
HETATM   29  C8  UNL     1      25.703   4.317  50.185  1.00  0.00     0.035 A 
HETATM   30  C9  UNL     1      26.798   3.992  49.426  1.00  0.00     0.029 A 
HETATM   31  C10 UNL     1      27.493   4.862  48.618  1.00  0.00     0.004 A 
HETATM   32  C11 UNL     1      27.090   6.172  48.537  1.00  0.00     0.024 A 
HETATM   33  C12 UNL     1      26.010   6.568  49.264  1.00  0.00     0.036 A 
HETATM   34 CL1  UNL     1      25.463   8.230  49.186  1.00  0.00    -0.084 Cl
HETATM   35  C13 UNL     1      25.365   5.662  50.042  1.00  0.00     0.053 A 
ENDBRANCH  27  29
ENDBRANCH  11  27
TORSDOF 5
ENDMDL
MODEL 7
REMARK VINA RESULT:      -8.9      4.299      7.869
REMARK  5 active torsions:
REMARK  status: ('A' for Active; 'I' for Inactive)
REMARK    1  A    between atoms: C7_11  and  N3_12 
REMARK    2  A    between atoms: N3_12  and  C8_13 
REMARK    3  A    between atoms: N4_23  and  C17_24 
REMARK    4  A    between atoms: C17_24  and  C18_25 
REMARK    5  A    between atoms: C18_25  and  C19_26 
ROOT
HETATM    1  O1  UNL     1      23.837   3.132  50.539  1.00  0.00    -0.271 OA
HETATM    2  C1  UNL     1      24.438   4.135  50.032  1.00  0.00     0.248 C 
HETATM    3  C2  UNL     1      23.605   5.351  49.831  1.00  0.00     0.279 C 
HETATM    4  O2  UNL     1      24.291   6.337  49.107  1.00  0.00    -0.340 OA
HETATM    5  C3  UNL     1      25.654   6.198  48.792  1.00  0.00     0.098 A 
HETATM    6  C4  UNL     1      26.249   7.260  48.159  1.00  0.00     0.071 A 
HETATM    7  C5  UNL     1      27.583   7.148  47.839  1.00  0.00     0.075 A 
HETATM    8  N1  UNL     1      28.114   8.229  47.209  1.00  0.00    -0.241 NA
HETATM    9  C6  UNL     1      29.394   8.254  46.835  1.00  0.00     0.236 A 
HETATM   10  N2  UNL     1      30.125   7.170  47.110  1.00  0.00    -0.224 NA
HETATM   11  C7  UNL     1      29.707   6.060  47.720  1.00  0.00     0.142 A 
HETATM   12  C14 UNL     1      28.383   6.041  48.103  1.00  0.00     0.041 A 
HETATM   13  C15 UNL     1      27.744   5.001  48.738  1.00  0.00     0.050 A 
HETATM   14  C16 UNL     1      26.411   5.084  49.070  1.00  0.00     0.071 A 
HETATM   15  N4  UNL     1      25.839   3.963  49.722  1.00  0.00    -0.314 N 
ENDROOT
BRANCH  15  16
HETATM   16  C17 UNL     1      26.504   2.722  50.082  1.00  0.00     0.134 C 
BRANCH  16  17
HETATM   17  C18 UNL     1      26.883   2.810  51.520  1.00  0.00     0.045 C 
BRANCH  17  18
HETATM   18  C19 UNL     1      27.130   1.493  52.215  1.00  0.00     0.078 C 
HETATM   19  C20 UNL     1      26.005   0.547  51.975  1.00  0.00     0.027 C 
HETATM   20  C21 UNL     1      25.958  -0.592  52.963  1.00  0.00     0.028 C 
HETATM   21  C22 UNL     1      27.086  -1.558  52.828  1.00  0.00     0.167 C 
HETATM   22  O3  UNL     1      28.030  -1.308  53.844  1.00  0.00    -0.390 OA
HETATM   23  C23 UNL     1      28.998  -0.425  53.374  1.00  0.00     0.186 C 
HETATM   24  C24 UNL     1      28.751   0.934  53.937  1.00  0.00     0.140 C 
HETATM   25  N5  UNL     1      27.568   1.593  53.553  1.00  0.00    -0.415 N 
HETATM   26  H26 UNL     1      27.020   2.105  54.233  1.00  0.00     0.153 HD
ENDBRANCH  17  18
ENDBRANCH  16  17
ENDBRANCH  15  16
BRANCH  11  27
HETATM   27  N3  UNL     1      30.501   4.933  47.991  1.00  0.00    -0.340 N 
HETATM   28  H5  UNL     1      30.165   4.099  48.491  1.00  0.00     0.167 HD
BRANCH  27  29
HETATM   29  C8  UNL     1      31.861   4.759  47.631  1.00  0.00     0.035 A 
HETATM   30  C9  UNL     1      32.285   4.062  46.528  1.00  0.00     0.029 A 
HETATM   31  C10 UNL     1      33.596   3.888  46.152  1.00  0.00     0.004 A 
HETATM   32  C11 UNL     1      34.594   4.442  46.916  1.00  0.00     0.024 A 
HETATM   33  C12 UNL     1      34.249   5.147  48.027  1.00  0.00     0.036 A 
HETATM   34 CL1  UNL     1      35.492   5.869  49.027  1.00  0.00    -0.084 Cl
HETATM   35  C13 UNL     1      32.937   5.284  48.346  1.00  0.00     0.053 A 
ENDBRANCH  27  29
ENDBRANCH  11  27
TORSDOF 5
ENDMDL
MODEL 8
REMARK VINA RESULT:      -8.7      3.033      6.569
REMARK  5 active torsions:
REMARK  status: ('A' for Active; 'I' for Inactive)
REMARK    1  A    between atoms: C7_11  and  N3_12 
REMARK    2  A    between atoms: N3_12  and  C8_13 
REMARK    3  A    between atoms: N4_23  and  C17_24 
REMARK    4  A    between atoms: C17_24  and  C18_25 
REMARK    5  A    between atoms: C18_25  and  C19_26 
ROOT
HETATM    1  O1  UNL     1      21.908   6.383  49.730  1.00  0.00    -0.271 OA
HETATM    2  C1  UNL     1      21.815   5.205  50.207  1.00  0.00     0.248 C 
HETATM    3  C2  UNL     1      20.501   4.534  50.019  1.00  0.00     0.279 C 
HETATM    4  O2  UNL     1      20.427   3.326  50.726  1.00  0.00    -0.340 OA
HETATM    5  C3  UNL     1      21.553   2.787  51.373  1.00  0.00     0.098 A 
HETATM    6  C4  UNL     1      21.394   1.558  51.961  1.00  0.00     0.071 A 
HETATM    7  C5  UNL     1      22.481   1.009  52.602  1.00  0.00     0.075 A 
HETATM    8  N1  UNL     1      22.259  -0.207  53.168  1.00  0.00    -0.241 NA
HETATM    9  C6  UNL     1      23.224  -0.851  53.827  1.00  0.00     0.236 A 
HETATM   10  N2  UNL     1      24.413  -0.246  53.901  1.00  0.00    -0.224 NA
HETATM   11  C7  UNL     1      24.738   0.940  53.384  1.00  0.00     0.142 A 
HETATM   12  C14 UNL     1      23.736   1.600  52.706  1.00  0.00     0.041 A 
HETATM   13  C15 UNL     1      23.849   2.832  52.102  1.00  0.00     0.050 A 
HETATM   14  C16 UNL     1      22.778   3.405  51.454  1.00  0.00     0.071 A 
HETATM   15  N4  UNL     1      22.989   4.677  50.863  1.00  0.00    -0.314 N 
ENDROOT
BRANCH  15  16
HETATM   16  C17 UNL     1      24.219   5.452  50.863  1.00  0.00     0.134 C 
BRANCH  16  17
HETATM   17  C18 UNL     1      25.067   4.961  49.741  1.00  0.00     0.045 C 
BRANCH  17  18
HETATM   18  C19 UNL     1      26.117   5.924  49.244  1.00  0.00     0.078 C 
HETATM   19  C20 UNL     1      27.227   5.195  48.568  1.00  0.00     0.027 C 
HETATM   20  C21 UNL     1      28.491   6.010  48.442  1.00  0.00     0.028 C 
HETATM   21  C22 UNL     1      28.379   7.159  47.498  1.00  0.00     0.167 C 
HETATM   22  O3  UNL     1      28.219   8.348  48.237  1.00  0.00    -0.390 OA
HETATM   23  C23 UNL     1      26.864   8.616  48.404  1.00  0.00     0.186 C 
HETATM   24  C24 UNL     1      26.452   8.267  49.794  1.00  0.00     0.140 C 
HETATM   25  N5  UNL     1      26.513   6.912  50.171  1.00  0.00    -0.415 N 
HETATM   26  H26 UNL     1      26.866   6.647  51.082  1.00  0.00     0.153 HD
ENDBRANCH  17  18
ENDBRANCH  16  17
ENDBRANCH  15  16
BRANCH  11  27
HETATM   27  N3  UNL     1      25.998   1.553  53.484  1.00  0.00    -0.340 N 
HETATM   28  H5  UNL     1      26.141   2.571  53.536  1.00  0.00     0.167 HD
BRANCH  27  29
HETATM   29  C8  UNL     1      27.251   0.892  53.526  1.00  0.00     0.035 A 
HETATM   30  C9  UNL     1      28.437   1.504  53.841  1.00  0.00     0.029 A 
HETATM   31  C10 UNL     1      29.663   0.883  53.899  1.00  0.00     0.004 A 
HETATM   32  C11 UNL     1      29.749  -0.461  53.628  1.00  0.00     0.024 A 
HETATM   33  C12 UNL     1      28.613  -1.135  53.306  1.00  0.00     0.036 A 
HETATM   34 CL1  UNL     1      28.681  -2.849  52.954  1.00  0.00    -0.084 Cl
HETATM   35  C13 UNL     1      27.432  -0.467  53.266  1.00  0.00     0.053 A 
ENDBRANCH  27  29
ENDBRANCH  11  27
TORSDOF 5
ENDMDL
MODEL 9
REMARK VINA RESULT:      -8.7      4.913      9.687
REMARK  5 active torsions:
REMARK  status: ('A' for Active; 'I' for Inactive)
REMARK    1  A    between atoms: C7_11  and  N3_12 
REMARK    2  A    between atoms: N3_12  and  C8_13 
REMARK    3  A    between atoms: N4_23  and  C17_24 
REMARK    4  A    between atoms: C17_24  and  C18_25 
REMARK    5  A    between atoms: C18_25  and  C19_26 
ROOT
HETATM    1  O1  UNL     1      29.880   8.196  47.159  1.00  0.00    -0.271 OA
HETATM    2  C1  UNL     1      28.715   7.729  47.379  1.00  0.00     0.248 C 
HETATM    3  C2  UNL     1      27.590   8.489  46.771  1.00  0.00     0.279 C 
HETATM    4  O2  UNL     1      26.345   8.016  47.210  1.00  0.00    -0.340 OA
HETATM    5  C3  UNL     1      26.239   6.853  47.993  1.00  0.00     0.098 A 
HETATM    6  C4  UNL     1      24.970   6.428  48.294  1.00  0.00     0.071 A 
HETATM    7  C5  UNL     1      24.839   5.292  49.059  1.00  0.00     0.075 A 
HETATM    8  N1  UNL     1      23.558   4.926  49.328  1.00  0.00    -0.241 NA
HETATM    9  C6  UNL     1      23.285   3.849  50.065  1.00  0.00     0.236 A 
HETATM   10  N2  UNL     1      24.328   3.150  50.523  1.00  0.00    -0.224 NA
HETATM   11  C7  UNL     1      25.619   3.419  50.320  1.00  0.00     0.142 A 
HETATM   12  C14 UNL     1      25.893   4.534  49.559  1.00  0.00     0.041 A 
HETATM   13  C15 UNL     1      27.147   4.997  49.232  1.00  0.00     0.050 A 
HETATM   14  C16 UNL     1      27.308   6.131  48.468  1.00  0.00     0.071 A 
HETATM   15  N4  UNL     1      28.638   6.532  48.183  1.00  0.00    -0.314 N 
ENDROOT
BRANCH  15  16
HETATM   16  C17 UNL     1      29.863   5.877  48.611  1.00  0.00     0.134 C 
BRANCH  16  17
HETATM   17  C18 UNL     1      30.318   4.993  47.502  1.00  0.00     0.045 C 
BRANCH  17  18
HETATM   18  C19 UNL     1      31.780   4.618  47.519  1.00  0.00     0.078 C 
HETATM   19  C20 UNL     1      31.991   3.277  46.908  1.00  0.00     0.027 C 
HETATM   20  C21 UNL     1      33.314   2.651  47.276  1.00  0.00     0.028 C 
HETATM   21  C22 UNL     1      34.497   3.346  46.689  1.00  0.00     0.167 C 
HETATM   22  O3  UNL     1      35.104   4.138  47.683  1.00  0.00    -0.390 OA
HETATM   23  C23 UNL     1      34.580   5.427  47.638  1.00  0.00     0.186 C 
HETATM   24  C24 UNL     1      33.617   5.615  48.760  1.00  0.00     0.140 C 
HETATM   25  N5  UNL     1      32.442   4.840  48.747  1.00  0.00    -0.415 N 
HETATM   26  H26 UNL     1      32.093   4.419  49.599  1.00  0.00     0.153 HD
ENDBRANCH  17  18
ENDBRANCH  16  17
ENDBRANCH  15  16
BRANCH  11  27
HETATM   27  N3  UNL     1      26.695   2.665  50.821  1.00  0.00    -0.340 N 
HETATM   28  H5  UNL     1      27.657   2.728  50.462  1.00  0.00     0.167 HD
BRANCH  27  29
HETATM   29  C8  UNL     1      26.637   1.719  51.873  1.00  0.00     0.035 A 
HETATM   30  C9  UNL     1      26.455   2.042  53.194  1.00  0.00     0.029 A 
HETATM   31  C10 UNL     1      26.386   1.142  54.231  1.00  0.00     0.004 A 
HETATM   32  C11 UNL     1      26.503  -0.200  53.966  1.00  0.00     0.024 A 
HETATM   33  C12 UNL     1      26.687  -0.597  52.678  1.00  0.00     0.036 A 
HETATM   34 CL1  UNL     1      26.840  -2.300  52.299  1.00  0.00    -0.084 Cl
HETATM   35  C13 UNL     1      26.747   0.339  51.697  1.00  0.00     0.053 A 
ENDBRANCH  27  29
ENDBRANCH  11  27
TORSDOF 5
ENDMDL
