MODEL 1
REMARK VINA RESULT:      -8.2      0.000      0.000
REMARK  4 active torsions:
REMARK  status: ('A' for Active; 'I' for Inactive)
REMARK    1  A    between atoms: N1_1  and  C1_2 
REMARK    2  A    between atoms: C9_11  and  C10_12 
REMARK    3  A    between atoms: C10_12  and  C11_13 
REMARK    4  A    between atoms: C14_16  and  O2_17 
ROOT
HETATM    1  C1  UNL     1      25.338   7.025  50.071  1.00  0.00     0.222 C 
HETATM    2  C2  UNL     1      25.879   5.682  49.602  1.00  0.00     0.041 C 
HETATM    3  C3  UNL     1      24.730   4.903  49.034  1.00  0.00     0.062 C 
HETATM    4  C4  UNL     1      23.952   4.324  50.174  1.00  0.00     0.040 C 
HETATM    5  C5  UNL     1      23.781   5.375  50.987  1.00  0.00    -0.032 C 
HETATM    6  C6  UNL     1      23.040   4.734  52.025  1.00  0.00     0.007 C 
HETATM    7  C7  UNL     1      21.911   4.110  52.112  1.00  0.00    -0.000 C 
HETATM    8  C8  UNL     1      20.669   3.352  52.505  1.00  0.00     0.196 C 
HETATM    9  O1  UNL     1      20.807   2.213  51.624  1.00  0.00    -0.377 OA
HETATM   10  C9  UNL     1      22.105   1.721  51.875  1.00  0.00     0.166 C 
HETATM   11  C17 UNL     1      22.999   2.151  50.713  1.00  0.00     0.122 C 
HETATM   12  N2  UNL     1      23.667   2.974  50.051  1.00  0.00    -0.266 NA
HETATM   13  C18 UNL     1      24.149   6.778  50.996  1.00  0.00     0.075 C 
ENDROOT
BRANCH  10  14
HETATM   14  C10 UNL     1      22.051   0.246  51.999  1.00  0.00     0.076 C 
BRANCH  14  15
HETATM   15  C11 UNL     1      22.919  -0.199  53.100  1.00  0.00    -0.055 A 
HETATM   16  C12 UNL     1      24.285  -0.042  53.109  1.00  0.00     0.010 A 
HETATM   17  C13 UNL     1      24.947  -0.524  54.238  1.00  0.00     0.037 A 
HETATM   18  C14 UNL     1      24.285  -1.124  55.287  1.00  0.00     0.065 A 
HETATM   19  C15 UNL     1      22.914  -1.269  55.252  1.00  0.00     0.037 A 
HETATM   20  C16 UNL     1      22.251  -0.798  54.147  1.00  0.00     0.010 A 
BRANCH  18  21
HETATM   21  O2  UNL     1      24.995  -1.587  56.386  1.00  0.00    -0.361 OA
HETATM   22  H17 UNL     1      25.991  -1.495  56.482  1.00  0.00     0.217 HD
ENDBRANCH  18  21
ENDBRANCH  14  15
ENDBRANCH  10  14
BRANCH   1  23
HETATM   23  N1  UNL     1      26.380   7.729  50.786  1.00  0.00     0.083 N 
HETATM   24  H1  UNL     1      26.321   7.498  51.797  1.00  0.00     0.313 HD
HETATM   25  H2  UNL     1      27.315   7.387  50.453  1.00  0.00     0.313 HD
ENDBRANCH   1  23
TORSDOF 4
ENDMDL
MODEL 2
REMARK VINA RESULT:      -7.9      3.280      6.261
REMARK  4 active torsions:
REMARK  status: ('A' for Active; 'I' for Inactive)
REMARK    1  A    between atoms: N1_1  and  C1_2 
REMARK    2  A    between atoms: C9_11  and  C10_12 
REMARK    3  A    between atoms: C10_12  and  C11_13 
REMARK    4  A    between atoms: C14_16  and  O2_17 
ROOT
HETATM    1  C1  UNL     1      19.664  -1.053  53.974  1.00  0.00     0.222 C 
HETATM    2  C2  UNL     1      20.940  -1.785  54.364  1.00  0.00     0.041 C 
HETATM    3  C3  UNL     1      21.886  -0.772  54.938  1.00  0.00     0.062 C 
HETATM    4  C4  UNL     1      22.519  -0.030  53.804  1.00  0.00     0.040 C 
HETATM    5  C5  UNL     1      21.470   0.310  53.043  1.00  0.00    -0.032 C 
HETATM    6  C6  UNL     1      22.163   1.004  52.006  1.00  0.00     0.007 C 
HETATM    7  C7  UNL     1      22.927   2.044  51.933  1.00  0.00    -0.000 C 
HETATM    8  C8  UNL     1      23.828   3.192  51.554  1.00  0.00     0.196 C 
HETATM    9  O1  UNL     1      24.971   2.869  52.379  1.00  0.00    -0.377 OA
HETATM   10  C9  UNL     1      25.277   1.529  52.060  1.00  0.00     0.166 C 
HETATM   11  C17 UNL     1      24.777   0.651  53.206  1.00  0.00     0.122 C 
HETATM   12  N2  UNL     1      23.898   0.070  53.879  1.00  0.00    -0.266 NA
HETATM   13  C18 UNL     1      20.031   0.131  53.082  1.00  0.00     0.075 C 
ENDROOT
BRANCH  10  14
HETATM   14  C10 UNL     1      26.740   1.394  51.874  1.00  0.00     0.076 C 
BRANCH  14  15
HETATM   15  C11 UNL     1      27.174   0.041  52.252  1.00  0.00    -0.055 A 
HETATM   16  C12 UNL     1      26.537  -1.108  51.845  1.00  0.00     0.010 A 
HETATM   17  C13 UNL     1      27.088  -2.305  52.300  1.00  0.00     0.037 A 
HETATM   18  C14 UNL     1      28.203  -2.349  53.109  1.00  0.00     0.065 A 
HETATM   19  C15 UNL     1      28.822  -1.182  53.502  1.00  0.00     0.037 A 
HETATM   20  C16 UNL     1      28.290   0.003  53.061  1.00  0.00     0.010 A 
BRANCH  18  21
HETATM   21  O2  UNL     1      28.708  -3.571  53.532  1.00  0.00    -0.361 OA
HETATM   22  H17 UNL     1      29.423  -3.663  54.232  1.00  0.00     0.217 HD
ENDBRANCH  18  21
ENDBRANCH  14  15
ENDBRANCH  10  14
BRANCH   1  23
HETATM   23  N1  UNL     1      18.801  -1.964  53.252  1.00  0.00     0.083 N 
HETATM   24  H1  UNL     1      17.901  -2.063  53.760  1.00  0.00     0.313 HD
HETATM   25  H2  UNL     1      18.574  -1.550  52.314  1.00  0.00     0.313 HD
ENDBRANCH   1  23
TORSDOF 4
ENDMDL
MODEL 3
REMARK VINA RESULT:      -7.9      3.918      6.100
REMARK  4 active torsions:
REMARK  status: ('A' for Active; 'I' for Inactive)
REMARK    1  A    between atoms: N1_1  and  C1_2 
REMARK    2  A    between atoms: C9_11  and  C10_12 
REMARK    3  A    between atoms: C10_12  and  C11_13 
REMARK    4  A    between atoms: C14_16  and  O2_17 
ROOT
HETATM    1  C1  UNL     1      17.716   0.444  50.466  1.00  0.00     0.222 C 
HETATM    2  C2  UNL     1      17.810  -0.480  51.671  1.00  0.00     0.041 C 
HETATM    3  C3  UNL     1      18.529   0.263  52.758  1.00  0.00     0.062 C 
HETATM    4  C4  UNL     1      19.995   0.219  52.461  1.00  0.00     0.040 C 
HETATM    5  C5  UNL     1      20.054   0.585  51.174  1.00  0.00    -0.032 C 
HETATM    6  C6  UNL     1      21.467   0.516  50.988  1.00  0.00     0.007 C 
HETATM    7  C7  UNL     1      22.502   1.094  51.504  1.00  0.00    -0.000 C 
HETATM    8  C8  UNL     1      23.864   1.593  51.914  1.00  0.00     0.196 C 
HETATM    9  O1  UNL     1      23.828   1.234  53.315  1.00  0.00    -0.377 OA
HETATM   10  C9  UNL     1      23.489  -0.136  53.325  1.00  0.00     0.166 C 
HETATM   11  C17 UNL     1      22.019  -0.249  53.727  1.00  0.00     0.122 C 
HETATM   12  N2  UNL     1      20.788  -0.161  53.531  1.00  0.00    -0.266 NA
HETATM   13  C18 UNL     1      19.114   0.965  50.137  1.00  0.00     0.075 C 
ENDROOT
BRANCH  10  14
HETATM   14  C10 UNL     1      24.368  -0.848  54.281  1.00  0.00     0.076 C 
BRANCH  14  15
HETATM   15  C11 UNL     1      25.779  -0.581  53.963  1.00  0.00    -0.055 A 
HETATM   16  C12 UNL     1      26.401  -1.017  52.817  1.00  0.00     0.010 A 
HETATM   17  C13 UNL     1      27.745  -0.669  52.682  1.00  0.00     0.037 A 
HETATM   18  C14 UNL     1      28.421   0.066  53.632  1.00  0.00     0.065 A 
HETATM   19  C15 UNL     1      27.772   0.491  54.772  1.00  0.00     0.037 A 
HETATM   20  C16 UNL     1      26.450   0.156  54.917  1.00  0.00     0.010 A 
BRANCH  18  21
HETATM   21  O2  UNL     1      29.759   0.383  53.446  1.00  0.00    -0.361 OA
HETATM   22  H17 UNL     1      30.141   1.297  53.611  1.00  0.00     0.217 HD
ENDBRANCH  18  21
ENDBRANCH  14  15
ENDBRANCH  10  14
BRANCH   1  23
HETATM   23  N1  UNL     1      17.191  -0.301  49.341  1.00  0.00     0.083 N 
HETATM   24  H1  UNL     1      17.926  -0.939  48.977  1.00  0.00     0.313 HD
HETATM   25  H2  UNL     1      16.401  -0.908  49.672  1.00  0.00     0.313 HD
ENDBRANCH   1  23
TORSDOF 4
ENDMDL
MODEL 4
REMARK VINA RESULT:      -7.8      3.761      6.234
REMARK  4 active torsions:
REMARK  status: ('A' for Active; 'I' for Inactive)
REMARK    1  A    between atoms: N1_1  and  C1_2 
REMARK    2  A    between atoms: C9_11  and  C10_12 
REMARK    3  A    between atoms: C10_12  and  C11_13 
REMARK    4  A    between atoms: C14_16  and  O2_17 
ROOT
HETATM    1  C1  UNL     1      27.040  -0.353  53.414  1.00  0.00     0.222 C 
HETATM    2  C2  UNL     1      26.656   0.002  51.985  1.00  0.00     0.041 C 
HETATM    3  C3  UNL     1      25.714   1.169  52.044  1.00  0.00     0.062 C 
HETATM    4  C4  UNL     1      24.357   0.652  52.406  1.00  0.00     0.040 C 
HETATM    5  C5  UNL     1      24.604  -0.132  53.463  1.00  0.00    -0.032 C 
HETATM    6  C6  UNL     1      23.272  -0.569  53.732  1.00  0.00     0.007 C 
HETATM    7  C7  UNL     1      22.153  -0.001  54.044  1.00  0.00    -0.000 C 
HETATM    8  C8  UNL     1      20.740   0.379  54.406  1.00  0.00     0.196 C 
HETATM    9  O1  UNL     1      20.445   1.252  53.290  1.00  0.00    -0.377 OA
HETATM   10  C9  UNL     1      20.753   0.487  52.145  1.00  0.00     0.166 C 
HETATM   11  C17 UNL     1      22.088   0.990  51.596  1.00  0.00     0.122 C 
HETATM   12  N2  UNL     1      23.332   1.109  51.594  1.00  0.00    -0.266 NA
HETATM   13  C18 UNL     1      25.764  -0.539  54.233  1.00  0.00     0.075 C 
ENDROOT
BRANCH  10  14
HETATM   14  C10 UNL     1      19.666   0.639  51.150  1.00  0.00     0.076 C 
BRANCH  14  15
HETATM   15  C11 UNL     1      18.392   0.178  51.722  1.00  0.00    -0.055 A 
HETATM   16  C12 UNL     1      18.255  -0.978  52.454  1.00  0.00     0.010 A 
HETATM   17  C13 UNL     1      16.971  -1.257  52.918  1.00  0.00     0.037 A 
HETATM   18  C14 UNL     1      15.895  -0.434  52.666  1.00  0.00     0.065 A 
HETATM   19  C15 UNL     1      16.060   0.719  51.930  1.00  0.00     0.037 A 
HETATM   20  C16 UNL     1      17.319   1.006  51.467  1.00  0.00     0.010 A 
BRANCH  18  21
HETATM   21  O2  UNL     1      14.637  -0.763  53.154  1.00  0.00    -0.361 OA
HETATM   22  H17 UNL     1      14.380  -1.688  53.447  1.00  0.00     0.217 HD
ENDBRANCH  18  21
ENDBRANCH  14  15
ENDBRANCH  10  14
BRANCH   1  23
HETATM   23  N1  UNL     1      27.802  -1.583  53.405  1.00  0.00     0.083 N 
HETATM   24  H1  UNL     1      28.316  -1.664  52.506  1.00  0.00     0.313 HD
HETATM   25  H2  UNL     1      28.526  -1.543  54.164  1.00  0.00     0.313 HD
ENDBRANCH   1  23
TORSDOF 4
ENDMDL
MODEL 5
REMARK VINA RESULT:      -7.6      2.471      3.211
REMARK  4 active torsions:
REMARK  status: ('A' for Active; 'I' for Inactive)
REMARK    1  A    between atoms: N1_1  and  C1_2 
REMARK    2  A    between atoms: C9_11  and  C10_12 
REMARK    3  A    between atoms: C10_12  and  C11_13 
REMARK    4  A    between atoms: C14_16  and  O2_17 
ROOT
HETATM    1  C1  UNL     1      25.987   5.741  49.349  1.00  0.00     0.222 C 
HETATM    2  C2  UNL     1      27.037   4.662  49.571  1.00  0.00     0.041 C 
HETATM    3  C3  UNL     1      26.379   3.333  49.342  1.00  0.00     0.062 C 
HETATM    4  C4  UNL     1      25.593   2.986  50.567  1.00  0.00     0.040 C 
HETATM    5  C5  UNL     1      24.897   4.105  50.807  1.00  0.00    -0.032 C 
HETATM    6  C6  UNL     1      24.190   3.681  51.972  1.00  0.00     0.007 C 
HETATM    7  C7  UNL     1      23.345   2.745  52.257  1.00  0.00    -0.000 C 
HETATM    8  C8  UNL     1      22.369   1.771  52.866  1.00  0.00     0.196 C 
HETATM    9  O1  UNL     1      23.081   0.539  52.603  1.00  0.00    -0.377 OA
HETATM   10  C9  UNL     1      24.371   0.749  53.133  1.00  0.00     0.166 C 
HETATM   11  C17 UNL     1      25.318   1.012  51.962  1.00  0.00     0.122 C 
HETATM   12  N2  UNL     1      25.810   1.704  51.045  1.00  0.00    -0.266 NA
HETATM   13  C18 UNL     1      24.765   5.419  50.208  1.00  0.00     0.075 C 
ENDROOT
BRANCH  10  14
HETATM   14  C10 UNL     1      24.783  -0.447  53.903  1.00  0.00     0.076 C 
BRANCH  14  15
HETATM   15  C11 UNL     1      26.238  -0.634  53.804  1.00  0.00    -0.055 A 
HETATM   16  C12 UNL     1      26.839  -1.512  52.933  1.00  0.00     0.010 A 
HETATM   17  C13 UNL     1      28.232  -1.557  52.976  1.00  0.00     0.037 A 
HETATM   18  C14 UNL     1      28.974  -0.775  53.836  1.00  0.00     0.065 A 
HETATM   19  C15 UNL     1      28.345   0.097  54.698  1.00  0.00     0.037 A 
HETATM   20  C16 UNL     1      26.975   0.151  54.665  1.00  0.00     0.010 A 
BRANCH  18  21
HETATM   21  O2  UNL     1      30.359  -0.861  53.836  1.00  0.00    -0.361 OA
HETATM   22  H17 UNL     1      30.939  -0.484  54.564  1.00  0.00     0.217 HD
ENDBRANCH  18  21
ENDBRANCH  14  15
ENDBRANCH  10  14
BRANCH   1  23
HETATM   23  N1  UNL     1      26.538   7.021  49.738  1.00  0.00     0.083 N 
HETATM   24  H1  UNL     1      26.727   7.588  48.889  1.00  0.00     0.313 HD
HETATM   25  H2  UNL     1      25.821   7.546  50.298  1.00  0.00     0.313 HD
ENDBRANCH   1  23
TORSDOF 4
ENDMDL
MODEL 6
REMARK VINA RESULT:      -7.4      1.662      1.908
REMARK  4 active torsions:
REMARK  status: ('A' for Active; 'I' for Inactive)
REMARK    1  A    between atoms: N1_1  and  C1_2 
REMARK    2  A    between atoms: C9_11  and  C10_12 
REMARK    3  A    between atoms: C10_12  and  C11_13 
REMARK    4  A    between atoms: C14_16  and  O2_17 
ROOT
HETATM    1  C1  UNL     1      25.545   8.189  49.764  1.00  0.00     0.222 C 
HETATM    2  C2  UNL     1      26.323   6.926  49.421  1.00  0.00     0.041 C 
HETATM    3  C3  UNL     1      25.349   5.929  48.867  1.00  0.00     0.062 C 
HETATM    4  C4  UNL     1      24.616   5.307  50.014  1.00  0.00     0.040 C 
HETATM    5  C5  UNL     1      24.233   6.367  50.738  1.00  0.00    -0.032 C 
HETATM    6  C6  UNL     1      23.552   5.683  51.789  1.00  0.00     0.007 C 
HETATM    7  C7  UNL     1      22.537   4.887  51.876  1.00  0.00    -0.000 C 
HETATM    8  C8  UNL     1      21.416   3.960  52.273  1.00  0.00     0.196 C 
HETATM    9  O1  UNL     1      21.786   2.804  51.487  1.00  0.00    -0.377 OA
HETATM   10  C9  UNL     1      23.132   2.553  51.828  1.00  0.00     0.166 C 
HETATM   11  C17 UNL     1      24.005   3.047  50.675  1.00  0.00     0.122 C 
HETATM   12  N2  UNL     1      24.563   3.923  49.981  1.00  0.00    -0.266 NA
HETATM   13  C18 UNL     1      24.365   7.809  50.656  1.00  0.00     0.075 C 
ENDROOT
BRANCH  10  14
HETATM   14  C10 UNL     1      23.314   1.101  52.061  1.00  0.00     0.076 C 
BRANCH  14  15
HETATM   15  C11 UNL     1      24.532   0.866  52.849  1.00  0.00    -0.055 A 
HETATM   16  C12 UNL     1      25.234   1.861  53.489  1.00  0.00     0.010 A 
HETATM   17  C13 UNL     1      26.367   1.453  54.192  1.00  0.00     0.037 A 
HETATM   18  C14 UNL     1      26.771   0.137  54.250  1.00  0.00     0.065 A 
HETATM   19  C15 UNL     1      26.049  -0.840  53.600  1.00  0.00     0.037 A 
HETATM   20  C16 UNL     1      24.931  -0.453  52.905  1.00  0.00     0.010 A 
BRANCH  18  21
HETATM   21  O2  UNL     1      27.909  -0.211  54.965  1.00  0.00    -0.361 OA
HETATM   22  H17 UNL     1      28.159   0.201  55.846  1.00  0.00     0.217 HD
ENDBRANCH  18  21
ENDBRANCH  14  15
ENDBRANCH  10  14
BRANCH   1  23
HETATM   23  N1  UNL     1      26.419   9.103  50.468  1.00  0.00     0.083 N 
HETATM   24  H1  UNL     1      27.135   9.470  49.811  1.00  0.00     0.313 HD
HETATM   25  H2  UNL     1      25.858   9.928  50.795  1.00  0.00     0.313 HD
ENDBRANCH   1  23
TORSDOF 4
ENDMDL
MODEL 7
REMARK VINA RESULT:      -7.3      2.919      7.585
REMARK  4 active torsions:
REMARK  status: ('A' for Active; 'I' for Inactive)
REMARK    1  A    between atoms: N1_1  and  C1_2 
REMARK    2  A    between atoms: C9_11  and  C10_12 
REMARK    3  A    between atoms: C10_12  and  C11_13 
REMARK    4  A    between atoms: C14_16  and  O2_17 
ROOT
HETATM    1  C1  UNL     1      21.102  -0.958  54.453  1.00  0.00     0.222 C 
HETATM    2  C2  UNL     1      22.255  -1.519  53.632  1.00  0.00     0.041 C 
HETATM    3  C3  UNL     1      23.443  -0.629  53.852  1.00  0.00     0.062 C 
HETATM    4  C4  UNL     1      23.276   0.590  53.001  1.00  0.00     0.040 C 
HETATM    5  C5  UNL     1      22.022   0.978  53.272  1.00  0.00    -0.032 C 
HETATM    6  C6  UNL     1      21.959   2.128  52.430  1.00  0.00     0.007 C 
HETATM    7  C7  UNL     1      22.597   3.248  52.336  1.00  0.00    -0.000 C 
HETATM    8  C8  UNL     1      23.156   4.606  51.996  1.00  0.00     0.196 C 
HETATM    9  O1  UNL     1      24.524   4.228  51.717  1.00  0.00    -0.377 OA
HETATM   10  C9  UNL     1      24.424   3.191  50.766  1.00  0.00     0.166 C 
HETATM   11  C17 UNL     1      24.686   1.870  51.488  1.00  0.00     0.122 C 
HETATM   12  N2  UNL     1      24.387   0.922  52.245  1.00  0.00    -0.266 NA
HETATM   13  C18 UNL     1      20.930   0.520  54.110  1.00  0.00     0.075 C 
ENDROOT
BRANCH  10  14
HETATM   14  C10 UNL     1      25.411   3.423  49.686  1.00  0.00     0.076 C 
BRANCH  14  15
HETATM   15  C11 UNL     1      25.191   4.745  49.079  1.00  0.00    -0.055 A 
HETATM   16  C12 UNL     1      23.974   5.180  48.613  1.00  0.00     0.010 A 
HETATM   17  C13 UNL     1      23.952   6.464  48.068  1.00  0.00     0.037 A 
HETATM   18  C14 UNL     1      25.076   7.258  47.995  1.00  0.00     0.065 A 
HETATM   19  C15 UNL     1      26.284   6.797  48.471  1.00  0.00     0.037 A 
HETATM   20  C16 UNL     1      26.319   5.535  49.010  1.00  0.00     0.010 A 
BRANCH  18  21
HETATM   21  O2  UNL     1      24.996   8.529  47.442  1.00  0.00    -0.361 OA
HETATM   22  H17 UNL     1      24.942   8.702  46.455  1.00  0.00     0.217 HD
ENDBRANCH  18  21
ENDBRANCH  14  15
ENDBRANCH  10  14
BRANCH   1  23
HETATM   23  N1  UNL     1      19.894  -1.684  54.124  1.00  0.00     0.083 N 
HETATM   24  H1  UNL     1      19.071  -1.069  54.275  1.00  0.00     0.313 HD
HETATM   25  H2  UNL     1      19.907  -1.925  53.103  1.00  0.00     0.313 HD
ENDBRANCH   1  23
TORSDOF 4
ENDMDL
MODEL 8
REMARK VINA RESULT:      -7.3      2.711      3.353
REMARK  4 active torsions:
REMARK  status: ('A' for Active; 'I' for Inactive)
REMARK    1  A    between atoms: N1_1  and  C1_2 
REMARK    2  A    between atoms: C9_11  and  C10_12 
REMARK    3  A    between atoms: C10_12  and  C11_13 
REMARK    4  A    between atoms: C14_16  and  O2_17 
ROOT
HETATM    1  C1  UNL     1      27.540   9.064  49.226  1.00  0.00     0.222 C 
HETATM    2  C2  UNL     1      28.178   7.718  48.914  1.00  0.00     0.041 C 
HETATM    3  C3  UNL     1      27.154   6.884  48.201  1.00  0.00     0.062 C 
HETATM    4  C4  UNL     1      26.211   6.332  49.223  1.00  0.00     0.040 C 
HETATM    5  C5  UNL     1      25.887   7.411  49.949  1.00  0.00    -0.032 C 
HETATM    6  C6  UNL     1      24.998   6.793  50.879  1.00  0.00     0.007 C 
HETATM    7  C7  UNL     1      23.882   6.143  50.808  1.00  0.00    -0.000 C 
HETATM    8  C8  UNL     1      22.608   5.369  51.025  1.00  0.00     0.196 C 
HETATM    9  O1  UNL     1      22.913   4.198  50.231  1.00  0.00    -0.377 OA
HETATM   10  C9  UNL     1      24.161   3.752  50.714  1.00  0.00     0.166 C 
HETATM   11  C17 UNL     1      25.226   4.159  49.696  1.00  0.00     0.122 C 
HETATM   12  N2  UNL     1      25.977   4.972  49.116  1.00  0.00    -0.266 NA
HETATM   13  C18 UNL     1      26.219   8.823  49.955  1.00  0.00     0.075 C 
ENDROOT
BRANCH  10  14
HETATM   14  C10 UNL     1      24.117   2.283  50.894  1.00  0.00     0.076 C 
BRANCH  14  15
HETATM   15  C11 UNL     1      25.157   1.861  51.844  1.00  0.00    -0.055 A 
HETATM   16  C12 UNL     1      26.180   0.998  51.527  1.00  0.00     0.010 A 
HETATM   17  C13 UNL     1      27.076   0.710  52.555  1.00  0.00     0.037 A 
HETATM   18  C14 UNL     1      26.956   1.249  53.818  1.00  0.00     0.065 A 
HETATM   19  C15 UNL     1      25.922   2.112  54.109  1.00  0.00     0.037 A 
HETATM   20  C16 UNL     1      25.032   2.404  53.106  1.00  0.00     0.010 A 
BRANCH  18  21
HETATM   21  O2  UNL     1      27.878   0.926  54.804  1.00  0.00    -0.361 OA
HETATM   22  H17 UNL     1      28.715   0.398  54.630  1.00  0.00     0.217 HD
ENDBRANCH  18  21
ENDBRANCH  14  15
ENDBRANCH  10  14
BRANCH   1  23
HETATM   23  N1  UNL     1      28.435   9.825  50.071  1.00  0.00     0.083 N 
HETATM   24  H1  UNL     1      28.522  10.791  49.699  1.00  0.00     0.313 HD
HETATM   25  H2  UNL     1      28.014   9.907  51.029  1.00  0.00     0.313 HD
ENDBRANCH   1  23
TORSDOF 4
ENDMDL
MODEL 9
REMARK VINA RESULT:      -7.1      2.931      6.703
REMARK  4 active torsions:
REMARK  status: ('A' for Active; 'I' for Inactive)
REMARK    1  A    between atoms: N1_1  and  C1_2 
REMARK    2  A    between atoms: C9_11  and  C10_12 
REMARK    3  A    between atoms: C10_12  and  C11_13 
REMARK    4  A    between atoms: C14_16  and  O2_17 
ROOT
HETATM    1  C1  UNL     1      26.080  -0.340  53.894  1.00  0.00     0.222 C 
HETATM    2  C2  UNL     1      26.527   0.918  53.163  1.00  0.00     0.041 C 
HETATM    3  C3  UNL     1      25.721   2.064  53.698  1.00  0.00     0.062 C 
HETATM    4  C4  UNL     1      24.372   2.027  53.051  1.00  0.00     0.040 C 
HETATM    5  C5  UNL     1      24.000   0.749  53.203  1.00  0.00    -0.032 C 
HETATM    6  C6  UNL     1      22.724   0.812  52.567  1.00  0.00     0.007 C 
HETATM    7  C7  UNL     1      21.622   1.462  52.758  1.00  0.00    -0.000 C 
HETATM    8  C8  UNL     1      20.242   2.068  52.736  1.00  0.00     0.196 C 
HETATM    9  O1  UNL     1      20.607   3.461  52.596  1.00  0.00    -0.377 OA
HETATM   10  C9  UNL     1      21.466   3.497  51.478  1.00  0.00     0.166 C 
HETATM   11  C17 UNL     1      22.897   3.647  51.995  1.00  0.00     0.122 C 
HETATM   12  N2  UNL     1      23.950   3.238  52.529  1.00  0.00    -0.266 NA
HETATM   13  C18 UNL     1      24.561  -0.456  53.785  1.00  0.00     0.075 C 
ENDROOT
BRANCH  10  14
HETATM   14  C10 UNL     1      21.085   4.631  50.605  1.00  0.00     0.076 C 
BRANCH  14  15
HETATM   15  C11 UNL     1      21.290   4.271  49.194  1.00  0.00    -0.055 A 
HETATM   16  C12 UNL     1      20.757   3.149  48.604  1.00  0.00     0.010 A 
HETATM   17  C13 UNL     1      21.056   2.968  47.255  1.00  0.00     0.037 A 
HETATM   18  C14 UNL     1      21.837   3.852  46.542  1.00  0.00     0.065 A 
HETATM   19  C15 UNL     1      22.359   4.970  47.158  1.00  0.00     0.037 A 
HETATM   20  C16 UNL     1      22.072   5.160  48.486  1.00  0.00     0.010 A 
BRANCH  18  21
HETATM   21  O2  UNL     1      22.103   3.622  45.200  1.00  0.00    -0.361 OA
HETATM   22  H17 UNL     1      22.225   2.705  44.808  1.00  0.00     0.217 HD
ENDBRANCH  18  21
ENDBRANCH  14  15
ENDBRANCH  10  14
BRANCH   1  23
HETATM   23  N1  UNL     1      26.706  -1.490  53.277  1.00  0.00     0.083 N 
HETATM   24  H1  UNL     1      25.972  -2.126  52.908  1.00  0.00     0.313 HD
HETATM   25  H2  UNL     1      27.271  -1.171  52.452  1.00  0.00     0.313 HD
ENDBRANCH   1  23
TORSDOF 4
ENDMDL
