MODEL 1
REMARK VINA RESULT:      -8.3      0.000      0.000
REMARK  6 active torsions:
REMARK  status: ('A' for Active; 'I' for Inactive)
REMARK    1  A    between atoms: C2_2  and  C3_3 
REMARK    2  A    between atoms: C6_6  and  N1_7 
REMARK    3  A    between atoms: N1_7  and  C7_8 
REMARK    4  A    between atoms: C10_13  and  N4_14 
REMARK    5  A    between atoms: N4_14  and  C11_15 
REMARK    6  A    between atoms: C17_22  and  O1_23 
ROOT
HETATM    1  C7  UNL     1      27.199   0.276  53.797  1.00  0.00     0.093 A 
HETATM    2  C8  UNL     1      28.007   0.463  54.898  1.00  0.00     0.151 A 
HETATM    3  N2  UNL     1      28.952   1.400  55.015  1.00  0.00    -0.252 NA
HETATM    4  C9  UNL     1      29.151   2.237  53.992  1.00  0.00     0.235 A 
HETATM    5  N3  UNL     1      28.411   2.132  52.877  1.00  0.00    -0.222 NA
HETATM    6  C10 UNL     1      27.458   1.177  52.774  1.00  0.00     0.157 A 
ENDROOT
BRANCH   1   7
HETATM    7  N1  UNL     1      26.202  -0.726  53.695  1.00  0.00    -0.372 N 
HETATM    8  H8  UNL     1      26.523  -1.688  53.450  1.00  0.00     0.161 HD
BRANCH   7   9
HETATM    9  C6  UNL     1      24.831  -0.418  53.919  1.00  0.00     0.161 C 
HETATM   10  C5  UNL     1      23.927  -0.788  52.797  1.00  0.00     0.002 C 
HETATM   11  C4  UNL     1      22.620  -0.675  53.006  1.00  0.00    -0.016 C 
HETATM   12  C3  UNL     1      22.224  -0.186  54.357  1.00  0.00     0.054 C 
HETATM   13  C18 UNL     1      23.017  -1.006  55.330  1.00  0.00     0.020 C 
HETATM   14  C17 UNL     1      24.320  -1.128  55.121  1.00  0.00     0.066 C 
BRANCH  12  15
HETATM   15  C2  UNL     1      20.785  -0.268  54.612  1.00  0.00    -0.024 C 
HETATM   16  C1  UNL     1      19.990  -0.350  53.540  1.00  0.00     0.008 C 
ENDBRANCH  12  15
BRANCH  14  17
HETATM   17  O1  UNL     1      24.952  -1.907  56.080  1.00  0.00    -0.363 OA
HETATM   18  H16 UNL     1      25.964  -1.988  56.149  1.00  0.00     0.217 HD
ENDBRANCH  14  17
ENDBRANCH   7   9
ENDBRANCH   1   7
BRANCH   6  19
HETATM   19  N4  UNL     1      26.676   1.075  51.577  1.00  0.00    -0.339 N 
HETATM   20  H11 UNL     1      26.554   0.206  51.012  1.00  0.00     0.167 HD
BRANCH  19  21
HETATM   21  C11 UNL     1      26.037   2.281  51.170  1.00  0.00     0.035 A 
HETATM   22  C12 UNL     1      26.487   2.989  50.091  1.00  0.00     0.029 A 
HETATM   23  C13 UNL     1      25.912   4.170  49.641  1.00  0.00     0.004 A 
HETATM   24  C14 UNL     1      24.810   4.627  50.364  1.00  0.00     0.019 A 
HETATM   25  C15 UNL     1      24.332   3.935  51.457  1.00  0.00     0.013 A 
HETATM   26 BR1  UNL     1      22.809   4.626  52.402  1.00  0.00    -0.051 Br
HETATM   27  C16 UNL     1      24.938   2.758  51.872  1.00  0.00     0.048 A 
ENDBRANCH  19  21
ENDBRANCH   6  19
TORSDOF 6
ENDMDL
MODEL 2
REMARK VINA RESULT:      -8.2      3.123      6.313
REMARK  6 active torsions:
REMARK  status: ('A' for Active; 'I' for Inactive)
REMARK    1  A    between atoms: C2_2  and  C3_3 
REMARK    2  A    between atoms: C6_6  and  N1_7 
REMARK    3  A    between atoms: N1_7  and  C7_8 
REMARK    4  A    between atoms: C10_13  and  N4_14 
REMARK    5  A    between atoms: N4_14  and  C11_15 
REMARK    6  A    between atoms: C17_22  and  O1_23 
ROOT
HETATM    1  C7  UNL     1      23.891   2.736  51.623  1.00  0.00     0.093 A 
HETATM    2  C8  UNL     1      24.081   4.045  52.010  1.00  0.00     0.151 A 
HETATM    3  N2  UNL     1      23.112   4.903  52.341  1.00  0.00    -0.252 NA
HETATM    4  C9  UNL     1      21.845   4.481  52.300  1.00  0.00     0.235 A 
HETATM    5  N3  UNL     1      21.561   3.221  51.934  1.00  0.00    -0.222 NA
HETATM    6  C10 UNL     1      22.554   2.365  51.602  1.00  0.00     0.157 A 
ENDROOT
BRANCH   1   7
HETATM    7  N1  UNL     1      24.936   1.843  51.276  1.00  0.00    -0.372 N 
HETATM    8  H8  UNL     1      25.007   1.568  50.273  1.00  0.00     0.161 HD
BRANCH   7   9
HETATM    9  C6  UNL     1      25.835   1.352  52.263  1.00  0.00     0.161 C 
HETATM   10  C5  UNL     1      26.158  -0.094  52.134  1.00  0.00     0.002 C 
HETATM   11  C4  UNL     1      27.111  -0.577  52.923  1.00  0.00    -0.016 C 
HETATM   12  C3  UNL     1      27.744   0.407  53.847  1.00  0.00     0.054 C 
HETATM   13  C18 UNL     1      28.077   1.597  52.998  1.00  0.00     0.020 C 
HETATM   14  C17 UNL     1      27.132   2.078  52.203  1.00  0.00     0.066 C 
BRANCH  12  15
HETATM   15  C2  UNL     1      28.917  -0.116  54.547  1.00  0.00    -0.024 C 
HETATM   16  C1  UNL     1      29.761  -0.863  53.829  1.00  0.00     0.008 C 
ENDBRANCH  12  15
BRANCH  14  17
HETATM   17  O1  UNL     1      27.549   3.176  51.466  1.00  0.00    -0.363 OA
HETATM   18  H16 UNL     1      27.242   4.126  51.663  1.00  0.00     0.217 HD
ENDBRANCH  14  17
ENDBRANCH   7   9
ENDBRANCH   1   7
BRANCH   6  19
HETATM   19  N4  UNL     1      22.238   1.022  51.211  1.00  0.00    -0.339 N 
HETATM   20  H11 UNL     1      22.370   0.627  50.254  1.00  0.00     0.167 HD
BRANCH  19  21
HETATM   21  C11 UNL     1      21.707   0.202  52.250  1.00  0.00     0.035 A 
HETATM   22  C12 UNL     1      22.512  -0.294  53.238  1.00  0.00     0.029 A 
HETATM   23  C13 UNL     1      22.060  -1.096  54.277  1.00  0.00     0.004 A 
HETATM   24  C14 UNL     1      20.696  -1.390  54.275  1.00  0.00     0.019 A 
HETATM   25  C15 UNL     1      19.860  -0.904  53.292  1.00  0.00     0.013 A 
HETATM   26 BR1  UNL     1      17.992  -1.351  53.356  1.00  0.00    -0.051 Br
HETATM   27  C16 UNL     1      20.353  -0.105  52.271  1.00  0.00     0.048 A 
ENDBRANCH  19  21
ENDBRANCH   6  19
TORSDOF 6
ENDMDL
MODEL 3
REMARK VINA RESULT:      -8.1      2.797      5.794
REMARK  6 active torsions:
REMARK  status: ('A' for Active; 'I' for Inactive)
REMARK    1  A    between atoms: C2_2  and  C3_3 
REMARK    2  A    between atoms: C6_6  and  N1_7 
REMARK    3  A    between atoms: N1_7  and  C7_8 
REMARK    4  A    between atoms: C10_13  and  N4_14 
REMARK    5  A    between atoms: N4_14  and  C11_15 
REMARK    6  A    between atoms: C17_22  and  O1_23 
ROOT
HETATM    1  C7  UNL     1      25.437   2.933  51.821  1.00  0.00     0.093 A 
HETATM    2  C8  UNL     1      26.114   3.107  50.633  1.00  0.00     0.151 A 
HETATM    3  N2  UNL     1      25.547   3.260  49.434  1.00  0.00    -0.252 NA
HETATM    4  C9  UNL     1      24.213   3.247  49.352  1.00  0.00     0.235 A 
HETATM    5  N3  UNL     1      23.468   3.084  50.456  1.00  0.00    -0.222 NA
HETATM    6  C10 UNL     1      24.058   2.929  51.664  1.00  0.00     0.157 A 
ENDROOT
BRANCH   1   7
HETATM    7  N1  UNL     1      26.061   2.772  53.084  1.00  0.00    -0.372 N 
HETATM    8  H8  UNL     1      25.927   3.540  53.776  1.00  0.00     0.161 HD
BRANCH   7   9
HETATM    9  C6  UNL     1      26.831   1.613  53.377  1.00  0.00     0.161 C 
HETATM   10  C5  UNL     1      26.560   0.454  52.485  1.00  0.00     0.002 C 
HETATM   11  C4  UNL     1      27.356  -0.603  52.602  1.00  0.00    -0.016 C 
HETATM   12  C3  UNL     1      28.433  -0.488  53.626  1.00  0.00     0.054 C 
HETATM   13  C18 UNL     1      29.075   0.845  53.386  1.00  0.00     0.020 C 
HETATM   14  C17 UNL     1      28.285   1.901  53.260  1.00  0.00     0.066 C 
BRANCH  12  15
HETATM   15  C2  UNL     1      29.403  -1.583  53.583  1.00  0.00    -0.024 C 
HETATM   16  C1  UNL     1      28.959  -2.759  53.129  1.00  0.00     0.008 C 
ENDBRANCH  12  15
BRANCH  14  17
HETATM   17  O1  UNL     1      28.984   3.079  53.042  1.00  0.00    -0.363 OA
HETATM   18  H16 UNL     1      29.009   3.843  53.714  1.00  0.00     0.217 HD
ENDBRANCH  14  17
ENDBRANCH   7   9
ENDBRANCH   1   7
BRANCH   6  19
HETATM   19  N4  UNL     1      23.251   2.754  52.836  1.00  0.00    -0.339 N 
HETATM   20  H11 UNL     1      23.114   3.470  53.584  1.00  0.00     0.167 HD
BRANCH  19  21
HETATM   21  C11 UNL     1      22.608   1.487  52.940  1.00  0.00     0.035 A 
HETATM   22  C12 UNL     1      23.284   0.388  53.393  1.00  0.00     0.029 A 
HETATM   23  C13 UNL     1      22.719  -0.874  53.519  1.00  0.00     0.004 A 
HETATM   24  C14 UNL     1      21.378  -0.983  53.151  1.00  0.00     0.019 A 
HETATM   25  C15 UNL     1      20.670   0.107  52.690  1.00  0.00     0.013 A 
HETATM   26 BR1  UNL     1      18.826  -0.121  52.202  1.00  0.00    -0.051 Br
HETATM   27  C16 UNL     1      21.274   1.351  52.580  1.00  0.00     0.048 A 
ENDBRANCH  19  21
ENDBRANCH   6  19
TORSDOF 6
ENDMDL
MODEL 4
REMARK VINA RESULT:      -8.0      3.062      6.268
REMARK  6 active torsions:
REMARK  status: ('A' for Active; 'I' for Inactive)
REMARK    1  A    between atoms: C2_2  and  C3_3 
REMARK    2  A    between atoms: C6_6  and  N1_7 
REMARK    3  A    between atoms: N1_7  and  C7_8 
REMARK    4  A    between atoms: C10_13  and  N4_14 
REMARK    5  A    between atoms: N4_14  and  C11_15 
REMARK    6  A    between atoms: C17_22  and  O1_23 
ROOT
HETATM    1  C7  UNL     1      23.840   2.953  51.383  1.00  0.00     0.093 A 
HETATM    2  C8  UNL     1      24.065   4.270  51.722  1.00  0.00     0.151 A 
HETATM    3  N2  UNL     1      23.117   5.176  51.975  1.00  0.00    -0.252 NA
HETATM    4  C9  UNL     1      21.837   4.800  51.899  1.00  0.00     0.235 A 
HETATM    5  N3  UNL     1      21.520   3.536  51.574  1.00  0.00    -0.222 NA
HETATM    6  C10 UNL     1      22.492   2.630  51.321  1.00  0.00     0.157 A 
ENDROOT
BRANCH   1   7
HETATM    7  N1  UNL     1      24.863   2.007  51.119  1.00  0.00    -0.372 N 
HETATM    8  H8  UNL     1      24.968   1.690  50.131  1.00  0.00     0.161 HD
BRANCH   7   9
HETATM    9  C6  UNL     1      25.698   1.523  52.164  1.00  0.00     0.161 C 
HETATM   10  C5  UNL     1      25.950   0.058  52.119  1.00  0.00     0.002 C 
HETATM   11  C4  UNL     1      26.847  -0.431  52.968  1.00  0.00    -0.016 C 
HETATM   12  C3  UNL     1      27.494   0.566  53.868  1.00  0.00     0.054 C 
HETATM   13  C18 UNL     1      27.920   1.694  52.977  1.00  0.00     0.020 C 
HETATM   14  C17 UNL     1      27.031   2.180  52.122  1.00  0.00     0.066 C 
BRANCH  12  15
HETATM   15  C2  UNL     1      28.611   0.021  54.640  1.00  0.00    -0.024 C 
HETATM   16  C1  UNL     1      29.647  -0.455  53.942  1.00  0.00     0.008 C 
ENDBRANCH  12  15
BRANCH  14  17
HETATM   17  O1  UNL     1      27.533   3.217  51.350  1.00  0.00    -0.363 OA
HETATM   18  H16 UNL     1      28.511   3.498  51.366  1.00  0.00     0.217 HD
ENDBRANCH  14  17
ENDBRANCH   7   9
ENDBRANCH   1   7
BRANCH   6  19
HETATM   19  N4  UNL     1      22.141   1.284  50.975  1.00  0.00    -0.339 N 
HETATM   20  H11 UNL     1      22.239   0.862  50.026  1.00  0.00     0.167 HD
BRANCH  19  21
HETATM   21  C11 UNL     1      21.622   0.503  52.048  1.00  0.00     0.035 A 
HETATM   22  C12 UNL     1      20.285   0.233  52.142  1.00  0.00     0.029 A 
HETATM   23  C13 UNL     1      19.714  -0.520  53.159  1.00  0.00     0.004 A 
HETATM   24  C14 UNL     1      20.593  -1.012  54.123  1.00  0.00     0.019 A 
HETATM   25  C15 UNL     1      21.947  -0.757  54.055  1.00  0.00     0.013 A 
HETATM   26 BR1  UNL     1      23.097  -1.469  55.421  1.00  0.00    -0.051 Br
HETATM   27  C16 UNL     1      22.476   0.001  53.021  1.00  0.00     0.048 A 
ENDBRANCH  19  21
ENDBRANCH   6  19
TORSDOF 6
ENDMDL
MODEL 5
REMARK VINA RESULT:      -7.9      3.098      5.191
REMARK  6 active torsions:
REMARK  status: ('A' for Active; 'I' for Inactive)
REMARK    1  A    between atoms: C2_2  and  C3_3 
REMARK    2  A    between atoms: C6_6  and  N1_7 
REMARK    3  A    between atoms: N1_7  and  C7_8 
REMARK    4  A    between atoms: C10_13  and  N4_14 
REMARK    5  A    between atoms: N4_14  and  C11_15 
REMARK    6  A    between atoms: C17_22  and  O1_23 
ROOT
HETATM    1  C7  UNL     1      24.837   2.645  52.245  1.00  0.00     0.093 A 
HETATM    2  C8  UNL     1      23.610   2.403  52.824  1.00  0.00     0.151 A 
HETATM    3  N2  UNL     1      22.457   2.260  52.164  1.00  0.00    -0.252 NA
HETATM    4  C9  UNL     1      22.468   2.356  50.831  1.00  0.00     0.235 A 
HETATM    5  N3  UNL     1      23.617   2.591  50.178  1.00  0.00    -0.222 NA
HETATM    6  C10 UNL     1      24.776   2.733  50.861  1.00  0.00     0.157 A 
ENDROOT
BRANCH   1   7
HETATM    7  N1  UNL     1      26.049   2.792  52.966  1.00  0.00    -0.372 N 
HETATM    8  H8  UNL     1      26.331   3.764  53.218  1.00  0.00     0.161 HD
BRANCH   7   9
HETATM    9  C6  UNL     1      26.832   1.659  53.319  1.00  0.00     0.161 C 
HETATM   10  C5  UNL     1      26.578   0.453  52.488  1.00  0.00     0.002 C 
HETATM   11  C4  UNL     1      27.386  -0.587  52.660  1.00  0.00    -0.016 C 
HETATM   12  C3  UNL     1      28.459  -0.407  53.680  1.00  0.00     0.054 C 
HETATM   13  C18 UNL     1      29.085   0.920  53.374  1.00  0.00     0.020 C 
HETATM   14  C17 UNL     1      28.282   1.959  53.192  1.00  0.00     0.066 C 
BRANCH  12  15
HETATM   15  C2  UNL     1      29.442  -1.490  53.695  1.00  0.00    -0.024 C 
HETATM   16  C1  UNL     1      29.039  -2.672  53.216  1.00  0.00     0.008 C 
ENDBRANCH  12  15
BRANCH  14  17
HETATM   17  O1  UNL     1      28.968   3.132  52.915  1.00  0.00    -0.363 OA
HETATM   18  H16 UNL     1      28.503   3.996  52.643  1.00  0.00     0.217 HD
ENDBRANCH  14  17
ENDBRANCH   7   9
ENDBRANCH   1   7
BRANCH   6  19
HETATM   19  N4  UNL     1      25.997   2.984  50.152  1.00  0.00    -0.339 N 
HETATM   20  H11 UNL     1      26.724   2.267  49.935  1.00  0.00     0.167 HD
BRANCH  19  21
HETATM   21  C11 UNL     1      26.183   4.333  49.733  1.00  0.00     0.035 A 
HETATM   22  C12 UNL     1      27.201   4.674  48.886  1.00  0.00     0.029 A 
HETATM   23  C13 UNL     1      27.438   5.967  48.439  1.00  0.00     0.004 A 
HETATM   24  C14 UNL     1      26.562   6.946  48.905  1.00  0.00     0.019 A 
HETATM   25  C15 UNL     1      25.526   6.632  49.760  1.00  0.00     0.013 A 
HETATM   26 BR1  UNL     1      24.359   8.036  50.361  1.00  0.00    -0.051 Br
HETATM   27  C16 UNL     1      25.325   5.327  50.182  1.00  0.00     0.048 A 
ENDBRANCH  19  21
ENDBRANCH   6  19
TORSDOF 6
ENDMDL
MODEL 6
REMARK VINA RESULT:      -7.6      2.985      5.382
REMARK  6 active torsions:
REMARK  status: ('A' for Active; 'I' for Inactive)
REMARK    1  A    between atoms: C2_2  and  C3_3 
REMARK    2  A    between atoms: C6_6  and  N1_7 
REMARK    3  A    between atoms: N1_7  and  C7_8 
REMARK    4  A    between atoms: C10_13  and  N4_14 
REMARK    5  A    between atoms: N4_14  and  C11_15 
REMARK    6  A    between atoms: C17_22  and  O1_23 
ROOT
HETATM    1  C7  UNL     1      23.559   2.303  51.279  1.00  0.00     0.093 A 
HETATM    2  C8  UNL     1      22.672   1.433  50.681  1.00  0.00     0.151 A 
HETATM    3  N2  UNL     1      22.011   1.663  49.544  1.00  0.00    -0.252 NA
HETATM    4  C9  UNL     1      22.208   2.826  48.914  1.00  0.00     0.235 A 
HETATM    5  N3  UNL     1      23.054   3.736  49.422  1.00  0.00    -0.222 NA
HETATM    6  C10 UNL     1      23.716   3.488  50.575  1.00  0.00     0.157 A 
ENDROOT
BRANCH   1   7
HETATM    7  N1  UNL     1      24.251   2.037  52.488  1.00  0.00    -0.372 N 
HETATM    8  H8  UNL     1      23.865   2.466  53.356  1.00  0.00     0.161 HD
BRANCH   7   9
HETATM    9  C6  UNL     1      25.416   1.221  52.499  1.00  0.00     0.161 C 
HETATM   10  C5  UNL     1      26.611   1.865  53.107  1.00  0.00     0.002 C 
HETATM   11  C4  UNL     1      27.684   1.104  53.293  1.00  0.00    -0.016 C 
HETATM   12  C3  UNL     1      27.548  -0.317  52.864  1.00  0.00     0.054 C 
HETATM   13  C18 UNL     1      26.249  -0.790  53.443  1.00  0.00     0.020 C 
HETATM   14  C17 UNL     1      25.178  -0.030  53.267  1.00  0.00     0.066 C 
BRANCH  12  15
HETATM   15  C2  UNL     1      28.672  -1.162  53.269  1.00  0.00    -0.024 C 
HETATM   16  C1  UNL     1      29.806  -0.534  53.596  1.00  0.00     0.008 C 
ENDBRANCH  12  15
BRANCH  14  17
HETATM   17  O1  UNL     1      24.034  -0.562  53.845  1.00  0.00    -0.363 OA
HETATM   18  H16 UNL     1      24.038  -1.420  54.393  1.00  0.00     0.217 HD
ENDBRANCH  14  17
ENDBRANCH   7   9
ENDBRANCH   1   7
BRANCH   6  19
HETATM   19  N4  UNL     1      24.617   4.468  51.107  1.00  0.00    -0.339 N 
HETATM   20  H11 UNL     1      24.603   4.829  52.086  1.00  0.00     0.167 HD
BRANCH  19  21
HETATM   21  C11 UNL     1      25.588   4.956  50.185  1.00  0.00     0.035 A 
HETATM   22  C12 UNL     1      26.539   4.127  49.658  1.00  0.00     0.029 A 
HETATM   23  C13 UNL     1      27.512   4.536  48.756  1.00  0.00     0.004 A 
HETATM   24  C14 UNL     1      27.483   5.883  48.393  1.00  0.00     0.019 A 
HETATM   25  C15 UNL     1      26.536   6.743  48.909  1.00  0.00     0.013 A 
HETATM   26 BR1  UNL     1      26.558   8.585  48.361  1.00  0.00    -0.051 Br
HETATM   27  C16 UNL     1      25.581   6.292  49.807  1.00  0.00     0.048 A 
ENDBRANCH  19  21
ENDBRANCH   6  19
TORSDOF 6
ENDMDL
MODEL 7
REMARK VINA RESULT:      -7.5      2.381      6.171
REMARK  6 active torsions:
REMARK  status: ('A' for Active; 'I' for Inactive)
REMARK    1  A    between atoms: C2_2  and  C3_3 
REMARK    2  A    between atoms: C6_6  and  N1_7 
REMARK    3  A    between atoms: N1_7  and  C7_8 
REMARK    4  A    between atoms: C10_13  and  N4_14 
REMARK    5  A    between atoms: N4_14  and  C11_15 
REMARK    6  A    between atoms: C17_22  and  O1_23 
ROOT
HETATM    1  C7  UNL     1      25.646   1.315  52.849  1.00  0.00     0.093 A 
HETATM    2  C8  UNL     1      26.627   1.987  53.547  1.00  0.00     0.151 A 
HETATM    3  N2  UNL     1      27.314   1.497  54.583  1.00  0.00    -0.252 NA
HETATM    4  C9  UNL     1      27.045   0.255  54.996  1.00  0.00     0.235 A 
HETATM    5  N3  UNL     1      26.105  -0.477  54.378  1.00  0.00    -0.222 NA
HETATM    6  C10 UNL     1      25.418   0.034  53.331  1.00  0.00     0.157 A 
ENDROOT
BRANCH   1   7
HETATM    7  N1  UNL     1      24.931   1.855  51.751  1.00  0.00    -0.372 N 
HETATM    8  H8  UNL     1      24.074   1.344  51.449  1.00  0.00     0.161 HD
BRANCH   7   9
HETATM    9  C6  UNL     1      25.374   3.041  51.101  1.00  0.00     0.161 C 
HETATM   10  C5  UNL     1      26.466   2.829  50.115  1.00  0.00     0.002 C 
HETATM   11  C4  UNL     1      26.815   3.865  49.361  1.00  0.00    -0.016 C 
HETATM   12  C3  UNL     1      26.053   5.123  49.603  1.00  0.00     0.054 C 
HETATM   13  C18 UNL     1      24.609   4.723  49.615  1.00  0.00     0.020 C 
HETATM   14  C17 UNL     1      24.258   3.685  50.359  1.00  0.00     0.066 C 
BRANCH  12  15
HETATM   15  C2  UNL     1      26.327   6.173  48.621  1.00  0.00    -0.024 C 
HETATM   16  C1  UNL     1      27.604   6.338  48.260  1.00  0.00     0.008 C 
ENDBRANCH  12  15
BRANCH  14  17
HETATM   17  O1  UNL     1      22.901   3.405  50.294  1.00  0.00    -0.363 OA
HETATM   18  H16 UNL     1      22.262   3.572  51.068  1.00  0.00     0.217 HD
ENDBRANCH  14  17
ENDBRANCH   7   9
ENDBRANCH   1   7
BRANCH   6  19
HETATM   19  N4  UNL     1      24.416  -0.758  52.679  1.00  0.00    -0.339 N 
HETATM   20  H11 UNL     1      24.596  -1.446  51.915  1.00  0.00     0.167 HD
BRANCH  19  21
HETATM   21  C11 UNL     1      23.086  -0.551  53.149  1.00  0.00     0.035 A 
HETATM   22  C12 UNL     1      22.759  -0.773  54.458  1.00  0.00     0.029 A 
HETATM   23  C13 UNL     1      21.486  -0.592  54.981  1.00  0.00     0.004 A 
HETATM   24  C14 UNL     1      20.512  -0.155  54.083  1.00  0.00     0.019 A 
HETATM   25  C15 UNL     1      20.812   0.077  52.757  1.00  0.00     0.013 A 
HETATM   26 BR1  UNL     1      19.417   0.677  51.580  1.00  0.00    -0.051 Br
HETATM   27  C16 UNL     1      22.098  -0.117  52.276  1.00  0.00     0.048 A 
ENDBRANCH  19  21
ENDBRANCH   6  19
TORSDOF 6
ENDMDL
MODEL 8
REMARK VINA RESULT:      -7.5      3.238      5.103
REMARK  6 active torsions:
REMARK  status: ('A' for Active; 'I' for Inactive)
REMARK    1  A    between atoms: C2_2  and  C3_3 
REMARK    2  A    between atoms: C6_6  and  N1_7 
REMARK    3  A    between atoms: N1_7  and  C7_8 
REMARK    4  A    between atoms: C10_13  and  N4_14 
REMARK    5  A    between atoms: N4_14  and  C11_15 
REMARK    6  A    between atoms: C17_22  and  O1_23 
ROOT
HETATM    1  C7  UNL     1      24.374   3.182  51.421  1.00  0.00     0.093 A 
HETATM    2  C8  UNL     1      24.148   3.675  50.154  1.00  0.00     0.151 A 
HETATM    3  N2  UNL     1      25.086   3.887  49.227  1.00  0.00    -0.252 NA
HETATM    4  C9  UNL     1      26.357   3.608  49.529  1.00  0.00     0.235 A 
HETATM    5  N3  UNL     1      26.675   3.124  50.741  1.00  0.00    -0.222 NA
HETATM    6  C10 UNL     1      25.713   2.915  51.669  1.00  0.00     0.157 A 
ENDROOT
BRANCH   1   7
HETATM    7  N1  UNL     1      23.362   2.965  52.389  1.00  0.00    -0.372 N 
HETATM    8  H8  UNL     1      23.448   3.488  53.287  1.00  0.00     0.161 HD
BRANCH   7   9
HETATM    9  C6  UNL     1      22.286   2.070  52.134  1.00  0.00     0.161 C 
HETATM   10  C5  UNL     1      22.254   0.878  53.023  1.00  0.00     0.002 C 
HETATM   11  C4  UNL     1      21.190   0.088  52.943  1.00  0.00    -0.016 C 
HETATM   12  C3  UNL     1      20.149   0.505  51.960  1.00  0.00     0.054 C 
HETATM   13  C18 UNL     1      19.918   1.964  52.215  1.00  0.00     0.020 C 
HETATM   14  C17 UNL     1      20.978   2.755  52.304  1.00  0.00     0.066 C 
BRANCH  12  15
HETATM   15  C2  UNL     1      18.913  -0.273  52.048  1.00  0.00    -0.024 C 
HETATM   16  C1  UNL     1      18.702  -0.935  53.190  1.00  0.00     0.008 C 
ENDBRANCH  12  15
BRANCH  14  17
HETATM   17  O1  UNL     1      20.646   4.081  52.542  1.00  0.00    -0.363 OA
HETATM   18  H16 UNL     1      20.346   4.718  51.807  1.00  0.00     0.217 HD
ENDBRANCH  14  17
ENDBRANCH   7   9
ENDBRANCH   1   7
BRANCH   6  19
HETATM   19  N4  UNL     1      26.065   2.399  52.959  1.00  0.00    -0.339 N 
HETATM   20  H11 UNL     1      25.979   2.920  53.859  1.00  0.00     0.167 HD
BRANCH  19  21
HETATM   21  C11 UNL     1      26.568   1.065  52.957  1.00  0.00     0.035 A 
HETATM   22  C12 UNL     1      25.767   0.010  52.616  1.00  0.00     0.029 A 
HETATM   23  C13 UNL     1      26.192  -1.311  52.593  1.00  0.00     0.004 A 
HETATM   24  C14 UNL     1      27.523  -1.532  52.946  1.00  0.00     0.019 A 
HETATM   25  C15 UNL     1      28.355  -0.489  53.295  1.00  0.00     0.013 A 
HETATM   26 BR1  UNL     1      30.177  -0.871  53.769  1.00  0.00    -0.051 Br
HETATM   27  C16 UNL     1      27.889   0.817  53.305  1.00  0.00     0.048 A 
ENDBRANCH  19  21
ENDBRANCH   6  19
TORSDOF 6
ENDMDL
MODEL 9
REMARK VINA RESULT:      -7.4      3.293      5.597
REMARK  6 active torsions:
REMARK  status: ('A' for Active; 'I' for Inactive)
REMARK    1  A    between atoms: C2_2  and  C3_3 
REMARK    2  A    between atoms: C6_6  and  N1_7 
REMARK    3  A    between atoms: N1_7  and  C7_8 
REMARK    4  A    between atoms: C10_13  and  N4_14 
REMARK    5  A    between atoms: N4_14  and  C11_15 
REMARK    6  A    between atoms: C17_22  and  O1_23 
ROOT
HETATM    1  C7  UNL     1      23.561   2.347  51.683  1.00  0.00     0.093 A 
HETATM    2  C8  UNL     1      22.395   1.656  51.933  1.00  0.00     0.151 A 
HETATM    3  N2  UNL     1      21.231   2.206  52.289  1.00  0.00    -0.252 NA
HETATM    4  C9  UNL     1      21.166   3.534  52.421  1.00  0.00     0.235 A 
HETATM    5  N3  UNL     1      22.252   4.291  52.199  1.00  0.00    -0.222 NA
HETATM    6  C10 UNL     1      23.424   3.719  51.839  1.00  0.00     0.157 A 
ENDROOT
BRANCH   1   7
HETATM    7  N1  UNL     1      24.786   1.741  51.306  1.00  0.00    -0.372 N 
HETATM    8  H8  UNL     1      24.965   1.637  50.284  1.00  0.00     0.161 HD
BRANCH   7   9
HETATM    9  C6  UNL     1      25.717   1.301  52.288  1.00  0.00     0.161 C 
HETATM   10  C5  UNL     1      26.083  -0.137  52.186  1.00  0.00     0.002 C 
HETATM   11  C4  UNL     1      27.064  -0.572  52.969  1.00  0.00    -0.016 C 
HETATM   12  C3  UNL     1      27.680   0.453  53.859  1.00  0.00     0.054 C 
HETATM   13  C18 UNL     1      27.962   1.633  52.979  1.00  0.00     0.020 C 
HETATM   14  C17 UNL     1      26.989   2.065  52.190  1.00  0.00     0.066 C 
BRANCH  12  15
HETATM   15  C2  UNL     1      28.880  -0.018  54.551  1.00  0.00    -0.024 C 
HETATM   16  C1  UNL     1      29.753  -0.725  53.826  1.00  0.00     0.008 C 
ENDBRANCH  12  15
BRANCH  14  17
HETATM   17  O1  UNL     1      27.360   3.159  51.421  1.00  0.00    -0.363 OA
HETATM   18  H16 UNL     1      26.991   4.095  51.574  1.00  0.00     0.217 HD
ENDBRANCH  14  17
ENDBRANCH   7   9
ENDBRANCH   1   7
BRANCH   6  19
HETATM   19  N4  UNL     1      24.577   4.538  51.606  1.00  0.00    -0.339 N 
HETATM   20  H11 UNL     1      25.435   4.552  52.200  1.00  0.00     0.167 HD
BRANCH  19  21
HETATM   21  C11 UNL     1      24.495   5.380  50.459  1.00  0.00     0.035 A 
HETATM   22  C12 UNL     1      23.880   4.954  49.314  1.00  0.00     0.029 A 
HETATM   23  C13 UNL     1      23.765   5.721  48.163  1.00  0.00     0.004 A 
HETATM   24  C14 UNL     1      24.323   6.998  48.221  1.00  0.00     0.019 A 
HETATM   25  C15 UNL     1      24.949   7.456  49.361  1.00  0.00     0.013 A 
HETATM   26 BR1  UNL     1      25.695   9.227  49.365  1.00  0.00    -0.051 Br
HETATM   27  C16 UNL     1      25.042   6.655  50.489  1.00  0.00     0.048 A 
ENDBRANCH  19  21
ENDBRANCH   6  19
TORSDOF 6
ENDMDL
