MODEL 1
REMARK VINA RESULT:      -8.3      0.000      0.000
REMARK  8 active torsions:
REMARK  status: ('A' for Active; 'I' for Inactive)
REMARK    1  A    between atoms: C4_4  and  C5_5 
REMARK       I    between atoms: C5_5  and  N1_7 
REMARK    2  A    between atoms: N1_7  and  C6_8 
REMARK    3  A    between atoms: C6_8  and  C7_9 
REMARK    4  A    between atoms: C7_9  and  O2_10 
REMARK    5  A    between atoms: C7_9  and  C8_11 
REMARK    6  A    between atoms: C8_11  and  O3_12 
REMARK    7  A    between atoms: C10_14  and  C11_15 
REMARK    8  A    between atoms: C12_16  and  C13_17 
ROOT
HETATM    1  C1  UNL     1      27.273  -0.875  52.655  1.00  0.00     0.049 C 
HETATM    2  C2  UNL     1      26.560   0.400  52.564  1.00  0.00    -0.043 C 
HETATM    3  C3  UNL     1      27.038   1.619  52.340  1.00  0.00    -0.002 C 
HETATM    4  C4  UNL     1      26.207   2.289  51.543  1.00  0.00     0.044 C 
HETATM    5  C9  UNL     1      24.953   1.753  52.048  1.00  0.00     0.025 C 
HETATM    6  C10 UNL     1      25.092   0.578  52.697  1.00  0.00    -0.049 C 
ENDROOT
BRANCH   4   7
HETATM    7  C5  UNL     1      26.351   3.258  50.479  1.00  0.00     0.252 C 
HETATM    8  O1  UNL     1      26.893   2.840  49.434  1.00  0.00    -0.268 OA
HETATM    9  N1  UNL     1      25.924   4.593  50.568  1.00  0.00    -0.354 N 
HETATM   10  H4  UNL     1      25.497   4.771  51.531  1.00  0.00     0.162 HD
BRANCH   9  11
HETATM   11  C6  UNL     1      25.949   5.694  49.675  1.00  0.00     0.156 C 
BRANCH  11  12
HETATM   12  C7  UNL     1      25.461   7.009  50.122  1.00  0.00     0.159 C 
BRANCH  12  13
HETATM   13  O2  UNL     1      26.356   7.771  50.874  1.00  0.00    -0.392 OA
HETATM   14  H8  UNL     1      25.956   8.287  51.592  1.00  0.00     0.210 HD
ENDBRANCH  12  13
BRANCH  12  15
HETATM   15  C8  UNL     1      24.159   7.020  50.837  1.00  0.00     0.197 C 
BRANCH  15  16
HETATM   16  O3  UNL     1      24.468   6.740  52.199  1.00  0.00    -0.398 OA
HETATM   17  H11 UNL     1      24.290   7.588  52.711  1.00  0.00     0.209 HD
ENDBRANCH  15  16
ENDBRANCH  12  15
ENDBRANCH  11  12
ENDBRANCH   9  11
ENDBRANCH   4   7
BRANCH   6  18
HETATM   18  C11 UNL     1      24.034  -0.261  53.322  1.00  0.00     0.015 C 
HETATM   19  C12 UNL     1      22.850   0.103  52.827  1.00  0.00     0.065 C 
BRANCH  19  20
HETATM   20  C13 UNL     1      21.434  -0.176  52.892  1.00  0.00    -0.052 A 
HETATM   21  C14 UNL     1      20.476  -0.796  53.685  1.00  0.00     0.009 A 
HETATM   22  C15 UNL     1      19.136  -0.903  53.416  1.00  0.00     0.024 A 
HETATM   23  C16 UNL     1      18.783  -0.318  52.231  1.00  0.00     0.034 A 
HETATM   24 CL1  UNL     1      17.043  -0.509  51.971  1.00  0.00    -0.084 Cl
HETATM   25  C17 UNL     1      19.608   0.329  51.342  1.00  0.00     0.024 A 
HETATM   26  C18 UNL     1      20.958   0.383  51.714  1.00  0.00     0.009 A 
ENDBRANCH  19  20
ENDBRANCH   6  18
TORSDOF 8
ENDMDL
MODEL 2
REMARK VINA RESULT:      -8.2      4.838      8.247
REMARK  8 active torsions:
REMARK  status: ('A' for Active; 'I' for Inactive)
REMARK    1  A    between atoms: C4_4  and  C5_5 
REMARK       I    between atoms: C5_5  and  N1_7 
REMARK    2  A    between atoms: N1_7  and  C6_8 
REMARK    3  A    between atoms: C6_8  and  C7_9 
REMARK    4  A    between atoms: C7_9  and  O2_10 
REMARK    5  A    between atoms: C7_9  and  C8_11 
REMARK    6  A    between atoms: C8_11  and  O3_12 
REMARK    7  A    between atoms: C10_14  and  C11_15 
REMARK    8  A    between atoms: C12_16  and  C13_17 
ROOT
HETATM    1  C1  UNL     1      22.080   1.353  50.501  1.00  0.00     0.049 C 
HETATM    2  C2  UNL     1      23.292   1.748  51.220  1.00  0.00    -0.043 C 
HETATM    3  C3  UNL     1      23.672   1.455  52.459  1.00  0.00    -0.002 C 
HETATM    4  C4  UNL     1      24.984   1.224  52.486  1.00  0.00     0.044 C 
HETATM    5  C9  UNL     1      25.389   2.204  51.491  1.00  0.00     0.025 C 
HETATM    6  C10 UNL     1      24.390   2.581  50.666  1.00  0.00    -0.049 C 
ENDROOT
BRANCH   4   7
HETATM    7  C5  UNL     1      25.861   0.329  53.207  1.00  0.00     0.252 C 
HETATM    8  O1  UNL     1      25.600  -0.887  53.103  1.00  0.00    -0.268 OA
HETATM    9  N1  UNL     1      26.950   0.755  53.987  1.00  0.00    -0.354 N 
HETATM   10  H4  UNL     1      27.012   1.821  53.967  1.00  0.00     0.162 HD
BRANCH   9  11
HETATM   11  C6  UNL     1      27.931   0.079  54.755  1.00  0.00     0.156 C 
BRANCH  11  12
HETATM   12  C7  UNL     1      29.288  -0.100  54.214  1.00  0.00     0.159 C 
BRANCH  12  13
HETATM   13  O2  UNL     1      29.798   0.967  53.475  1.00  0.00    -0.392 OA
HETATM   14  H8  UNL     1      29.143   1.628  53.198  1.00  0.00     0.210 HD
ENDBRANCH  12  13
BRANCH  12  15
HETATM   15  C8  UNL     1      29.524  -1.338  53.426  1.00  0.00     0.197 C 
BRANCH  15  16
HETATM   16  O3  UNL     1      28.301  -2.065  53.478  1.00  0.00    -0.398 OA
HETATM   17  H11 UNL     1      28.476  -2.875  54.049  1.00  0.00     0.209 HD
ENDBRANCH  15  16
ENDBRANCH  12  15
ENDBRANCH  11  12
ENDBRANCH   9  11
ENDBRANCH   4   7
BRANCH   6  18
HETATM   18  C11 UNL     1      24.444   3.539  49.530  1.00  0.00     0.015 C 
HETATM   19  C12 UNL     1      25.573   4.245  49.617  1.00  0.00     0.065 C 
BRANCH  19  20
HETATM   20  C13 UNL     1      26.336   5.291  48.977  1.00  0.00    -0.052 A 
HETATM   21  C14 UNL     1      26.216   6.583  48.477  1.00  0.00     0.009 A 
HETATM   22  C15 UNL     1      27.202   7.319  47.872  1.00  0.00     0.024 A 
HETATM   23  C16 UNL     1      28.392   6.651  47.789  1.00  0.00     0.034 A 
HETATM   24 CL1  UNL     1      29.595   7.677  46.994  1.00  0.00    -0.084 Cl
HETATM   25  C17 UNL     1      28.667   5.379  48.234  1.00  0.00     0.024 A 
HETATM   26  C18 UNL     1      27.591   4.714  48.837  1.00  0.00     0.009 A 
ENDBRANCH  19  20
ENDBRANCH   6  18
TORSDOF 8
ENDMDL
MODEL 3
REMARK VINA RESULT:      -8.1      3.585      5.217
REMARK  8 active torsions:
REMARK  status: ('A' for Active; 'I' for Inactive)
REMARK    1  A    between atoms: C4_4  and  C5_5 
REMARK       I    between atoms: C5_5  and  N1_7 
REMARK    2  A    between atoms: N1_7  and  C6_8 
REMARK    3  A    between atoms: C6_8  and  C7_9 
REMARK    4  A    between atoms: C7_9  and  O2_10 
REMARK    5  A    between atoms: C7_9  and  C8_11 
REMARK    6  A    between atoms: C8_11  and  O3_12 
REMARK    7  A    between atoms: C10_14  and  C11_15 
REMARK    8  A    between atoms: C12_16  and  C13_17 
ROOT
HETATM    1  C1  UNL     1      22.657   2.600  52.482  1.00  0.00     0.049 C 
HETATM    2  C2  UNL     1      23.115   1.243  52.784  1.00  0.00    -0.043 C 
HETATM    3  C3  UNL     1      24.185   0.595  52.338  1.00  0.00    -0.002 C 
HETATM    4  C4  UNL     1      24.720  -0.124  53.324  1.00  0.00     0.044 C 
HETATM    5  C9  UNL     1      23.489  -0.511  53.994  1.00  0.00     0.025 C 
HETATM    6  C10 UNL     1      22.444   0.292  53.707  1.00  0.00    -0.049 C 
ENDROOT
BRANCH   4   7
HETATM    7  C5  UNL     1      26.060  -0.488  53.728  1.00  0.00     0.252 C 
HETATM    8  O1  UNL     1      26.448  -1.619  53.368  1.00  0.00    -0.268 OA
HETATM    9  N1  UNL     1      26.908   0.345  54.478  1.00  0.00    -0.354 N 
HETATM   10  H4  UNL     1      26.407   1.261  54.702  1.00  0.00     0.162 HD
BRANCH   9  11
HETATM   11  C6  UNL     1      28.231   0.213  54.969  1.00  0.00     0.156 C 
BRANCH  11  12
HETATM   12  C7  UNL     1      29.371   0.547  54.100  1.00  0.00     0.159 C 
BRANCH  12  13
HETATM   13  O2  UNL     1      29.142   1.535  53.142  1.00  0.00    -0.392 OA
HETATM   14  H8  UNL     1      28.357   2.085  53.296  1.00  0.00     0.210 HD
ENDBRANCH  12  13
BRANCH  12  15
HETATM   15  C8  UNL     1      30.031  -0.593  53.412  1.00  0.00     0.197 C 
BRANCH  15  16
HETATM   16  O3  UNL     1      29.240  -1.736  53.720  1.00  0.00    -0.398 OA
HETATM   17  H11 UNL     1      28.282  -1.468  53.569  1.00  0.00     0.209 HD
ENDBRANCH  15  16
ENDBRANCH  12  15
ENDBRANCH  11  12
ENDBRANCH   9  11
ENDBRANCH   4   7
BRANCH   6  18
HETATM   18  C11 UNL     1      21.050   0.211  54.221  1.00  0.00     0.015 C 
HETATM   19  C12 UNL     1      20.298  -0.424  53.322  1.00  0.00     0.065 C 
BRANCH  19  20
HETATM   20  C13 UNL     1      18.955  -0.884  53.054  1.00  0.00    -0.052 A 
HETATM   21  C14 UNL     1      18.027  -1.842  53.449  1.00  0.00     0.009 A 
HETATM   22  C15 UNL     1      16.770  -2.024  52.931  1.00  0.00     0.024 A 
HETATM   23  C16 UNL     1      16.472  -1.140  51.932  1.00  0.00     0.034 A 
HETATM   24 CL1  UNL     1      14.838  -1.455  51.329  1.00  0.00    -0.084 Cl
HETATM   25  C17 UNL     1      17.277  -0.143  51.433  1.00  0.00     0.024 A 
HETATM   26  C18 UNL     1      18.540  -0.042  52.032  1.00  0.00     0.009 A 
ENDBRANCH  19  20
ENDBRANCH   6  18
TORSDOF 8
ENDMDL
MODEL 4
REMARK VINA RESULT:      -8.1      3.514      5.055
REMARK  8 active torsions:
REMARK  status: ('A' for Active; 'I' for Inactive)
REMARK    1  A    between atoms: C4_4  and  C5_5 
REMARK       I    between atoms: C5_5  and  N1_7 
REMARK    2  A    between atoms: N1_7  and  C6_8 
REMARK    3  A    between atoms: C6_8  and  C7_9 
REMARK    4  A    between atoms: C7_9  and  O2_10 
REMARK    5  A    between atoms: C7_9  and  C8_11 
REMARK    6  A    between atoms: C8_11  and  O3_12 
REMARK    7  A    between atoms: C10_14  and  C11_15 
REMARK    8  A    between atoms: C12_16  and  C13_17 
ROOT
HETATM    1  C1  UNL     1      21.917   2.486  52.339  1.00  0.00     0.049 C 
HETATM    2  C2  UNL     1      22.500   1.198  52.717  1.00  0.00    -0.043 C 
HETATM    3  C3  UNL     1      23.631   0.632  52.309  1.00  0.00    -0.002 C 
HETATM    4  C4  UNL     1      24.226   0.024  53.334  1.00  0.00     0.044 C 
HETATM    5  C9  UNL     1      23.033  -0.442  54.022  1.00  0.00     0.025 C 
HETATM    6  C10 UNL     1      21.918   0.240  53.690  1.00  0.00    -0.049 C 
ENDROOT
BRANCH   4   7
HETATM    7  C5  UNL     1      25.592  -0.186  53.759  1.00  0.00     0.252 C 
HETATM    8  O1  UNL     1      25.739  -0.586  54.933  1.00  0.00    -0.268 OA
HETATM    9  N1  UNL     1      26.713   0.033  52.941  1.00  0.00    -0.354 N 
HETATM   10  H4  UNL     1      26.396   0.381  51.983  1.00  0.00     0.162 HD
BRANCH   9  11
HETATM   11  C6  UNL     1      28.110  -0.110  53.131  1.00  0.00     0.156 C 
BRANCH  11  12
HETATM   12  C7  UNL     1      28.842   0.868  53.952  1.00  0.00     0.159 C 
BRANCH  12  13
HETATM   13  O2  UNL     1      28.587   0.828  55.324  1.00  0.00    -0.392 OA
HETATM   14  H8  UNL     1      27.655   0.710  55.567  1.00  0.00     0.210 HD
ENDBRANCH  12  13
BRANCH  12  15
HETATM   15  C8  UNL     1      28.747   2.288  53.526  1.00  0.00     0.197 C 
BRANCH  15  16
HETATM   16  O3  UNL     1      27.604   2.813  54.194  1.00  0.00    -0.398 OA
HETATM   17  H11 UNL     1      27.902   3.041  55.128  1.00  0.00     0.209 HD
ENDBRANCH  15  16
ENDBRANCH  12  15
ENDBRANCH  11  12
ENDBRANCH   9  11
ENDBRANCH   4   7
BRANCH   6  18
HETATM   18  C11 UNL     1      20.535   0.053  54.206  1.00  0.00     0.015 C 
HETATM   19  C12 UNL     1      19.805  -0.552  53.268  1.00  0.00     0.065 C 
BRANCH  19  20
HETATM   20  C13 UNL     1      18.483  -1.056  52.976  1.00  0.00    -0.052 A 
HETATM   21  C14 UNL     1      17.297  -0.713  52.336  1.00  0.00     0.009 A 
HETATM   22  C15 UNL     1      16.155  -1.469  52.271  1.00  0.00     0.024 A 
HETATM   23  C16 UNL     1      16.271  -2.665  52.922  1.00  0.00     0.034 A 
HETATM   24 CL1  UNL     1      14.752  -3.564  52.785  1.00  0.00    -0.084 Cl
HETATM   25  C17 UNL     1      17.368  -3.145  53.597  1.00  0.00     0.024 A 
HETATM   26  C18 UNL     1      18.482  -2.295  53.603  1.00  0.00     0.009 A 
ENDBRANCH  19  20
ENDBRANCH   6  18
TORSDOF 8
ENDMDL
MODEL 5
REMARK VINA RESULT:      -7.9      4.296      6.765
REMARK  8 active torsions:
REMARK  status: ('A' for Active; 'I' for Inactive)
REMARK    1  A    between atoms: C4_4  and  C5_5 
REMARK       I    between atoms: C5_5  and  N1_7 
REMARK    2  A    between atoms: N1_7  and  C6_8 
REMARK    3  A    between atoms: C6_8  and  C7_9 
REMARK    4  A    between atoms: C7_9  and  O2_10 
REMARK    5  A    between atoms: C7_9  and  C8_11 
REMARK    6  A    between atoms: C8_11  and  O3_12 
REMARK    7  A    between atoms: C10_14  and  C11_15 
REMARK    8  A    between atoms: C12_16  and  C13_17 
ROOT
HETATM    1  C1  UNL     1      25.338   7.022  49.943  1.00  0.00     0.049 C 
HETATM    2  C2  UNL     1      26.298   6.283  49.123  1.00  0.00    -0.043 C 
HETATM    3  C3  UNL     1      27.188   6.739  48.249  1.00  0.00    -0.002 C 
HETATM    4  C4  UNL     1      28.319   6.041  48.350  1.00  0.00     0.044 C 
HETATM    5  C9  UNL     1      27.736   4.741  48.641  1.00  0.00     0.025 C 
HETATM    6  C10 UNL     1      26.479   4.809  49.125  1.00  0.00    -0.049 C 
ENDROOT
BRANCH   4   7
HETATM    7  C5  UNL     1      29.730   6.337  48.238  1.00  0.00     0.252 C 
HETATM    8  O1  UNL     1      30.090   6.864  47.165  1.00  0.00    -0.268 OA
HETATM    9  N1  UNL     1      30.672   6.067  49.245  1.00  0.00    -0.354 N 
HETATM   10  H4  UNL     1      30.186   5.610  50.079  1.00  0.00     0.162 HD
BRANCH   9  11
HETATM   11  C6  UNL     1      32.069   6.273  49.363  1.00  0.00     0.156 C 
BRANCH  11  12
HETATM   12  C7  UNL     1      33.000   5.431  48.594  1.00  0.00     0.159 C 
BRANCH  12  13
HETATM   13  O2  UNL     1      32.825   4.053  48.719  1.00  0.00    -0.392 OA
HETATM   14  H8  UNL     1      31.903   3.750  48.681  1.00  0.00     0.210 HD
ENDBRANCH  12  13
BRANCH  12  15
HETATM   15  C8  UNL     1      34.448   5.712  48.779  1.00  0.00     0.197 C 
BRANCH  15  16
HETATM   16  O3  UNL     1      35.040   4.462  49.117  1.00  0.00    -0.398 OA
HETATM   17  H11 UNL     1      35.968   4.473  48.727  1.00  0.00     0.209 HD
ENDBRANCH  15  16
ENDBRANCH  12  15
ENDBRANCH  11  12
ENDBRANCH   9  11
ENDBRANCH   4   7
BRANCH   6  18
HETATM   18  C11 UNL     1      25.591   3.692  49.546  1.00  0.00     0.015 C 
HETATM   19  C12 UNL     1      26.166   3.048  50.563  1.00  0.00     0.065 C 
BRANCH  19  20
HETATM   20  C13 UNL     1      25.994   1.944  51.479  1.00  0.00    -0.052 A 
HETATM   21  C14 UNL     1      26.632   0.799  51.945  1.00  0.00     0.009 A 
HETATM   22  C15 UNL     1      26.138  -0.097  52.858  1.00  0.00     0.024 A 
HETATM   23  C16 UNL     1      24.890   0.234  53.308  1.00  0.00     0.034 A 
HETATM   24 CL1  UNL     1      24.339  -0.978  54.475  1.00  0.00    -0.084 Cl
HETATM   25  C17 UNL     1      24.134   1.324  52.946  1.00  0.00     0.024 A 
HETATM   26  C18 UNL     1      24.732   2.177  52.008  1.00  0.00     0.009 A 
ENDBRANCH  19  20
ENDBRANCH   6  18
TORSDOF 8
ENDMDL
MODEL 6
REMARK VINA RESULT:      -7.8      3.824      6.144
REMARK  8 active torsions:
REMARK  status: ('A' for Active; 'I' for Inactive)
REMARK    1  A    between atoms: C4_4  and  C5_5 
REMARK       I    between atoms: C5_5  and  N1_7 
REMARK    2  A    between atoms: N1_7  and  C6_8 
REMARK    3  A    between atoms: C6_8  and  C7_9 
REMARK    4  A    between atoms: C7_9  and  O2_10 
REMARK    5  A    between atoms: C7_9  and  C8_11 
REMARK    6  A    between atoms: C8_11  and  O3_12 
REMARK    7  A    between atoms: C10_14  and  C11_15 
REMARK    8  A    between atoms: C12_16  and  C13_17 
ROOT
HETATM    1  C1  UNL     1      24.906   5.980  50.173  1.00  0.00     0.049 C 
HETATM    2  C2  UNL     1      26.030   5.776  49.259  1.00  0.00    -0.043 C 
HETATM    3  C3  UNL     1      26.600   6.633  48.419  1.00  0.00    -0.002 C 
HETATM    4  C4  UNL     1      27.921   6.457  48.421  1.00  0.00     0.044 C 
HETATM    5  C9  UNL     1      27.939   5.012  48.585  1.00  0.00     0.025 C 
HETATM    6  C10 UNL     1      26.796   4.514  49.101  1.00  0.00    -0.049 C 
ENDROOT
BRANCH   4   7
HETATM    7  C5  UNL     1      29.078   7.316  48.310  1.00  0.00     0.252 C 
HETATM    8  O1  UNL     1      29.769   7.166  47.281  1.00  0.00    -0.268 OA
HETATM    9  N1  UNL     1      29.443   8.272  49.273  1.00  0.00    -0.354 N 
HETATM   10  H4  UNL     1      28.747   8.251  50.082  1.00  0.00     0.162 HD
BRANCH   9  11
HETATM   11  C6  UNL     1      30.500   9.211  49.373  1.00  0.00     0.156 C 
BRANCH  11  12
HETATM   12  C7  UNL     1      30.289  10.600  48.931  1.00  0.00     0.159 C 
BRANCH  12  13
HETATM   13  O2  UNL     1      30.715  11.594  49.812  1.00  0.00    -0.392 OA
HETATM   14  H8  UNL     1      31.194  12.332  49.401  1.00  0.00     0.210 HD
ENDBRANCH  12  13
BRANCH  12  15
HETATM   15  C8  UNL     1      28.912  10.951  48.498  1.00  0.00     0.197 C 
BRANCH  15  16
HETATM   16  O3  UNL     1      28.134  10.990  49.690  1.00  0.00    -0.398 OA
HETATM   17  H11 UNL     1      28.034  10.036  49.994  1.00  0.00     0.209 HD
ENDBRANCH  15  16
ENDBRANCH  12  15
ENDBRANCH  11  12
ENDBRANCH   9  11
ENDBRANCH   4   7
BRANCH   6  18
HETATM   18  C11 UNL     1      26.469   3.098  49.421  1.00  0.00     0.015 C 
HETATM   19  C12 UNL     1      26.584   2.918  50.738  1.00  0.00     0.065 C 
BRANCH  19  20
HETATM   20  C13 UNL     1      26.460   1.933  51.786  1.00  0.00    -0.052 A 
HETATM   21  C14 UNL     1      27.214   1.058  52.561  1.00  0.00     0.009 A 
HETATM   22  C15 UNL     1      26.739   0.189  53.510  1.00  0.00     0.024 A 
HETATM   23  C16 UNL     1      25.380   0.245  53.650  1.00  0.00     0.034 A 
HETATM   24 CL1  UNL     1      24.864  -0.909  54.889  1.00  0.00    -0.084 Cl
HETATM   25  C17 UNL     1      24.503   1.050  52.963  1.00  0.00     0.024 A 
HETATM   26  C18 UNL     1      25.092   1.901  52.017  1.00  0.00     0.009 A 
ENDBRANCH  19  20
ENDBRANCH   6  18
TORSDOF 8
ENDMDL
MODEL 7
REMARK VINA RESULT:      -7.8      3.806      5.564
REMARK  8 active torsions:
REMARK  status: ('A' for Active; 'I' for Inactive)
REMARK    1  A    between atoms: C4_4  and  C5_5 
REMARK       I    between atoms: C5_5  and  N1_7 
REMARK    2  A    between atoms: N1_7  and  C6_8 
REMARK    3  A    between atoms: C6_8  and  C7_9 
REMARK    4  A    between atoms: C7_9  and  O2_10 
REMARK    5  A    between atoms: C7_9  and  C8_11 
REMARK    6  A    between atoms: C8_11  and  O3_12 
REMARK    7  A    between atoms: C10_14  and  C11_15 
REMARK    8  A    between atoms: C12_16  and  C13_17 
ROOT
HETATM    1  C1  UNL     1      21.544  -1.994  54.147  1.00  0.00     0.049 C 
HETATM    2  C2  UNL     1      22.565  -0.955  54.006  1.00  0.00    -0.043 C 
HETATM    3  C3  UNL     1      23.630  -0.711  54.762  1.00  0.00    -0.002 C 
HETATM    4  C4  UNL     1      24.661  -0.367  53.991  1.00  0.00     0.044 C 
HETATM    5  C9  UNL     1      23.927   0.375  52.979  1.00  0.00     0.025 C 
HETATM    6  C10 UNL     1      22.615   0.065  52.927  1.00  0.00    -0.049 C 
ENDROOT
BRANCH   4   7
HETATM    7  C5  UNL     1      26.090  -0.586  54.018  1.00  0.00     0.252 C 
HETATM    8  O1  UNL     1      26.501  -1.563  53.359  1.00  0.00    -0.268 OA
HETATM    9  N1  UNL     1      26.996   0.223  54.725  1.00  0.00    -0.354 N 
HETATM   10  H4  UNL     1      26.465   0.998  55.234  1.00  0.00     0.162 HD
BRANCH   9  11
HETATM   11  C6  UNL     1      28.404   0.211  54.885  1.00  0.00     0.156 C 
BRANCH  11  12
HETATM   12  C7  UNL     1      29.204   1.354  54.417  1.00  0.00     0.159 C 
BRANCH  12  13
HETATM   13  O2  UNL     1      29.699   2.202  55.408  1.00  0.00    -0.392 OA
HETATM   14  H8  UNL     1      29.944   3.091  55.105  1.00  0.00     0.210 HD
ENDBRANCH  12  13
BRANCH  12  15
HETATM   15  C8  UNL     1      28.582   2.209  53.372  1.00  0.00     0.197 C 
BRANCH  15  16
HETATM   16  O3  UNL     1      27.610   2.997  54.051  1.00  0.00    -0.398 OA
HETATM   17  H11 UNL     1      26.811   3.050  53.442  1.00  0.00     0.209 HD
ENDBRANCH  15  16
ENDBRANCH  12  15
ENDBRANCH  11  12
ENDBRANCH   9  11
ENDBRANCH   4   7
BRANCH   6  18
HETATM   18  C11 UNL     1      21.574   0.605  52.012  1.00  0.00     0.015 C 
HETATM   19  C12 UNL     1      22.171   1.089  50.922  1.00  0.00     0.065 C 
BRANCH  19  20
HETATM   20  C13 UNL     1      21.919   1.736  49.656  1.00  0.00    -0.052 A 
HETATM   21  C14 UNL     1      22.573   2.318  48.575  1.00  0.00     0.009 A 
HETATM   22  C15 UNL     1      21.985   2.897  47.480  1.00  0.00     0.024 A 
HETATM   23  C16 UNL     1      20.619   2.862  47.527  1.00  0.00     0.034 A 
HETATM   24 CL1  UNL     1      19.955   3.632  46.078  1.00  0.00    -0.084 Cl
HETATM   25  C17 UNL     1      19.832   2.326  48.519  1.00  0.00     0.024 A 
HETATM   26  C18 UNL     1      20.532   1.758  49.593  1.00  0.00     0.009 A 
ENDBRANCH  19  20
ENDBRANCH   6  18
TORSDOF 8
ENDMDL
MODEL 8
REMARK VINA RESULT:      -7.5      5.009      8.498
REMARK  8 active torsions:
REMARK  status: ('A' for Active; 'I' for Inactive)
REMARK    1  A    between atoms: C4_4  and  C5_5 
REMARK       I    between atoms: C5_5  and  N1_7 
REMARK    2  A    between atoms: N1_7  and  C6_8 
REMARK    3  A    between atoms: C6_8  and  C7_9 
REMARK    4  A    between atoms: C7_9  and  O2_10 
REMARK    5  A    between atoms: C7_9  and  C8_11 
REMARK    6  A    between atoms: C8_11  and  O3_12 
REMARK    7  A    between atoms: C10_14  and  C11_15 
REMARK    8  A    between atoms: C12_16  and  C13_17 
ROOT
HETATM    1  C1  UNL     1      22.598   2.004  49.424  1.00  0.00     0.049 C 
HETATM    2  C2  UNL     1      23.598   2.303  50.450  1.00  0.00    -0.043 C 
HETATM    3  C3  UNL     1      23.688   1.852  51.696  1.00  0.00    -0.002 C 
HETATM    4  C4  UNL     1      24.965   1.619  52.000  1.00  0.00     0.044 C 
HETATM    5  C9  UNL     1      25.560   2.719  51.259  1.00  0.00     0.025 C 
HETATM    6  C10 UNL     1      24.769   3.200  50.277  1.00  0.00    -0.049 C 
ENDROOT
BRANCH   4   7
HETATM    7  C5  UNL     1      25.677   0.639  52.788  1.00  0.00     0.252 C 
HETATM    8  O1  UNL     1      25.121   0.288  53.850  1.00  0.00    -0.268 OA
HETATM    9  N1  UNL     1      26.917   0.087  52.423  1.00  0.00    -0.354 N 
HETATM   10  H4  UNL     1      27.241   0.511  51.498  1.00  0.00     0.162 HD
BRANCH   9  11
HETATM   11  C6  UNL     1      27.777  -0.872  53.014  1.00  0.00     0.156 C 
BRANCH  11  12
HETATM   12  C7  UNL     1      28.706  -0.463  54.081  1.00  0.00     0.159 C 
BRANCH  12  13
HETATM   13  O2  UNL     1      28.140  -0.262  55.341  1.00  0.00    -0.392 OA
HETATM   14  H8  UNL     1      27.338   0.284  55.350  1.00  0.00     0.210 HD
ENDBRANCH  12  13
BRANCH  12  15
HETATM   15  C8  UNL     1      29.568   0.711  53.789  1.00  0.00     0.197 C 
BRANCH  15  16
HETATM   16  O3  UNL     1      29.078   1.761  54.616  1.00  0.00    -0.398 OA
HETATM   17  H11 UNL     1      29.662   2.561  54.436  1.00  0.00     0.209 HD
ENDBRANCH  15  16
ENDBRANCH  12  15
ENDBRANCH  11  12
ENDBRANCH   9  11
ENDBRANCH   4   7
BRANCH   6  18
HETATM   18  C11 UNL     1      25.056   4.297  49.315  1.00  0.00     0.015 C 
HETATM   19  C12 UNL     1      26.373   4.498  49.274  1.00  0.00     0.065 C 
BRANCH  19  20
HETATM   20  C13 UNL     1      27.403   5.303  48.658  1.00  0.00    -0.052 A 
HETATM   21  C14 UNL     1      28.739   5.264  48.275  1.00  0.00     0.009 A 
HETATM   22  C15 UNL     1      29.455   6.285  47.702  1.00  0.00     0.024 A 
HETATM   23  C16 UNL     1      28.714   7.419  47.523  1.00  0.00     0.034 A 
HETATM   24 CL1  UNL     1      29.720   8.675  46.785  1.00  0.00    -0.084 Cl
HETATM   25  C17 UNL     1      27.392   7.613  47.848  1.00  0.00     0.024 A 
HETATM   26  C18 UNL     1      26.753   6.507  48.427  1.00  0.00     0.009 A 
ENDBRANCH  19  20
ENDBRANCH   6  18
TORSDOF 8
ENDMDL
MODEL 9
REMARK VINA RESULT:      -7.4      3.106      5.077
REMARK  8 active torsions:
REMARK  status: ('A' for Active; 'I' for Inactive)
REMARK    1  A    between atoms: C4_4  and  C5_5 
REMARK       I    between atoms: C5_5  and  N1_7 
REMARK    2  A    between atoms: N1_7  and  C6_8 
REMARK    3  A    between atoms: C6_8  and  C7_9 
REMARK    4  A    between atoms: C7_9  and  O2_10 
REMARK    5  A    between atoms: C7_9  and  C8_11 
REMARK    6  A    between atoms: C8_11  and  O3_12 
REMARK    7  A    between atoms: C10_14  and  C11_15 
REMARK    8  A    between atoms: C12_16  and  C13_17 
ROOT
HETATM    1  C1  UNL     1      24.170   6.294  50.996  1.00  0.00     0.049 C 
HETATM    2  C2  UNL     1      24.969   5.718  49.913  1.00  0.00    -0.043 C 
HETATM    3  C3  UNL     1      25.710   6.329  48.995  1.00  0.00    -0.002 C 
HETATM    4  C4  UNL     1      26.830   5.638  48.786  1.00  0.00     0.044 C 
HETATM    5  C9  UNL     1      26.282   4.300  48.942  1.00  0.00     0.025 C 
HETATM    6  C10 UNL     1      25.124   4.268  49.632  1.00  0.00    -0.049 C 
ENDROOT
BRANCH   4   7
HETATM    7  C5  UNL     1      28.207   5.966  48.494  1.00  0.00     0.252 C 
HETATM    8  O1  UNL     1      29.027   5.033  48.628  1.00  0.00    -0.268 OA
HETATM    9  N1  UNL     1      28.643   7.236  48.082  1.00  0.00    -0.354 N 
HETATM   10  H4  UNL     1      27.810   7.904  48.034  1.00  0.00     0.162 HD
BRANCH   9  11
HETATM   11  C6  UNL     1      29.907   7.777  47.737  1.00  0.00     0.156 C 
BRANCH  11  12
HETATM   12  C7  UNL     1      30.845   8.178  48.798  1.00  0.00     0.159 C 
BRANCH  12  13
HETATM   13  O2  UNL     1      31.045   7.251  49.821  1.00  0.00    -0.392 OA
HETATM   14  H8  UNL     1      31.440   6.409  49.544  1.00  0.00     0.210 HD
ENDBRANCH  12  13
BRANCH  12  15
HETATM   15  C8  UNL     1      30.594   9.496  49.436  1.00  0.00     0.197 C 
BRANCH  15  16
HETATM   16  O3  UNL     1      29.336   9.371  50.090  1.00  0.00    -0.398 OA
HETATM   17  H11 UNL     1      28.919  10.287  50.080  1.00  0.00     0.209 HD
ENDBRANCH  15  16
ENDBRANCH  12  15
ENDBRANCH  11  12
ENDBRANCH   9  11
ENDBRANCH   4   7
BRANCH   6  18
HETATM   18  C11 UNL     1      24.300   3.085  49.997  1.00  0.00     0.015 C 
HETATM   19  C12 UNL     1      24.749   2.588  51.151  1.00  0.00     0.065 C 
BRANCH  19  20
HETATM   20  C13 UNL     1      24.535   1.539  52.121  1.00  0.00    -0.052 A 
HETATM   21  C14 UNL     1      25.213   0.569  52.850  1.00  0.00     0.009 A 
HETATM   22  C15 UNL     1      24.659  -0.336  53.719  1.00  0.00     0.024 A 
HETATM   23  C16 UNL     1      23.302  -0.210  53.825  1.00  0.00     0.034 A 
HETATM   24 CL1  UNL     1      22.682  -1.418  54.962  1.00  0.00    -0.084 Cl
HETATM   25  C17 UNL     1      22.494   0.692  53.175  1.00  0.00     0.024 A 
HETATM   26  C18 UNL     1      23.160   1.572  52.311  1.00  0.00     0.009 A 
ENDBRANCH  19  20
ENDBRANCH   6  18
TORSDOF 8
ENDMDL
