MODEL 1
REMARK VINA RESULT:      -9.7      0.000      0.000
REMARK  6 active torsions:
REMARK  status: ('A' for Active; 'I' for Inactive)
REMARK    1  A    between atoms: C2_2  and  O1_3 
REMARK    2  A    between atoms: O1_3  and  C3_4 
REMARK    3  A    between atoms: C7_10  and  N3_11 
REMARK    4  A    between atoms: N3_11  and  C8_12 
REMARK    5  A    between atoms: C19_23  and  N4_24 
REMARK       I    between atoms: N4_24  and  C20_25 
REMARK    6  A    between atoms: C20_25  and  C21_27 
ROOT
HETATM    1  C3  UNL     1      23.004   3.133  49.074  1.00  0.00     0.097 A 
HETATM    2  C4  UNL     1      22.141   2.118  49.487  1.00  0.00     0.071 A 
HETATM    3  C5  UNL     1      22.278   1.447  50.668  1.00  0.00     0.075 A 
HETATM    4  N1  UNL     1      21.435   0.480  51.020  1.00  0.00    -0.241 NA
HETATM    5  C6  UNL     1      21.621  -0.163  52.209  1.00  0.00     0.236 A 
HETATM    6  N2  UNL     1      22.638   0.171  53.020  1.00  0.00    -0.224 NA
HETATM    7  C7  UNL     1      23.495   1.132  52.695  1.00  0.00     0.142 A 
HETATM    8  C17 UNL     1      23.326   1.790  51.500  1.00  0.00     0.041 A 
HETATM    9  C18 UNL     1      24.162   2.793  51.068  1.00  0.00     0.050 A 
HETATM   10  C19 UNL     1      24.059   3.491  49.887  1.00  0.00     0.069 A 
ENDROOT
BRANCH   7  11
HETATM   11  N3  UNL     1      24.568   1.576  53.489  1.00  0.00    -0.340 N 
HETATM   12  H8  UNL     1      24.473   2.258  54.271  1.00  0.00     0.167 HD
BRANCH  11  13
HETATM   13  C8  UNL     1      25.878   1.082  53.231  1.00  0.00     0.033 C 
HETATM   14  C9  UNL     1      25.932  -0.253  52.996  1.00  0.00     0.030 C 
HETATM   15  C10 UNL     1      27.096  -1.128  52.693  1.00  0.00     0.005 C 
HETATM   16  C11 UNL     1      28.326  -1.019  53.230  1.00  0.00    -0.074 A 
HETATM   17  C12 UNL     1      29.771  -1.345  53.482  1.00  0.00     0.044 A 
HETATM   18  C13 UNL     1      29.050  -0.261  54.246  1.00  0.00     0.022 A 
HETATM   19  C14 UNL     1      29.347   1.136  53.973  1.00  0.00     0.036 C 
HETATM   20  C15 UNL     1      28.218   1.997  53.564  1.00  0.00    -0.024 C 
HETATM   21  C16 UNL     1      26.928   2.134  53.258  1.00  0.00     0.025 C 
ENDBRANCH  11  13
ENDBRANCH   7  11
BRANCH  10  22
HETATM   22  N4  UNL     1      24.923   4.508  49.431  1.00  0.00    -0.323 N 
HETATM   23  C20 UNL     1      25.173   5.807  49.923  1.00  0.00     0.247 C 
HETATM   24  O2  UNL     1      24.546   6.186  50.942  1.00  0.00    -0.271 OA
HETATM   25  H19 UNL     1      25.514   4.333  48.581  1.00  0.00     0.169 HD
BRANCH  23  26
HETATM   26  C21 UNL     1      26.116   6.787  49.351  1.00  0.00     0.203 C 
HETATM   27  C22 UNL     1      25.518   7.699  48.330  1.00  0.00     0.215 C 
HETATM   28  O3  UNL     1      25.220   8.861  49.044  1.00  0.00    -0.301 OA
HETATM   29  C23 UNL     1      26.248   9.056  49.955  1.00  0.00     0.361 C 
HETATM   30  O4  UNL     1      26.964   9.978  50.459  1.00  0.00    -0.238 OA
HETATM   31  N5  UNL     1      26.502   7.713  50.414  1.00  0.00    -0.321 N 
HETATM   32  H23 UNL     1      26.895   7.402  51.337  1.00  0.00     0.165 HD
ENDBRANCH  23  26
ENDBRANCH  10  22
BRANCH   1  33
HETATM   33  O1  UNL     1      22.767   3.749  47.849  1.00  0.00    -0.349 OA
BRANCH  33  34
HETATM   34  C2  UNL     1      22.006   3.056  46.872  1.00  0.00     0.171 C 
HETATM   35  C1  UNL     1      21.669   3.909  45.674  1.00  0.00     0.034 C 
ENDBRANCH  33  34
ENDBRANCH   1  33
TORSDOF 6
ENDMDL
MODEL 2
REMARK VINA RESULT:      -9.7      3.360      6.863
REMARK  6 active torsions:
REMARK  status: ('A' for Active; 'I' for Inactive)
REMARK    1  A    between atoms: C2_2  and  O1_3 
REMARK    2  A    between atoms: O1_3  and  C3_4 
REMARK    3  A    between atoms: C7_10  and  N3_11 
REMARK    4  A    between atoms: N3_11  and  C8_12 
REMARK    5  A    between atoms: C19_23  and  N4_24 
REMARK       I    between atoms: N4_24  and  C20_25 
REMARK    6  A    between atoms: C20_25  and  C21_27 
ROOT
HETATM    1  C3  UNL     1      22.961   0.418  52.232  1.00  0.00     0.097 A 
HETATM    2  C4  UNL     1      21.887   0.704  51.388  1.00  0.00     0.071 A 
HETATM    3  C5  UNL     1      21.710   1.911  50.776  1.00  0.00     0.075 A 
HETATM    4  N1  UNL     1      20.667   2.143  49.984  1.00  0.00    -0.241 NA
HETATM    5  C6  UNL     1      20.535   3.370  49.402  1.00  0.00     0.236 A 
HETATM    6  N2  UNL     1      21.443   4.335  49.619  1.00  0.00    -0.224 NA
HETATM    7  C7  UNL     1      22.494   4.133  50.404  1.00  0.00     0.142 A 
HETATM    8  C17 UNL     1      22.643   2.904  51.002  1.00  0.00     0.041 A 
HETATM    9  C18 UNL     1      23.691   2.596  51.838  1.00  0.00     0.050 A 
HETATM   10  C19 UNL     1      23.904   1.395  52.473  1.00  0.00     0.069 A 
ENDROOT
BRANCH   7  11
HETATM   11  N3  UNL     1      23.514   5.066  50.665  1.00  0.00    -0.340 N 
HETATM   12  H8  UNL     1      23.559   5.659  51.520  1.00  0.00     0.167 HD
BRANCH  11  13
HETATM   13  C8  UNL     1      24.565   5.233  49.719  1.00  0.00     0.033 C 
HETATM   14  C9  UNL     1      25.635   4.426  49.929  1.00  0.00     0.030 C 
HETATM   15  C10 UNL     1      26.910   4.305  49.172  1.00  0.00     0.005 C 
HETATM   16  C11 UNL     1      27.593   5.321  48.609  1.00  0.00    -0.074 A 
HETATM   17  C12 UNL     1      28.687   6.010  47.844  1.00  0.00     0.044 A 
HETATM   18  C13 UNL     1      27.577   6.778  48.519  1.00  0.00     0.022 A 
HETATM   19  C14 UNL     1      26.536   7.401  47.718  1.00  0.00     0.036 C 
HETATM   20  C15 UNL     1      25.141   7.004  48.000  1.00  0.00    -0.024 C 
HETATM   21  C16 UNL     1      24.273   6.253  48.678  1.00  0.00     0.025 C 
ENDBRANCH  11  13
ENDBRANCH   7  11
BRANCH  10  22
HETATM   22  N4  UNL     1      24.966   1.079  53.345  1.00  0.00    -0.323 N 
HETATM   23  C20 UNL     1      26.187   0.405  53.119  1.00  0.00     0.247 C 
HETATM   24  O2  UNL     1      26.427  -0.013  51.961  1.00  0.00    -0.271 OA
HETATM   25  H19 UNL     1      24.904   1.368  54.353  1.00  0.00     0.169 HD
BRANCH  23  26
HETATM   26  C21 UNL     1      27.231   0.138  54.127  1.00  0.00     0.203 C 
HETATM   27  C22 UNL     1      28.473  -0.486  53.580  1.00  0.00     0.215 C 
HETATM   28  O3  UNL     1      29.346   0.590  53.407  1.00  0.00    -0.301 OA
HETATM   29  C23 UNL     1      29.149   1.454  54.474  1.00  0.00     0.361 C 
HETATM   30  O4  UNL     1      29.794   2.193  55.283  1.00  0.00    -0.238 OA
HETATM   31  N5  UNL     1      27.716   1.424  54.624  1.00  0.00    -0.321 N 
HETATM   32  H23 UNL     1      27.085   2.167  55.016  1.00  0.00     0.165 HD
ENDBRANCH  23  26
ENDBRANCH  10  22
BRANCH   1  33
HETATM   33  O1  UNL     1      23.040  -0.849  52.801  1.00  0.00    -0.349 OA
BRANCH  33  34
HETATM   34  C2  UNL     1      21.944  -1.322  53.569  1.00  0.00     0.171 C 
HETATM   35  C1  UNL     1      21.917  -0.755  54.967  1.00  0.00     0.034 C 
ENDBRANCH  33  34
ENDBRANCH   1  33
TORSDOF 6
ENDMDL
MODEL 3
REMARK VINA RESULT:      -9.6      3.406      7.408
REMARK  6 active torsions:
REMARK  status: ('A' for Active; 'I' for Inactive)
REMARK    1  A    between atoms: C2_2  and  O1_3 
REMARK    2  A    between atoms: O1_3  and  C3_4 
REMARK    3  A    between atoms: C7_10  and  N3_11 
REMARK    4  A    between atoms: N3_11  and  C8_12 
REMARK    5  A    between atoms: C19_23  and  N4_24 
REMARK       I    between atoms: N4_24  and  C20_25 
REMARK    6  A    between atoms: C20_25  and  C21_27 
ROOT
HETATM    1  C3  UNL     1      23.719   1.221  52.942  1.00  0.00     0.097 A 
HETATM    2  C4  UNL     1      22.460   1.649  52.518  1.00  0.00     0.071 A 
HETATM    3  C5  UNL     1      22.181   2.938  52.169  1.00  0.00     0.075 A 
HETATM    4  N1  UNL     1      20.965   3.306  51.777  1.00  0.00    -0.241 NA
HETATM    5  C6  UNL     1      20.739   4.609  51.445  1.00  0.00     0.236 A 
HETATM    6  N2  UNL     1      21.727   5.517  51.509  1.00  0.00    -0.224 NA
HETATM    7  C7  UNL     1      22.951   5.180  51.896  1.00  0.00     0.142 A 
HETATM    8  C17 UNL     1      23.198   3.871  52.238  1.00  0.00     0.041 A 
HETATM    9  C18 UNL     1      24.428   3.422  52.659  1.00  0.00     0.050 A 
HETATM   10  C19 UNL     1      24.748   2.134  53.020  1.00  0.00     0.069 A 
ENDROOT
BRANCH   7  11
HETATM   11  N3  UNL     1      24.057   6.046  51.963  1.00  0.00    -0.340 N 
HETATM   12  H8  UNL     1      24.484   6.382  52.852  1.00  0.00     0.167 HD
BRANCH  11  13
HETATM   13  C8  UNL     1      24.652   6.511  50.756  1.00  0.00     0.033 C 
HETATM   14  C9  UNL     1      25.361   5.567  50.086  1.00  0.00     0.030 C 
HETATM   15  C10 UNL     1      26.116   5.661  48.809  1.00  0.00     0.005 C 
HETATM   16  C11 UNL     1      26.845   6.717  48.399  1.00  0.00    -0.074 A 
HETATM   17  C12 UNL     1      27.731   7.536  47.503  1.00  0.00     0.044 A 
HETATM   18  C13 UNL     1      27.313   8.017  48.872  1.00  0.00     0.022 A 
HETATM   19  C14 UNL     1      26.339   9.089  48.997  1.00  0.00     0.036 C 
HETATM   20  C15 UNL     1      25.116   8.801  49.772  1.00  0.00    -0.024 C 
HETATM   21  C16 UNL     1      24.367   7.941  50.463  1.00  0.00     0.025 C 
ENDBRANCH  11  13
ENDBRANCH   7  11
BRANCH  10  22
HETATM   22  N4  UNL     1      26.002   1.672  53.469  1.00  0.00    -0.323 N 
HETATM   23  C20 UNL     1      27.297   1.815  52.924  1.00  0.00     0.247 C 
HETATM   24  O2  UNL     1      27.421   2.452  51.850  1.00  0.00    -0.271 OA
HETATM   25  H19 UNL     1      26.054   1.119  54.360  1.00  0.00     0.169 HD
BRANCH  23  26
HETATM   26  C21 UNL     1      28.546   1.280  53.500  1.00  0.00     0.203 C 
HETATM   27  C22 UNL     1      28.441   0.870  54.933  1.00  0.00     0.215 C 
HETATM   28  O3  UNL     1      28.236  -0.510  54.877  1.00  0.00    -0.301 OA
HETATM   29  C23 UNL     1      29.017  -0.999  53.840  1.00  0.00     0.361 C 
HETATM   30  O4  UNL     1      29.767  -1.981  53.543  1.00  0.00    -0.238 OA
HETATM   31  N5  UNL     1      28.845   0.016  52.831  1.00  0.00    -0.321 N 
HETATM   32  H23 UNL     1      28.913  -0.083  51.787  1.00  0.00     0.165 HD
ENDBRANCH  23  26
ENDBRANCH  10  22
BRANCH   1  33
HETATM   33  O1  UNL     1      23.888  -0.121  53.272  1.00  0.00    -0.349 OA
BRANCH  33  34
HETATM   34  C2  UNL     1      22.738  -0.909  53.536  1.00  0.00     0.171 C 
HETATM   35  C1  UNL     1      22.564  -1.224  55.001  1.00  0.00     0.034 C 
ENDBRANCH  33  34
ENDBRANCH   1  33
TORSDOF 6
ENDMDL
MODEL 4
REMARK VINA RESULT:      -9.5      4.466      6.634
REMARK  6 active torsions:
REMARK  status: ('A' for Active; 'I' for Inactive)
REMARK    1  A    between atoms: C2_2  and  O1_3 
REMARK    2  A    between atoms: O1_3  and  C3_4 
REMARK    3  A    between atoms: C7_10  and  N3_11 
REMARK    4  A    between atoms: N3_11  and  C8_12 
REMARK    5  A    between atoms: C19_23  and  N4_24 
REMARK       I    between atoms: N4_24  and  C20_25 
REMARK    6  A    between atoms: C20_25  and  C21_27 
ROOT
HETATM    1  C3  UNL     1      28.652   6.985  47.759  1.00  0.00     0.097 A 
HETATM    2  C4  UNL     1      27.334   7.368  48.010  1.00  0.00     0.071 A 
HETATM    3  C5  UNL     1      26.398   6.537  48.554  1.00  0.00     0.075 A 
HETATM    4  N1  UNL     1      25.150   6.941  48.770  1.00  0.00    -0.241 NA
HETATM    5  C6  UNL     1      24.253   6.067  49.311  1.00  0.00     0.236 A 
HETATM    6  N2  UNL     1      24.617   4.814  49.625  1.00  0.00    -0.224 NA
HETATM    7  C7  UNL     1      25.855   4.381  49.420  1.00  0.00     0.142 A 
HETATM    8  C17 UNL     1      26.774   5.247  48.874  1.00  0.00     0.041 A 
HETATM    9  C18 UNL     1      28.078   4.895  48.615  1.00  0.00     0.050 A 
HETATM   10  C19 UNL     1      29.049   5.701  48.069  1.00  0.00     0.069 A 
ENDROOT
BRANCH   7  11
HETATM   11  N3  UNL     1      26.341   3.102  49.746  1.00  0.00    -0.340 N 
HETATM   12  H8  UNL     1      26.889   2.501  49.095  1.00  0.00     0.167 HD
BRANCH  11  13
HETATM   13  C8  UNL     1      26.085   2.568  51.041  1.00  0.00     0.033 C 
HETATM   14  C9  UNL     1      27.170   2.536  51.854  1.00  0.00     0.030 C 
HETATM   15  C10 UNL     1      27.306   2.058  53.256  1.00  0.00     0.005 C 
HETATM   16  C11 UNL     1      26.686   0.986  53.787  1.00  0.00    -0.074 A 
HETATM   17  C12 UNL     1      26.294  -0.023  54.829  1.00  0.00     0.044 A 
HETATM   18  C13 UNL     1      25.830  -0.130  53.397  1.00  0.00     0.022 A 
HETATM   19  C14 UNL     1      24.444   0.157  53.062  1.00  0.00     0.036 C 
HETATM   20  C15 UNL     1      24.199   1.215  52.061  1.00  0.00    -0.024 C 
HETATM   21  C16 UNL     1      24.670   2.161  51.247  1.00  0.00     0.025 C 
ENDBRANCH  11  13
ENDBRANCH   7  11
BRANCH  10  22
HETATM   22  N4  UNL     1      30.382   5.341  47.785  1.00  0.00    -0.323 N 
HETATM   23  C20 UNL     1      31.533   5.314  48.602  1.00  0.00     0.247 C 
HETATM   24  O2  UNL     1      31.417   5.662  49.802  1.00  0.00    -0.271 OA
HETATM   25  H19 UNL     1      30.631   5.027  46.814  1.00  0.00     0.169 HD
BRANCH  23  26
HETATM   26  C21 UNL     1      32.889   4.908  48.182  1.00  0.00     0.203 C 
HETATM   27  C22 UNL     1      33.369   5.562  46.927  1.00  0.00     0.215 C 
HETATM   28  O3  UNL     1      34.158   6.623  47.378  1.00  0.00    -0.301 OA
HETATM   29  C23 UNL     1      34.843   6.177  48.498  1.00  0.00     0.361 C 
HETATM   30  O4  UNL     1      35.986   6.241  49.051  1.00  0.00    -0.238 OA
HETATM   31  N5  UNL     1      33.836   5.403  49.179  1.00  0.00    -0.321 N 
HETATM   32  H23 UNL     1      33.752   5.200  50.206  1.00  0.00     0.165 HD
ENDBRANCH  23  26
ENDBRANCH  10  22
BRANCH   1  33
HETATM   33  O1  UNL     1      29.521   7.918  47.201  1.00  0.00    -0.349 OA
BRANCH  33  34
HETATM   34  C2  UNL     1      29.705   9.160  47.863  1.00  0.00     0.171 C 
HETATM   35  C1  UNL     1      30.615   9.058  49.062  1.00  0.00     0.034 C 
ENDBRANCH  33  34
ENDBRANCH   1  33
TORSDOF 6
ENDMDL
MODEL 5
REMARK VINA RESULT:      -9.4      3.242      7.198
REMARK  6 active torsions:
REMARK  status: ('A' for Active; 'I' for Inactive)
REMARK    1  A    between atoms: C2_2  and  O1_3 
REMARK    2  A    between atoms: O1_3  and  C3_4 
REMARK    3  A    between atoms: C7_10  and  N3_11 
REMARK    4  A    between atoms: N3_11  and  C8_12 
REMARK    5  A    between atoms: C19_23  and  N4_24 
REMARK       I    between atoms: N4_24  and  C20_25 
REMARK    6  A    between atoms: C20_25  and  C21_27 
ROOT
HETATM    1  C3  UNL     1      21.971   3.662  52.127  1.00  0.00     0.097 A 
HETATM    2  C4  UNL     1      21.273   4.656  51.440  1.00  0.00     0.071 A 
HETATM    3  C5  UNL     1      21.841   5.825  51.026  1.00  0.00     0.075 A 
HETATM    4  N1  UNL     1      21.136   6.750  50.379  1.00  0.00    -0.241 NA
HETATM    5  C6  UNL     1      21.752   7.904  49.992  1.00  0.00     0.236 A 
HETATM    6  N2  UNL     1      23.052   8.112  50.255  1.00  0.00    -0.224 NA
HETATM    7  C7  UNL     1      23.781   7.208  50.899  1.00  0.00     0.142 A 
HETATM    8  C17 UNL     1      23.177   6.039  51.299  1.00  0.00     0.041 A 
HETATM    9  C18 UNL     1      23.841   5.044  51.979  1.00  0.00     0.050 A 
HETATM   10  C19 UNL     1      23.306   3.854  52.413  1.00  0.00     0.069 A 
ENDROOT
BRANCH   7  11
HETATM   11  N3  UNL     1      25.152   7.318  51.191  1.00  0.00    -0.340 N 
HETATM   12  H8  UNL     1      25.555   7.232  52.148  1.00  0.00     0.167 HD
BRANCH  11  13
HETATM   13  C8  UNL     1      26.073   7.561  50.132  1.00  0.00     0.033 C 
HETATM   14  C9  UNL     1      26.224   6.519  49.277  1.00  0.00     0.030 C 
HETATM   15  C10 UNL     1      27.079   6.386  48.067  1.00  0.00     0.005 C 
HETATM   16  C11 UNL     1      28.323   6.883  47.922  1.00  0.00    -0.074 A 
HETATM   17  C12 UNL     1      29.633   7.187  47.253  1.00  0.00     0.044 A 
HETATM   18  C13 UNL     1      29.361   7.567  48.688  1.00  0.00     0.022 A 
HETATM   19  C14 UNL     1      29.143   8.962  49.038  1.00  0.00     0.036 C 
HETATM   20  C15 UNL     1      27.870   9.297  49.706  1.00  0.00    -0.024 C 
HETATM   21  C16 UNL     1      26.678   8.918  50.169  1.00  0.00     0.025 C 
ENDBRANCH  11  13
ENDBRANCH   7  11
BRANCH  10  22
HETATM   22  N4  UNL     1      23.977   2.838  53.125  1.00  0.00    -0.323 N 
HETATM   23  C20 UNL     1      24.826   1.799  52.686  1.00  0.00     0.247 C 
HETATM   24  O2  UNL     1      25.065   1.708  51.458  1.00  0.00    -0.271 OA
HETATM   25  H19 UNL     1      23.870   2.789  54.168  1.00  0.00     0.169 HD
BRANCH  23  26
HETATM   26  C21 UNL     1      25.478   0.789  53.542  1.00  0.00     0.203 C 
HETATM   27  C22 UNL     1      26.287  -0.223  52.798  1.00  0.00     0.215 C 
HETATM   28  O3  UNL     1      27.596   0.254  52.889  1.00  0.00    -0.301 OA
HETATM   29  C23 UNL     1      27.748   0.794  54.158  1.00  0.00     0.361 C 
HETATM   30  O4  UNL     1      28.586   0.865  55.111  1.00  0.00    -0.238 OA
HETATM   31  N5  UNL     1      26.489   1.469  54.350  1.00  0.00    -0.321 N 
HETATM   32  H23 UNL     1      26.281   2.304  54.953  1.00  0.00     0.165 HD
ENDBRANCH  23  26
ENDBRANCH  10  22
BRANCH   1  33
HETATM   33  O1  UNL     1      21.289   2.508  52.501  1.00  0.00    -0.349 OA
BRANCH  33  34
HETATM   34  C2  UNL     1      20.678   1.719  51.491  1.00  0.00     0.171 C 
HETATM   35  C1  UNL     1      21.574   0.616  50.984  1.00  0.00     0.034 C 
ENDBRANCH  33  34
ENDBRANCH   1  33
TORSDOF 6
ENDMDL
MODEL 6
REMARK VINA RESULT:      -9.0      3.175      7.210
REMARK  6 active torsions:
REMARK  status: ('A' for Active; 'I' for Inactive)
REMARK    1  A    between atoms: C2_2  and  O1_3 
REMARK    2  A    between atoms: O1_3  and  C3_4 
REMARK    3  A    between atoms: C7_10  and  N3_11 
REMARK    4  A    between atoms: N3_11  and  C8_12 
REMARK    5  A    between atoms: C19_23  and  N4_24 
REMARK       I    between atoms: N4_24  and  C20_25 
REMARK    6  A    between atoms: C20_25  and  C21_27 
ROOT
HETATM    1  C3  UNL     1      23.700   3.000  50.222  1.00  0.00     0.097 A 
HETATM    2  C4  UNL     1      23.096   3.593  49.112  1.00  0.00     0.071 A 
HETATM    3  C5  UNL     1      23.420   4.837  48.653  1.00  0.00     0.075 A 
HETATM    4  N1  UNL     1      22.813   5.367  47.596  1.00  0.00    -0.241 NA
HETATM    5  C6  UNL     1      23.171   6.617  47.182  1.00  0.00     0.236 A 
HETATM    6  N2  UNL     1      24.124   7.308  47.827  1.00  0.00    -0.224 NA
HETATM    7  C7  UNL     1      24.748   6.805  48.885  1.00  0.00     0.142 A 
HETATM    8  C17 UNL     1      24.399   5.548  49.319  1.00  0.00     0.041 A 
HETATM    9  C18 UNL     1      24.978   4.940  50.409  1.00  0.00     0.050 A 
HETATM   10  C19 UNL     1      24.679   3.692  50.903  1.00  0.00     0.069 A 
ENDROOT
BRANCH   7  11
HETATM   11  N3  UNL     1      25.779   7.434  49.605  1.00  0.00    -0.340 N 
HETATM   12  H8  UNL     1      25.699   7.736  50.599  1.00  0.00     0.167 HD
BRANCH  11  13
HETATM   13  C8  UNL     1      27.025   7.687  48.962  1.00  0.00     0.033 C 
HETATM   14  C9  UNL     1      27.646   6.574  48.497  1.00  0.00     0.030 C 
HETATM   15  C10 UNL     1      28.941   6.427  47.781  1.00  0.00     0.005 C 
HETATM   16  C11 UNL     1      30.061   7.137  48.020  1.00  0.00    -0.074 A 
HETATM   17  C12 UNL     1      31.484   7.591  47.862  1.00  0.00     0.044 A 
HETATM   18  C13 UNL     1      30.588   8.133  48.948  1.00  0.00     0.022 A 
HETATM   19  C14 UNL     1      30.077   9.491  48.856  1.00  0.00     0.036 C 
HETATM   20  C15 UNL     1      28.611   9.662  48.880  1.00  0.00    -0.024 C 
HETATM   21  C16 UNL     1      27.390   9.127  48.918  1.00  0.00     0.025 C 
ENDBRANCH  11  13
ENDBRANCH   7  11
BRANCH  10  22
HETATM   22  N4  UNL     1      25.257   3.071  52.030  1.00  0.00    -0.323 N 
HETATM   23  C20 UNL     1      26.388   2.235  52.155  1.00  0.00     0.247 C 
HETATM   24  O2  UNL     1      27.035   1.955  51.117  1.00  0.00    -0.271 OA
HETATM   25  H19 UNL     1      24.819   3.216  52.974  1.00  0.00     0.169 HD
BRANCH  23  26
HETATM   26  C21 UNL     1      26.898   1.645  53.408  1.00  0.00     0.203 C 
HETATM   27  C22 UNL     1      27.754   0.435  53.217  1.00  0.00     0.215 C 
HETATM   28  O3  UNL     1      29.059   0.929  53.277  1.00  0.00    -0.301 OA
HETATM   29  C23 UNL     1      29.078   1.920  54.247  1.00  0.00     0.361 C 
HETATM   30  O4  UNL     1      29.799   2.367  55.194  1.00  0.00    -0.238 OA
HETATM   31  N5  UNL     1      27.829   2.599  54.008  1.00  0.00    -0.321 N 
HETATM   32  H23 UNL     1      27.580   3.599  54.211  1.00  0.00     0.165 HD
ENDBRANCH  23  26
ENDBRANCH  10  22
BRANCH   1  33
HETATM   33  O1  UNL     1      23.290   1.725  50.600  1.00  0.00    -0.349 OA
BRANCH  33  34
HETATM   34  C2  UNL     1      22.043   1.578  51.262  1.00  0.00     0.171 C 
HETATM   35  C1  UNL     1      21.162   0.529  50.629  1.00  0.00     0.034 C 
ENDBRANCH  33  34
ENDBRANCH   1  33
TORSDOF 6
ENDMDL
MODEL 7
REMARK VINA RESULT:      -8.9      2.741      6.748
REMARK  6 active torsions:
REMARK  status: ('A' for Active; 'I' for Inactive)
REMARK    1  A    between atoms: C2_2  and  O1_3 
REMARK    2  A    between atoms: O1_3  and  C3_4 
REMARK    3  A    between atoms: C7_10  and  N3_11 
REMARK    4  A    between atoms: N3_11  and  C8_12 
REMARK    5  A    between atoms: C19_23  and  N4_24 
REMARK       I    between atoms: N4_24  and  C20_25 
REMARK    6  A    between atoms: C20_25  and  C21_27 
ROOT
HETATM    1  C3  UNL     1      25.780   1.089  52.774  1.00  0.00     0.097 A 
HETATM    2  C4  UNL     1      25.536   0.027  53.645  1.00  0.00     0.071 A 
HETATM    3  C5  UNL     1      24.292  -0.305  54.097  1.00  0.00     0.075 A 
HETATM    4  N1  UNL     1      24.104  -1.321  54.933  1.00  0.00    -0.241 NA
HETATM    5  C6  UNL     1      22.839  -1.607  55.358  1.00  0.00     0.236 A 
HETATM    6  N2  UNL     1      21.792  -0.878  54.941  1.00  0.00    -0.224 NA
HETATM    7  C7  UNL     1      21.948   0.142  54.106  1.00  0.00     0.142 A 
HETATM    8  C17 UNL     1      23.215   0.447  53.668  1.00  0.00     0.041 A 
HETATM    9  C18 UNL     1      23.485   1.489  52.810  1.00  0.00     0.050 A 
HETATM   10  C19 UNL     1      24.722   1.856  52.334  1.00  0.00     0.069 A 
ENDROOT
BRANCH   7  11
HETATM   11  N3  UNL     1      20.914   0.942  53.586  1.00  0.00    -0.340 N 
HETATM   12  H8  UNL     1      20.776   1.947  53.824  1.00  0.00     0.167 HD
BRANCH  11  13
HETATM   13  C8  UNL     1      19.982   0.370  52.675  1.00  0.00     0.033 C 
HETATM   14  C9  UNL     1      19.994   0.933  51.440  1.00  0.00     0.030 C 
HETATM   15  C10 UNL     1      19.182   0.619  50.234  1.00  0.00     0.005 C 
HETATM   16  C11 UNL     1      17.881   0.268  50.228  1.00  0.00    -0.074 A 
HETATM   17  C12 UNL     1      16.549  -0.137  49.663  1.00  0.00     0.044 A 
HETATM   18  C13 UNL     1      16.746   0.129  51.135  1.00  0.00     0.022 A 
HETATM   19  C14 UNL     1      16.755  -0.979  52.077  1.00  0.00     0.036 C 
HETATM   20  C15 UNL     1      17.958  -1.138  52.918  1.00  0.00    -0.024 C 
HETATM   21  C16 UNL     1      19.186  -0.743  53.257  1.00  0.00     0.025 C 
ENDBRANCH  11  13
ENDBRANCH   7  11
BRANCH  10  22
HETATM   22  N4  UNL     1      25.006   2.932  51.469  1.00  0.00    -0.323 N 
HETATM   23  C20 UNL     1      24.465   3.285  50.213  1.00  0.00     0.247 C 
HETATM   24  O2  UNL     1      23.572   2.552  49.725  1.00  0.00    -0.271 OA
HETATM   25  H19 UNL     1      25.738   3.632  51.747  1.00  0.00     0.169 HD
BRANCH  23  26
HETATM   26  C21 UNL     1      24.850   4.454  49.398  1.00  0.00     0.203 C 
HETATM   27  C22 UNL     1      23.730   5.399  49.105  1.00  0.00     0.215 C 
HETATM   28  O3  UNL     1      23.873   6.404  50.063  1.00  0.00    -0.301 OA
HETATM   29  C23 UNL     1      25.233   6.620  50.231  1.00  0.00     0.361 C 
HETATM   30  O4  UNL     1      26.075   7.559  50.391  1.00  0.00    -0.238 OA
HETATM   31  N5  UNL     1      25.757   5.278  50.195  1.00  0.00    -0.321 N 
HETATM   32  H23 UNL     1      26.632   4.906  50.643  1.00  0.00     0.165 HD
ENDBRANCH  23  26
ENDBRANCH  10  22
BRANCH   1  33
HETATM   33  O1  UNL     1      27.092   1.336  52.379  1.00  0.00    -0.349 OA
BRANCH  33  34
HETATM   34  C2  UNL     1      27.983   1.934  53.307  1.00  0.00     0.171 C 
HETATM   35  C1  UNL     1      29.110   1.017  53.715  1.00  0.00     0.034 C 
ENDBRANCH  33  34
ENDBRANCH   1  33
TORSDOF 6
ENDMDL
MODEL 8
REMARK VINA RESULT:      -8.7      3.720      7.699
REMARK  6 active torsions:
REMARK  status: ('A' for Active; 'I' for Inactive)
REMARK    1  A    between atoms: C2_2  and  O1_3 
REMARK    2  A    between atoms: O1_3  and  C3_4 
REMARK    3  A    between atoms: C7_10  and  N3_11 
REMARK    4  A    between atoms: N3_11  and  C8_12 
REMARK    5  A    between atoms: C19_23  and  N4_24 
REMARK       I    between atoms: N4_24  and  C20_25 
REMARK    6  A    between atoms: C20_25  and  C21_27 
ROOT
HETATM    1  C3  UNL     1      24.225   3.303  49.595  1.00  0.00     0.097 A 
HETATM    2  C4  UNL     1      23.623   4.359  48.911  1.00  0.00     0.071 A 
HETATM    3  C5  UNL     1      24.268   5.522  48.603  1.00  0.00     0.075 A 
HETATM    4  N1  UNL     1      23.653   6.507  47.955  1.00  0.00    -0.241 NA
HETATM    5  C6  UNL     1      24.343   7.651  47.676  1.00  0.00     0.236 A 
HETATM    6  N2  UNL     1      25.626   7.788  48.046  1.00  0.00    -0.224 NA
HETATM    7  C7  UNL     1      26.266   6.821  48.694  1.00  0.00     0.142 A 
HETATM    8  C17 UNL     1      25.587   5.662  48.986  1.00  0.00     0.041 A 
HETATM    9  C18 UNL     1      26.156   4.606  49.659  1.00  0.00     0.050 A 
HETATM   10  C19 UNL     1      25.541   3.421  49.990  1.00  0.00     0.069 A 
ENDROOT
BRANCH   7  11
HETATM   11  N3  UNL     1      27.614   6.855  49.092  1.00  0.00    -0.340 N 
HETATM   12  H8  UNL     1      27.931   7.014  50.072  1.00  0.00     0.167 HD
BRANCH  11  13
HETATM   13  C8  UNL     1      28.634   6.663  48.118  1.00  0.00     0.033 C 
HETATM   14  C9  UNL     1      29.508   5.668  48.416  1.00  0.00     0.030 C 
HETATM   15  C10 UNL     1      30.690   5.171  47.662  1.00  0.00     0.005 C 
HETATM   16  C11 UNL     1      31.556   5.929  46.963  1.00  0.00    -0.074 A 
HETATM   17  C12 UNL     1      32.741   6.254  46.098  1.00  0.00     0.044 A 
HETATM   18  C13 UNL     1      31.859   7.329  46.684  1.00  0.00     0.022 A 
HETATM   19  C14 UNL     1      30.948   8.066  45.823  1.00  0.00     0.036 C 
HETATM   20  C15 UNL     1      29.514   8.032  46.174  1.00  0.00    -0.024 C 
HETATM   21  C16 UNL     1      28.531   7.586  46.957  1.00  0.00     0.025 C 
ENDBRANCH  11  13
ENDBRANCH   7  11
BRANCH  10  22
HETATM   22  N4  UNL     1      26.113   2.343  50.695  1.00  0.00    -0.323 N 
HETATM   23  C20 UNL     1      26.062   1.992  52.062  1.00  0.00     0.247 C 
HETATM   24  O2  UNL     1      25.410   2.730  52.839  1.00  0.00    -0.271 OA
HETATM   25  H19 UNL     1      26.691   1.638  50.172  1.00  0.00     0.169 HD
BRANCH  23  26
HETATM   26  C21 UNL     1      26.709   0.820  52.683  1.00  0.00     0.203 C 
HETATM   27  C22 UNL     1      27.916   1.142  53.504  1.00  0.00     0.215 C 
HETATM   28  O3  UNL     1      27.434   1.188  54.814  1.00  0.00    -0.301 OA
HETATM   29  C23 UNL     1      26.485   0.184  54.937  1.00  0.00     0.361 C 
HETATM   30  O4  UNL     1      26.085  -0.707  55.751  1.00  0.00    -0.238 OA
HETATM   31  N5  UNL     1      25.788   0.273  53.678  1.00  0.00    -0.321 N 
HETATM   32  H23 UNL     1      24.796   0.005  53.461  1.00  0.00     0.165 HD
ENDBRANCH  23  26
ENDBRANCH  10  22
BRANCH   1  33
HETATM   33  O1  UNL     1      23.470   2.163  49.856  1.00  0.00    -0.349 OA
BRANCH  33  34
HETATM   34  C2  UNL     1      22.403   2.250  50.787  1.00  0.00     0.171 C 
HETATM   35  C1  UNL     1      22.453   1.171  51.842  1.00  0.00     0.034 C 
ENDBRANCH  33  34
ENDBRANCH   1  33
TORSDOF 6
ENDMDL
MODEL 9
REMARK VINA RESULT:      -8.6      3.163      6.698
REMARK  6 active torsions:
REMARK  status: ('A' for Active; 'I' for Inactive)
REMARK    1  A    between atoms: C2_2  and  O1_3 
REMARK    2  A    between atoms: O1_3  and  C3_4 
REMARK    3  A    between atoms: C7_10  and  N3_11 
REMARK    4  A    between atoms: N3_11  and  C8_12 
REMARK    5  A    between atoms: C19_23  and  N4_24 
REMARK       I    between atoms: N4_24  and  C20_25 
REMARK    6  A    between atoms: C20_25  and  C21_27 
ROOT
HETATM    1  C3  UNL     1      25.373   4.771  49.383  1.00  0.00     0.097 A 
HETATM    2  C4  UNL     1      24.273   5.366  48.764  1.00  0.00     0.071 A 
HETATM    3  C5  UNL     1      23.003   5.296  49.258  1.00  0.00     0.075 A 
HETATM    4  N1  UNL     1      21.981   5.873  48.632  1.00  0.00    -0.241 NA
HETATM    5  C6  UNL     1      20.730   5.768  49.166  1.00  0.00     0.236 A 
HETATM    6  N2  UNL     1      20.524   5.095  50.309  1.00  0.00    -0.224 NA
HETATM    7  C7  UNL     1      21.524   4.509  50.957  1.00  0.00     0.142 A 
HETATM    8  C17 UNL     1      22.792   4.602  50.433  1.00  0.00     0.041 A 
HETATM    9  C18 UNL     1      23.894   4.024  51.021  1.00  0.00     0.050 A 
HETATM   10  C19 UNL     1      25.187   4.070  50.556  1.00  0.00     0.069 A 
ENDROOT
BRANCH   7  11
HETATM   11  N3  UNL     1      21.417   3.813  52.174  1.00  0.00    -0.340 N 
HETATM   12  H8  UNL     1      21.635   4.226  53.106  1.00  0.00     0.167 HD
BRANCH  11  13
HETATM   13  C8  UNL     1      20.986   2.456  52.166  1.00  0.00     0.033 C 
HETATM   14  C9  UNL     1      19.669   2.294  51.885  1.00  0.00     0.030 C 
HETATM   15  C10 UNL     1      18.855   1.052  51.784  1.00  0.00     0.005 C 
HETATM   16  C11 UNL     1      18.979  -0.038  52.565  1.00  0.00    -0.074 A 
HETATM   17  C12 UNL     1      18.693  -1.416  53.091  1.00  0.00     0.044 A 
HETATM   18  C13 UNL     1      19.706  -0.506  53.742  1.00  0.00     0.022 A 
HETATM   19  C14 UNL     1      21.126  -0.785  53.602  1.00  0.00     0.036 C 
HETATM   20  C15 UNL     1      21.966   0.277  53.012  1.00  0.00    -0.024 C 
HETATM   21  C16 UNL     1      22.073   1.484  52.456  1.00  0.00     0.025 C 
ENDBRANCH  11  13
ENDBRANCH   7  11
BRANCH  10  22
HETATM   22  N4  UNL     1      26.316   3.466  51.145  1.00  0.00    -0.323 N 
HETATM   23  C20 UNL     1      26.497   2.187  51.715  1.00  0.00     0.247 C 
HETATM   24  O2  UNL     1      25.518   1.403  51.734  1.00  0.00    -0.271 OA
HETATM   25  H19 UNL     1      27.215   4.007  51.201  1.00  0.00     0.169 HD
BRANCH  23  26
HETATM   26  C21 UNL     1      27.746   1.666  52.303  1.00  0.00     0.203 C 
HETATM   27  C22 UNL     1      28.234   2.425  53.493  1.00  0.00     0.215 C 
HETATM   28  O3  UNL     1      27.772   1.684  54.583  1.00  0.00    -0.301 OA
HETATM   29  C23 UNL     1      27.884   0.343  54.243  1.00  0.00     0.361 C 
HETATM   30  O4  UNL     1      28.216  -0.780  54.737  1.00  0.00    -0.238 OA
HETATM   31  N5  UNL     1      27.463   0.346  52.864  1.00  0.00    -0.321 N 
HETATM   32  H23 UNL     1      27.026  -0.434  52.314  1.00  0.00     0.165 HD
ENDBRANCH  23  26
ENDBRANCH  10  22
BRANCH   1  33
HETATM   33  O1  UNL     1      26.624   4.907  48.788  1.00  0.00    -0.349 OA
BRANCH  33  34
HETATM   34  C2  UNL     1      27.131   6.212  48.558  1.00  0.00     0.171 C 
HETATM   35  C1  UNL     1      28.549   6.210  48.042  1.00  0.00     0.034 C 
ENDBRANCH  33  34
ENDBRANCH   1  33
TORSDOF 6
ENDMDL
