MODEL 1
REMARK VINA RESULT:      -6.8      0.000      0.000
REMARK  3 active torsions:
REMARK  status: ('A' for Active; 'I' for Inactive)
REMARK    1  A    between atoms: C3_3  and  N1_5 
REMARK    2  A    between atoms: N1_5  and  C5_7 
REMARK    3  A    between atoms: N3_10  and  C7_11 
ROOT
HETATM    1  C5  UNL     1      25.450   0.524  52.785  1.00  0.00     0.109 C 
HETATM    2  N2  UNL     1      24.668   1.325  53.380  1.00  0.00    -0.257 NA
HETATM    3  C6  UNL     1      24.197   2.606  52.982  1.00  0.00     0.277 C 
HETATM    4  N3  UNL     1      23.573   2.629  51.679  1.00  0.00    -0.344 N 
HETATM    5  C11 UNL     1      23.925   3.448  50.540  1.00  0.00     0.247 C 
HETATM    6  N6  UNL     1      25.271   3.134  50.115  1.00  0.00    -0.381 N 
HETATM    7  C12 UNL     1      26.382   3.267  50.993  1.00  0.00     0.104 C 
HETATM    8  C13 UNL     1      26.765   2.170  51.669  1.00  0.00     0.034 C 
HETATM    9 CL1  UNL     1      28.111   2.151  52.792  1.00  0.00    -0.087 Cl
HETATM   10  C14 UNL     1      26.022   0.879  51.461  1.00  0.00     0.131 C 
HETATM   11  H16 UNL     1      25.842   2.802  49.308  1.00  0.00     0.160 HD
ENDROOT
BRANCH   1  12
HETATM   12  N1  UNL     1      25.693  -0.677  53.503  1.00  0.00    -0.322 N 
HETATM   13  C4  UNL     1      25.018  -0.750  54.791  1.00  0.00     0.159 C 
BRANCH  12  14
HETATM   14  C3  UNL     1      26.552  -1.580  52.828  1.00  0.00     0.152 A 
HETATM   15  C2  UNL     1      27.932  -1.391  53.246  1.00  0.00     0.205 A 
HETATM   16  C1  UNL     1      29.229  -1.623  53.265  1.00  0.00     0.044 C 
HETATM   17  O1  UNL     1      27.223  -2.406  52.192  1.00  0.00    -0.323 OA
ENDBRANCH  12  14
ENDBRANCH   1  12
BRANCH   4  18
HETATM   18  C7  UNL     1      22.478   1.718  51.576  1.00  0.00     0.069 A 
HETATM   19  C8  UNL     1      22.056   0.989  50.488  1.00  0.00     0.169 A 
HETATM   20  N4  UNL     1      20.977   0.258  50.838  1.00  0.00    -0.183 NA
HETATM   21  N5  UNL     1      20.665   0.470  52.113  1.00  0.00    -0.283 N 
HETATM   22  C9  UNL     1      19.569  -0.128  52.870  1.00  0.00     0.179 C 
HETATM   23  C10 UNL     1      21.575   1.353  52.555  1.00  0.00     0.142 A 
ENDBRANCH   4  18
TORSDOF 3
ENDMDL
MODEL 2
REMARK VINA RESULT:      -6.8      2.715      5.822
REMARK  3 active torsions:
REMARK  status: ('A' for Active; 'I' for Inactive)
REMARK    1  A    between atoms: C3_3  and  N1_5 
REMARK    2  A    between atoms: N1_5  and  C5_7 
REMARK    3  A    between atoms: N3_10  and  C7_11 
ROOT
HETATM    1  C5  UNL     1      23.912   2.981  50.612  1.00  0.00     0.109 C 
HETATM    2  N2  UNL     1      24.128   3.336  51.809  1.00  0.00    -0.257 NA
HETATM    3  C6  UNL     1      23.646   2.783  53.027  1.00  0.00     0.277 C 
HETATM    4  N3  UNL     1      23.900   1.369  53.178  1.00  0.00    -0.344 N 
HETATM    5  C11 UNL     1      22.939   0.314  53.416  1.00  0.00     0.247 C 
HETATM    6  N6  UNL     1      22.018   0.238  52.305  1.00  0.00    -0.381 N 
HETATM    7  C12 UNL     1      21.221   1.350  51.918  1.00  0.00     0.104 C 
HETATM    8  C13 UNL     1      21.704   2.144  50.946  1.00  0.00     0.034 C 
HETATM    9 CL1  UNL     1      20.859   3.557  50.345  1.00  0.00    -0.087 Cl
HETATM   10  C14 UNL     1      23.034   1.818  50.322  1.00  0.00     0.131 C 
HETATM   11  H16 UNL     1      21.645  -0.394  51.564  1.00  0.00     0.160 HD
ENDROOT
BRANCH   1  12
HETATM   12  N1  UNL     1      24.575   3.785  49.648  1.00  0.00    -0.322 N 
HETATM   13  C4  UNL     1      23.679   4.522  48.767  1.00  0.00     0.159 C 
BRANCH  12  14
HETATM   14  C3  UNL     1      25.988   3.718  49.725  1.00  0.00     0.152 A 
HETATM   15  C2  UNL     1      26.598   4.829  49.010  1.00  0.00     0.205 A 
HETATM   16  C1  UNL     1      27.585   5.570  48.548  1.00  0.00     0.044 C 
HETATM   17  O1  UNL     1      27.215   3.578  49.846  1.00  0.00    -0.323 OA
ENDBRANCH  12  14
ENDBRANCH   1  12
BRANCH   4  18
HETATM   18  C7  UNL     1      25.287   1.045  53.079  1.00  0.00     0.069 A 
HETATM   19  C8  UNL     1      25.922   0.216  52.183  1.00  0.00     0.169 A 
HETATM   20  N4  UNL     1      27.244   0.199  52.457  1.00  0.00    -0.183 NA
HETATM   21  N5  UNL     1      27.513   0.983  53.496  1.00  0.00    -0.283 N 
HETATM   22  C9  UNL     1      28.818   1.235  54.104  1.00  0.00     0.179 C 
HETATM   23  C10 UNL     1      26.328   1.492  53.869  1.00  0.00     0.142 A 
ENDBRANCH   4  18
TORSDOF 3
ENDMDL
MODEL 3
REMARK VINA RESULT:      -6.8      2.561      4.647
REMARK  3 active torsions:
REMARK  status: ('A' for Active; 'I' for Inactive)
REMARK    1  A    between atoms: C3_3  and  N1_5 
REMARK    2  A    between atoms: N1_5  and  C5_7 
REMARK    3  A    between atoms: N3_10  and  C7_11 
ROOT
HETATM    1  C5  UNL     1      23.614   2.159  51.447  1.00  0.00     0.109 C 
HETATM    2  N2  UNL     1      22.844   1.442  50.740  1.00  0.00    -0.257 NA
HETATM    3  C6  UNL     1      22.050   0.320  51.104  1.00  0.00     0.277 C 
HETATM    4  N3  UNL     1      21.156   0.562  52.213  1.00  0.00    -0.344 N 
HETATM    5  C11 UNL     1      21.071  -0.164  53.461  1.00  0.00     0.247 C 
HETATM    6  N6  UNL     1      22.321  -0.042  54.178  1.00  0.00    -0.381 N 
HETATM    7  C12 UNL     1      23.552  -0.471  53.612  1.00  0.00     0.104 C 
HETATM    8  C13 UNL     1      24.289   0.453  52.971  1.00  0.00     0.034 C 
HETATM    9 CL1  UNL     1      25.830   0.102  52.213  1.00  0.00    -0.087 Cl
HETATM   10  C14 UNL     1      23.789   1.870  52.893  1.00  0.00     0.131 C 
HETATM   11  H16 UNL     1      22.749   0.279  55.073  1.00  0.00     0.160 HD
ENDROOT
BRANCH   1  12
HETATM   12  N1  UNL     1      24.247   3.204  50.723  1.00  0.00    -0.322 N 
HETATM   13  C4  UNL     1      23.324   4.151  50.113  1.00  0.00     0.159 C 
BRANCH  12  14
HETATM   14  C3  UNL     1      25.662   3.128  50.732  1.00  0.00     0.152 A 
HETATM   15  C2  UNL     1      26.230   3.957  49.680  1.00  0.00     0.205 A 
HETATM   16  C1  UNL     1      27.189   4.500  48.957  1.00  0.00     0.044 C 
HETATM   17  O1  UNL     1      26.893   2.999  50.815  1.00  0.00    -0.323 OA
ENDBRANCH  12  14
ENDBRANCH   1  12
BRANCH   4  18
HETATM   18  C7  UNL     1      20.269   1.656  51.976  1.00  0.00     0.069 A 
HETATM   19  C8  UNL     1      20.247   2.898  52.569  1.00  0.00     0.169 A 
HETATM   20  N4  UNL     1      19.236   3.620  52.043  1.00  0.00    -0.183 NA
HETATM   21  N5  UNL     1      18.585   2.911  51.126  1.00  0.00    -0.283 N 
HETATM   22  C9  UNL     1      17.435   3.331  50.330  1.00  0.00     0.179 C 
HETATM   23  C10 UNL     1      19.214   1.725  51.089  1.00  0.00     0.142 A 
ENDBRANCH   4  18
TORSDOF 3
ENDMDL
MODEL 4
REMARK VINA RESULT:      -6.7      2.327      4.515
REMARK  3 active torsions:
REMARK  status: ('A' for Active; 'I' for Inactive)
REMARK    1  A    between atoms: C3_3  and  N1_5 
REMARK    2  A    between atoms: N1_5  and  C5_7 
REMARK    3  A    between atoms: N3_10  and  C7_11 
ROOT
HETATM    1  C5  UNL     1      24.149   1.346  52.248  1.00  0.00     0.109 C 
HETATM    2  N2  UNL     1      23.812   1.532  51.040  1.00  0.00    -0.257 NA
HETATM    3  C6  UNL     1      22.541   1.844  50.484  1.00  0.00     0.277 C 
HETATM    4  N3  UNL     1      21.911   3.008  51.061  1.00  0.00    -0.344 N 
HETATM    5  C11 UNL     1      20.608   3.097  51.684  1.00  0.00     0.247 C 
HETATM    6  N6  UNL     1      20.571   2.246  52.852  1.00  0.00    -0.381 N 
HETATM    7  C12 UNL     1      20.819   0.849  52.766  1.00  0.00     0.104 C 
HETATM    8  C13 UNL     1      22.077   0.433  52.994  1.00  0.00     0.034 C 
HETATM    9 CL1  UNL     1      22.563  -1.251  52.931  1.00  0.00    -0.087 Cl
HETATM   10  C14 UNL     1      23.138   1.444  53.331  1.00  0.00     0.131 C 
HETATM   11  H16 UNL     1      20.413   2.239  53.882  1.00  0.00     0.160 HD
ENDROOT
BRANCH   1  12
HETATM   12  N1  UNL     1      25.527   1.050  52.418  1.00  0.00    -0.322 N 
HETATM   13  C4  UNL     1      26.421   1.913  51.658  1.00  0.00     0.159 C 
BRANCH  12  14
HETATM   14  C3  UNL     1      25.773  -0.034  53.297  1.00  0.00     0.152 A 
HETATM   15  C2  UNL     1      26.491  -1.100  52.615  1.00  0.00     0.205 A 
HETATM   16  C1  UNL     1      27.085  -2.270  52.496  1.00  0.00     0.044 C 
HETATM   17  O1  UNL     1      25.943  -0.931  54.137  1.00  0.00    -0.323 OA
ENDBRANCH  12  14
ENDBRANCH   1  12
BRANCH   4  18
HETATM   18  C7  UNL     1      22.722   4.180  50.960  1.00  0.00     0.069 A 
HETATM   19  C8  UNL     1      23.215   4.981  51.965  1.00  0.00     0.169 A 
HETATM   20  N4  UNL     1      23.933   5.984  51.417  1.00  0.00    -0.183 NA
HETATM   21  N5  UNL     1      23.937   5.882  50.091  1.00  0.00    -0.283 N 
HETATM   22  C9  UNL     1      24.598   6.768  49.135  1.00  0.00     0.179 C 
HETATM   23  C10 UNL     1      23.205   4.790  49.820  1.00  0.00     0.142 A 
ENDBRANCH   4  18
TORSDOF 3
ENDMDL
MODEL 5
REMARK VINA RESULT:      -6.6      3.126      5.486
REMARK  3 active torsions:
REMARK  status: ('A' for Active; 'I' for Inactive)
REMARK    1  A    between atoms: C3_3  and  N1_5 
REMARK    2  A    between atoms: N1_5  and  C5_7 
REMARK    3  A    between atoms: N3_10  and  C7_11 
ROOT
HETATM    1  C5  UNL     1      21.139   2.142  51.870  1.00  0.00     0.109 C 
HETATM    2  N2  UNL     1      21.957   1.984  50.915  1.00  0.00    -0.257 NA
HETATM    3  C6  UNL     1      22.794   2.931  50.264  1.00  0.00     0.277 C 
HETATM    4  N3  UNL     1      23.652   3.677  51.156  1.00  0.00    -0.344 N 
HETATM    5  C11 UNL     1      23.743   5.112  51.309  1.00  0.00     0.247 C 
HETATM    6  N6  UNL     1      22.474   5.632  51.766  1.00  0.00    -0.381 N 
HETATM    7  C12 UNL     1      21.277   5.439  51.024  1.00  0.00     0.104 C 
HETATM    8  C13 UNL     1      20.512   4.384  51.355  1.00  0.00     0.034 C 
HETATM    9 CL1  UNL     1      19.005   3.993  50.549  1.00  0.00    -0.087 Cl
HETATM   10  C14 UNL     1      20.947   3.483  52.479  1.00  0.00     0.131 C 
HETATM   11  H16 UNL     1      22.012   6.171  52.530  1.00  0.00     0.160 HD
ENDROOT
BRANCH   1  12
HETATM   12  N1  UNL     1      20.475   0.948  52.256  1.00  0.00    -0.322 N 
HETATM   13  C4  UNL     1      19.612   0.385  51.228  1.00  0.00     0.159 C 
BRANCH  12  14
HETATM   14  C3  UNL     1      20.778   0.528  53.576  1.00  0.00     0.152 A 
HETATM   15  C2  UNL     1      22.069  -0.140  53.622  1.00  0.00     0.205 A 
HETATM   16  C1  UNL     1      23.083  -0.769  54.182  1.00  0.00     0.044 C 
HETATM   17  O1  UNL     1      20.957   0.200  54.759  1.00  0.00    -0.323 OA
ENDBRANCH  12  14
ENDBRANCH   1  12
BRANCH   4  18
HETATM   18  C7  UNL     1      24.492   2.833  51.945  1.00  0.00     0.069 A 
HETATM   19  C8  UNL     1      24.650   2.801  53.312  1.00  0.00     0.169 A 
HETATM   20  N4  UNL     1      25.549   1.846  53.630  1.00  0.00    -0.183 NA
HETATM   21  N5  UNL     1      25.994   1.242  52.532  1.00  0.00    -0.283 N 
HETATM   22  C9  UNL     1      26.971   0.159  52.448  1.00  0.00     0.179 C 
HETATM   23  C10 UNL     1      25.352   1.841  51.517  1.00  0.00     0.142 A 
ENDBRANCH   4  18
TORSDOF 3
ENDMDL
MODEL 6
REMARK VINA RESULT:      -6.5      7.234     10.482
REMARK  3 active torsions:
REMARK  status: ('A' for Active; 'I' for Inactive)
REMARK    1  A    between atoms: C3_3  and  N1_5 
REMARK    2  A    between atoms: N1_5  and  C5_7 
REMARK    3  A    between atoms: N3_10  and  C7_11 
ROOT
HETATM    1  C5  UNL     1      27.893   8.157  48.438  1.00  0.00     0.109 C 
HETATM    2  N2  UNL     1      28.577   8.279  47.377  1.00  0.00    -0.257 NA
HETATM    3  C6  UNL     1      29.515   9.281  47.007  1.00  0.00     0.277 C 
HETATM    4  N3  UNL     1      30.575   9.485  47.967  1.00  0.00    -0.344 N 
HETATM    5  C11 UNL     1      30.948  10.715  48.631  1.00  0.00     0.247 C 
HETATM    6  N6  UNL     1      29.846  11.182  49.442  1.00  0.00    -0.381 N 
HETATM    7  C12 UNL     1      28.572  11.466  48.879  1.00  0.00     0.104 C 
HETATM    8  C13 UNL     1      27.655  10.482  48.906  1.00  0.00     0.034 C 
HETATM    9 CL1  UNL     1      26.035  10.655  48.258  1.00  0.00    -0.087 Cl
HETATM   10  C14 UNL     1      28.012   9.159  49.527  1.00  0.00     0.131 C 
HETATM   11  H16 UNL     1      29.565  11.432  50.414  1.00  0.00     0.160 HD
ENDROOT
BRANCH   1  12
HETATM   12  N1  UNL     1      27.053   7.012  48.447  1.00  0.00    -0.322 N 
HETATM   13  C4  UNL     1      25.629   7.315  48.428  1.00  0.00     0.159 C 
BRANCH  12  14
HETATM   14  C3  UNL     1      27.763   5.785  48.474  1.00  0.00     0.152 A 
HETATM   15  C2  UNL     1      26.942   4.725  49.041  1.00  0.00     0.205 A 
HETATM   16  C1  UNL     1      26.658   3.503  49.441  1.00  0.00     0.044 C 
HETATM   17  O1  UNL     1      28.460   4.759  48.458  1.00  0.00    -0.323 OA
ENDBRANCH  12  14
ENDBRANCH   1  12
BRANCH   4  18
HETATM   18  C7  UNL     1      31.309   8.291  48.240  1.00  0.00     0.069 A 
HETATM   19  C8  UNL     1      31.470   7.627  49.435  1.00  0.00     0.169 A 
HETATM   20  N4  UNL     1      32.246   6.541  49.235  1.00  0.00    -0.183 NA
HETATM   21  N5  UNL     1      32.605   6.455  47.958  1.00  0.00    -0.283 N 
HETATM   22  C9  UNL     1      33.440   5.429  47.337  1.00  0.00     0.179 C 
HETATM   23  C10 UNL     1      32.036   7.514  47.361  1.00  0.00     0.142 A 
ENDBRANCH   4  18
TORSDOF 3
ENDMDL
MODEL 7
REMARK VINA RESULT:      -6.3      3.043      5.084
REMARK  3 active torsions:
REMARK  status: ('A' for Active; 'I' for Inactive)
REMARK    1  A    between atoms: C3_3  and  N1_5 
REMARK    2  A    between atoms: N1_5  and  C5_7 
REMARK    3  A    between atoms: N3_10  and  C7_11 
ROOT
HETATM    1  C5  UNL     1      23.878   2.158  51.411  1.00  0.00     0.109 C 
HETATM    2  N2  UNL     1      23.151   1.738  50.461  1.00  0.00    -0.257 NA
HETATM    3  C6  UNL     1      21.825   1.224  50.484  1.00  0.00     0.277 C 
HETATM    4  N3  UNL     1      20.862   2.095  51.117  1.00  0.00    -0.344 N 
HETATM    5  C11 UNL     1      19.990   1.795  52.231  1.00  0.00     0.247 C 
HETATM    6  N6  UNL     1      20.784   1.487  53.399  1.00  0.00    -0.381 N 
HETATM    7  C12 UNL     1      21.726   0.422  53.402  1.00  0.00     0.104 C 
HETATM    8  C13 UNL     1      23.002   0.730  53.107  1.00  0.00     0.034 C 
HETATM    9 CL1  UNL     1      24.295  -0.453  53.063  1.00  0.00    -0.087 Cl
HETATM   10  C14 UNL     1      23.364   2.159  52.804  1.00  0.00     0.131 C 
HETATM   11  H16 UNL     1      20.974   1.768  54.385  1.00  0.00     0.160 HD
ENDROOT
BRANCH   1  12
HETATM   12  N1  UNL     1      25.162   2.599  50.995  1.00  0.00    -0.322 N 
HETATM   13  C4  UNL     1      26.268   1.927  51.661  1.00  0.00     0.159 C 
BRANCH  12  14
HETATM   14  C3  UNL     1      25.123   3.617  50.009  1.00  0.00     0.152 A 
HETATM   15  C2  UNL     1      26.465   3.941  49.549  1.00  0.00     0.205 A 
HETATM   16  C1  UNL     1      27.376   4.572  48.836  1.00  0.00     0.044 C 
HETATM   17  O1  UNL     1      24.992   4.507  49.155  1.00  0.00    -0.323 OA
ENDBRANCH  12  14
ENDBRANCH   1  12
BRANCH   4  18
HETATM   18  C7  UNL     1      20.811   3.389  50.514  1.00  0.00     0.069 A 
HETATM   19  C8  UNL     1      20.457   3.733  49.229  1.00  0.00     0.169 A 
HETATM   20  N4  UNL     1      20.552   5.072  49.089  1.00  0.00    -0.183 NA
HETATM   21  N5  UNL     1      20.953   5.631  50.227  1.00  0.00    -0.283 N 
HETATM   22  C9  UNL     1      21.178   7.051  50.487  1.00  0.00     0.179 C 
HETATM   23  C10 UNL     1      21.108   4.611  51.084  1.00  0.00     0.142 A 
ENDBRANCH   4  18
TORSDOF 3
ENDMDL
MODEL 8
REMARK VINA RESULT:      -6.2      2.487      5.078
REMARK  3 active torsions:
REMARK  status: ('A' for Active; 'I' for Inactive)
REMARK    1  A    between atoms: C3_3  and  N1_5 
REMARK    2  A    between atoms: N1_5  and  C5_7 
REMARK    3  A    between atoms: N3_10  and  C7_11 
ROOT
HETATM    1  C5  UNL     1      22.811   1.214  52.810  1.00  0.00     0.109 C 
HETATM    2  N2  UNL     1      23.312   2.315  53.190  1.00  0.00    -0.257 NA
HETATM    3  C6  UNL     1      24.660   2.766  53.153  1.00  0.00     0.277 C 
HETATM    4  N3  UNL     1      25.274   2.694  51.847  1.00  0.00    -0.344 N 
HETATM    5  C11 UNL     1      26.487   2.001  51.472  1.00  0.00     0.247 C 
HETATM    6  N6  UNL     1      26.324   0.583  51.698  1.00  0.00    -0.381 N 
HETATM    7  C12 UNL     1      26.012   0.062  52.984  1.00  0.00     0.104 C 
HETATM    8  C13 UNL     1      24.714  -0.149  53.263  1.00  0.00     0.034 C 
HETATM    9 CL1  UNL     1      24.148  -0.784  54.795  1.00  0.00    -0.087 Cl
HETATM   10  C14 UNL     1      23.676   0.162  52.219  1.00  0.00     0.131 C 
HETATM   11  H16 UNL     1      26.346  -0.351  51.233  1.00  0.00     0.160 HD
ENDROOT
BRANCH   1  12
HETATM   12  N1  UNL     1      21.408   1.126  53.009  1.00  0.00    -0.322 N 
HETATM   13  C4  UNL     1      20.678   2.337  52.663  1.00  0.00     0.159 C 
BRANCH  12  14
HETATM   14  C3  UNL     1      20.982  -0.129  53.511  1.00  0.00     0.152 A 
HETATM   15  C2  UNL     1      19.593  -0.382  53.159  1.00  0.00     0.205 A 
HETATM   16  C1  UNL     1      18.463  -1.059  53.116  1.00  0.00     0.044 C 
HETATM   17  O1  UNL     1      20.699  -1.239  53.987  1.00  0.00    -0.323 OA
ENDBRANCH  12  14
ENDBRANCH   1  12
BRANCH   4  18
HETATM   18  C7  UNL     1      24.549   3.426  50.857  1.00  0.00     0.069 A 
HETATM   19  C8  UNL     1      24.396   4.788  50.725  1.00  0.00     0.169 A 
HETATM   20  N4  UNL     1      23.627   5.043  49.646  1.00  0.00    -0.183 NA
HETATM   21  N5  UNL     1      23.264   3.908  49.056  1.00  0.00    -0.283 N 
HETATM   22  C9  UNL     1      22.434   3.754  47.863  1.00  0.00     0.179 C 
HETATM   23  C10 UNL     1      23.824   2.935  49.790  1.00  0.00     0.142 A 
ENDBRANCH   4  18
TORSDOF 3
ENDMDL
MODEL 9
REMARK VINA RESULT:      -6.1      2.662      4.905
REMARK  3 active torsions:
REMARK  status: ('A' for Active; 'I' for Inactive)
REMARK    1  A    between atoms: C3_3  and  N1_5 
REMARK    2  A    between atoms: N1_5  and  C5_7 
REMARK    3  A    between atoms: N3_10  and  C7_11 
ROOT
HETATM    1  C5  UNL     1      22.541   1.230  52.499  1.00  0.00     0.109 C 
HETATM    2  N2  UNL     1      22.563   0.917  51.271  1.00  0.00    -0.257 NA
HETATM    3  C6  UNL     1      21.491   0.610  50.388  1.00  0.00     0.277 C 
HETATM    4  N3  UNL     1      20.462   1.623  50.330  1.00  0.00    -0.344 N 
HETATM    5  C11 UNL     1      19.047   1.468  50.587  1.00  0.00     0.247 C 
HETATM    6  N6  UNL     1      18.847   1.052  51.957  1.00  0.00    -0.381 N 
HETATM    7  C12 UNL     1      19.423  -0.142  52.468  1.00  0.00     0.104 C 
HETATM    8  C13 UNL     1      20.609  -0.034  53.093  1.00  0.00     0.034 C 
HETATM    9 CL1  UNL     1      21.465  -1.400  53.782  1.00  0.00    -0.087 Cl
HETATM   10  C14 UNL     1      21.250   1.320  53.227  1.00  0.00     0.131 C 
HETATM   11  H16 UNL     1      18.382   1.311  52.854  1.00  0.00     0.160 HD
ENDROOT
BRANCH   1  12
HETATM   12  N1  UNL     1      23.828   1.468  53.050  1.00  0.00    -0.322 N 
HETATM   13  C4  UNL     1      24.214   2.872  53.082  1.00  0.00     0.159 C 
BRANCH  12  14
HETATM   14  C3  UNL     1      24.496   0.289  53.466  1.00  0.00     0.152 A 
HETATM   15  C2  UNL     1      25.715   0.088  52.697  1.00  0.00     0.205 A 
HETATM   16  C1  UNL     1      26.825  -0.522  52.333  1.00  0.00     0.044 C 
HETATM   17  O1  UNL     1      25.009  -0.755  53.895  1.00  0.00    -0.323 OA
ENDBRANCH  12  14
ENDBRANCH   1  12
BRANCH   4  18
HETATM   18  C7  UNL     1      20.971   2.904  49.957  1.00  0.00     0.069 A 
HETATM   19  C8  UNL     1      20.938   4.088  50.659  1.00  0.00     0.169 A 
HETATM   20  N4  UNL     1      21.535   5.051  49.928  1.00  0.00    -0.183 NA
HETATM   21  N5  UNL     1      21.965   4.558  48.771  1.00  0.00    -0.283 N 
HETATM   22  C9  UNL     1      22.661   5.274  47.704  1.00  0.00     0.179 C 
HETATM   23  C10 UNL     1      21.623   3.260  48.793  1.00  0.00     0.142 A 
ENDBRANCH   4  18
TORSDOF 3
ENDMDL
