MODEL 1
REMARK VINA RESULT:      -7.9      0.000      0.000
REMARK  6 active torsions:
REMARK  status: ('A' for Active; 'I' for Inactive)
REMARK    1  A    between atoms: C2_2  and  C3_3 
REMARK    2  A    between atoms: C4_4  and  O1_5 
REMARK    3  A    between atoms: C5_6  and  N1_7 
REMARK    4  A    between atoms: N1_7  and  N2_8 
REMARK    5  A    between atoms: N1_7  and  C12_15 
REMARK    6  A    between atoms: N2_8  and  C6_9 
ROOT
HETATM    1  N1  UNL     1      25.115   3.066  51.012  1.00  0.00    -0.253 N 
ENDROOT
BRANCH   1   2
HETATM    2  C5  UNL     1      25.412   2.007  51.918  1.00  0.00     0.091 A 
HETATM    3  C4  UNL     1      26.717   1.951  52.370  1.00  0.00     0.102 A 
HETATM    4  C3  UNL     1      27.167   0.981  53.272  1.00  0.00    -0.009 A 
HETATM    5  P1  UNL     1      25.988  -0.184  53.818  1.00  0.00    -0.018 P 
HETATM    6  C18 UNL     1      24.422   0.115  53.096  1.00  0.00    -0.045 A 
HETATM    7  C17 UNL     1      24.367   1.177  52.245  1.00  0.00     0.042 A 
HETATM    8  C19 UNL     1      23.254  -0.757  53.417  1.00  0.00     0.049 C 
BRANCH   3   9
HETATM    9  O1  UNL     1      27.665   2.872  51.943  1.00  0.00    -0.358 OA
HETATM   10  H6  UNL     1      27.927   2.808  50.956  1.00  0.00     0.217 HD
ENDBRANCH   3   9
BRANCH   4  11
HETATM   11  C2  UNL     1      28.579   0.974  53.718  1.00  0.00     0.038 C 
HETATM   12  C1  UNL     1      29.036  -0.482  53.634  1.00  0.00     0.010 C 
ENDBRANCH   4  11
ENDBRANCH   1   2
BRANCH   1  13
HETATM   13  N2  UNL     1      25.614   3.505  49.787  1.00  0.00    -0.293 N 
HETATM   14  H7  UNL     1      25.641   2.812  49.013  1.00  0.00     0.187 HD
BRANCH  13  15
HETATM   15  C6  UNL     1      26.143   4.676  49.191  1.00  0.00     0.048 A 
HETATM   16  C7  UNL     1      25.359   5.802  48.941  1.00  0.00     0.031 A 
HETATM   17  C8  UNL     1      26.074   6.832  48.361  1.00  0.00     0.002 A 
HETATM   18  C9  UNL     1      27.404   6.837  48.035  1.00  0.00     0.000 A 
HETATM   19  C10 UNL     1      28.110   5.687  48.314  1.00  0.00     0.002 A 
HETATM   20  C11 UNL     1      27.509   4.593  48.890  1.00  0.00     0.031 A 
ENDBRANCH  13  15
ENDBRANCH   1  13
BRANCH   1  21
HETATM   21  C12 UNL     1      24.024   3.794  51.603  1.00  0.00     0.062 A 
HETATM   22  C13 UNL     1      22.786   3.979  51.121  1.00  0.00    -0.033 A 
HETATM   23  C14 UNL     1      22.070   3.551  49.878  1.00  0.00     0.050 C 
HETATM   24  C15 UNL     1      22.379   4.777  52.290  1.00  0.00     0.011 A 
HETATM   25  C16 UNL     1      23.602   4.589  52.756  1.00  0.00     0.033 A 
ENDBRANCH   1  21
TORSDOF 6
ENDMDL
MODEL 2
REMARK VINA RESULT:      -7.5      2.046      6.003
REMARK  6 active torsions:
REMARK  status: ('A' for Active; 'I' for Inactive)
REMARK    1  A    between atoms: C2_2  and  C3_3 
REMARK    2  A    between atoms: C4_4  and  O1_5 
REMARK    3  A    between atoms: C5_6  and  N1_7 
REMARK    4  A    between atoms: N1_7  and  N2_8 
REMARK    5  A    between atoms: N1_7  and  C12_15 
REMARK    6  A    between atoms: N2_8  and  C6_9 
ROOT
HETATM    1  N1  UNL     1      25.000   1.121  53.141  1.00  0.00    -0.253 N 
ENDROOT
BRANCH   1   2
HETATM    2  C5  UNL     1      24.825   2.283  52.335  1.00  0.00     0.091 A 
HETATM    3  C4  UNL     1      25.750   2.457  51.322  1.00  0.00     0.102 A 
HETATM    4  C3  UNL     1      25.711   3.539  50.436  1.00  0.00    -0.009 A 
HETATM    5  P1  UNL     1      24.417   4.688  50.664  1.00  0.00    -0.018 P 
HETATM    6  C18 UNL     1      23.394   4.230  52.009  1.00  0.00    -0.045 A 
HETATM    7  C17 UNL     1      23.754   3.084  52.650  1.00  0.00     0.042 A 
HETATM    8  C19 UNL     1      22.218   5.065  52.392  1.00  0.00     0.049 C 
BRANCH   3   9
HETATM    9  O1  UNL     1      26.784   1.550  51.131  1.00  0.00    -0.358 OA
HETATM   10  H6  UNL     1      26.551   0.729  50.567  1.00  0.00     0.217 HD
ENDBRANCH   3   9
BRANCH   4  11
HETATM   11  C2  UNL     1      26.732   3.669  49.372  1.00  0.00     0.038 C 
HETATM   12  C1  UNL     1      26.704   5.136  48.945  1.00  0.00     0.010 C 
ENDBRANCH   4  11
ENDBRANCH   1   2
BRANCH   1  13
HETATM   13  N2  UNL     1      26.023   0.592  53.925  1.00  0.00    -0.293 N 
HETATM   14  H7  UNL     1      25.905   0.647  54.957  1.00  0.00     0.187 HD
BRANCH  13  15
HETATM   15  C6  UNL     1      27.278  -0.050  53.779  1.00  0.00     0.048 A 
HETATM   16  C7  UNL     1      28.465   0.525  54.231  1.00  0.00     0.031 A 
HETATM   17  C8  UNL     1      29.567  -0.272  53.994  1.00  0.00     0.002 A 
HETATM   18  C9  UNL     1      29.588  -1.502  53.392  1.00  0.00     0.000 A 
HETATM   19  C10 UNL     1      28.375  -2.002  52.973  1.00  0.00     0.002 A 
HETATM   20  C11 UNL     1      27.205  -1.301  53.152  1.00  0.00     0.031 A 
ENDBRANCH  13  15
ENDBRANCH   1  13
BRANCH   1  21
HETATM   21  C12 UNL     1      23.764   0.390  53.050  1.00  0.00     0.062 A 
HETATM   22  C13 UNL     1      23.266  -0.516  53.904  1.00  0.00    -0.033 A 
HETATM   23  C14 UNL     1      23.734  -1.106  55.198  1.00  0.00     0.050 C 
HETATM   24  C15 UNL     1      22.062  -0.725  53.083  1.00  0.00     0.011 A 
HETATM   25  C16 UNL     1      22.561   0.170  52.247  1.00  0.00     0.033 A 
ENDBRANCH   1  21
TORSDOF 6
ENDMDL
MODEL 3
REMARK VINA RESULT:      -7.4      2.288      4.189
REMARK  6 active torsions:
REMARK  status: ('A' for Active; 'I' for Inactive)
REMARK    1  A    between atoms: C2_2  and  C3_3 
REMARK    2  A    between atoms: C4_4  and  O1_5 
REMARK    3  A    between atoms: C5_6  and  N1_7 
REMARK    4  A    between atoms: N1_7  and  N2_8 
REMARK    5  A    between atoms: N1_7  and  C12_15 
REMARK    6  A    between atoms: N2_8  and  C6_9 
ROOT
HETATM    1  N1  UNL     1      24.548   3.295  52.274  1.00  0.00    -0.253 N 
ENDROOT
BRANCH   1   2
HETATM    2  C5  UNL     1      24.668   2.027  52.914  1.00  0.00     0.091 A 
HETATM    3  C4  UNL     1      23.547   1.220  52.866  1.00  0.00     0.102 A 
HETATM    4  C3  UNL     1      23.506  -0.057  53.436  1.00  0.00    -0.009 A 
HETATM    5  P1  UNL     1      24.960  -0.606  54.228  1.00  0.00    -0.018 P 
HETATM    6  C18 UNL     1      26.223   0.605  54.142  1.00  0.00    -0.045 A 
HETATM    7  C17 UNL     1      25.885   1.752  53.491  1.00  0.00     0.042 A 
HETATM    8  C19 UNL     1      27.561   0.356  54.753  1.00  0.00     0.049 C 
BRANCH   3   9
HETATM    9  O1  UNL     1      22.383   1.645  52.239  1.00  0.00    -0.358 OA
HETATM   10  H6  UNL     1      21.593   0.997  52.289  1.00  0.00     0.217 HD
ENDBRANCH   3   9
BRANCH   4  11
HETATM   11  C2  UNL     1      22.273  -0.872  53.351  1.00  0.00     0.038 C 
HETATM   12  C1  UNL     1      21.640  -0.818  54.741  1.00  0.00     0.010 C 
ENDBRANCH   4  11
ENDBRANCH   1   2
BRANCH   1  13
HETATM   13  N2  UNL     1      23.853   4.477  52.518  1.00  0.00    -0.293 N 
HETATM   14  H7  UNL     1      23.678   4.726  53.512  1.00  0.00     0.187 HD
BRANCH  13  15
HETATM   15  C6  UNL     1      23.252   5.546  51.807  1.00  0.00     0.048 A 
HETATM   16  C7  UNL     1      21.888   5.574  51.519  1.00  0.00     0.031 A 
HETATM   17  C8  UNL     1      21.513   6.708  50.826  1.00  0.00     0.002 A 
HETATM   18  C9  UNL     1      22.318   7.740  50.426  1.00  0.00     0.000 A 
HETATM   19  C10 UNL     1      23.653   7.639  50.748  1.00  0.00     0.002 A 
HETATM   20  C11 UNL     1      24.149   6.556  51.436  1.00  0.00     0.031 A 
ENDBRANCH  13  15
ENDBRANCH   1  13
BRANCH   1  21
HETATM   21  C12 UNL     1      25.385   3.225  51.106  1.00  0.00     0.062 A 
HETATM   22  C13 UNL     1      25.016   3.162  49.817  1.00  0.00    -0.033 A 
HETATM   23  C14 UNL     1      23.701   3.138  49.104  1.00  0.00     0.050 C 
HETATM   24  C15 UNL     1      26.413   3.123  49.352  1.00  0.00     0.011 A 
HETATM   25  C16 UNL     1      26.766   3.185  50.624  1.00  0.00     0.033 A 
ENDBRANCH   1  21
TORSDOF 6
ENDMDL
MODEL 4
REMARK VINA RESULT:      -7.4      2.334      5.191
REMARK  6 active torsions:
REMARK  status: ('A' for Active; 'I' for Inactive)
REMARK    1  A    between atoms: C2_2  and  C3_3 
REMARK    2  A    between atoms: C4_4  and  O1_5 
REMARK    3  A    between atoms: C5_6  and  N1_7 
REMARK    4  A    between atoms: N1_7  and  N2_8 
REMARK    5  A    between atoms: N1_7  and  C12_15 
REMARK    6  A    between atoms: N2_8  and  C6_9 
ROOT
HETATM    1  N1  UNL     1      24.704   1.817  51.476  1.00  0.00    -0.253 N 
ENDROOT
BRANCH   1   2
HETATM    2  C5  UNL     1      23.365   1.352  51.629  1.00  0.00     0.091 A 
HETATM    3  C4  UNL     1      23.053   0.813  52.864  1.00  0.00     0.102 A 
HETATM    4  C3  UNL     1      21.781   0.323  53.178  1.00  0.00    -0.009 A 
HETATM    5  P1  UNL     1      20.574   0.421  51.922  1.00  0.00    -0.018 P 
HETATM    6  C18 UNL     1      21.231   1.142  50.468  1.00  0.00    -0.045 A 
HETATM    7  C17 UNL     1      22.542   1.504  50.539  1.00  0.00     0.042 A 
HETATM    8  C19 UNL     1      20.379   1.330  49.257  1.00  0.00     0.049 C 
BRANCH   3   9
HETATM    9  O1  UNL     1      24.004   0.729  53.871  1.00  0.00    -0.358 OA
HETATM   10  H6  UNL     1      24.040   1.526  54.512  1.00  0.00     0.217 HD
ENDBRANCH   3   9
BRANCH   4  11
HETATM   11  C2  UNL     1      21.510  -0.242  54.520  1.00  0.00     0.038 C 
HETATM   12  C1  UNL     1      21.579  -1.760  54.354  1.00  0.00     0.010 C 
ENDBRANCH   4  11
ENDBRANCH   1   2
BRANCH   1  13
HETATM   13  N2  UNL     1      25.973   1.244  51.519  1.00  0.00    -0.293 N 
HETATM   14  H7  UNL     1      26.324   0.807  50.644  1.00  0.00     0.187 HD
BRANCH  13  15
HETATM   15  C6  UNL     1      27.038   1.038  52.431  1.00  0.00     0.048 A 
HETATM   16  C7  UNL     1      27.406  -0.233  52.869  1.00  0.00     0.031 A 
HETATM   17  C8  UNL     1      28.471  -0.207  53.749  1.00  0.00     0.002 A 
HETATM   18  C9  UNL     1      29.151   0.895  54.195  1.00  0.00     0.000 A 
HETATM   19  C10 UNL     1      28.726   2.115  53.716  1.00  0.00     0.002 A 
HETATM   20  C11 UNL     1      27.675   2.219  52.835  1.00  0.00     0.031 A 
ENDBRANCH  13  15
ENDBRANCH   1  13
BRANCH   1  21
HETATM   21  C12 UNL     1      24.602   3.229  51.223  1.00  0.00     0.062 A 
HETATM   22  C13 UNL     1      25.334   3.982  50.389  1.00  0.00    -0.033 A 
HETATM   23  C14 UNL     1      26.468   3.708  49.451  1.00  0.00     0.050 C 
HETATM   24  C15 UNL     1      24.598   5.207  50.743  1.00  0.00     0.011 A 
HETATM   25  C16 UNL     1      23.882   4.456  51.562  1.00  0.00     0.033 A 
ENDBRANCH   1  21
TORSDOF 6
ENDMDL
MODEL 5
REMARK VINA RESULT:      -7.4      2.498      7.040
REMARK  6 active torsions:
REMARK  status: ('A' for Active; 'I' for Inactive)
REMARK    1  A    between atoms: C2_2  and  C3_3 
REMARK    2  A    between atoms: C4_4  and  O1_5 
REMARK    3  A    between atoms: C5_6  and  N1_7 
REMARK    4  A    between atoms: N1_7  and  N2_8 
REMARK    5  A    between atoms: N1_7  and  C12_15 
REMARK    6  A    between atoms: N2_8  and  C6_9 
ROOT
HETATM    1  N1  UNL     1      24.505   1.904  51.867  1.00  0.00    -0.253 N 
ENDROOT
BRANCH   1   2
HETATM    2  C5  UNL     1      24.659   3.155  51.203  1.00  0.00     0.091 A 
HETATM    3  C4  UNL     1      23.670   4.091  51.445  1.00  0.00     0.102 A 
HETATM    4  C3  UNL     1      23.680   5.370  50.880  1.00  0.00    -0.009 A 
HETATM    5  P1  UNL     1      25.023   5.750  49.832  1.00  0.00    -0.018 P 
HETATM    6  C18 UNL     1      26.125   4.396  49.700  1.00  0.00    -0.045 A 
HETATM    7  C17 UNL     1      25.775   3.289  50.412  1.00  0.00     0.042 A 
HETATM    8  C19 UNL     1      27.351   4.490  48.855  1.00  0.00     0.049 C 
BRANCH   3   9
HETATM    9  O1  UNL     1      22.596   3.800  52.277  1.00  0.00    -0.358 OA
HETATM   10  H6  UNL     1      21.713   3.599  51.803  1.00  0.00     0.217 HD
ENDBRANCH   3   9
BRANCH   4  11
HETATM   11  C2  UNL     1      22.590   6.326  51.180  1.00  0.00     0.038 C 
HETATM   12  C1  UNL     1      22.971   7.627  50.472  1.00  0.00     0.010 C 
ENDBRANCH   4  11
ENDBRANCH   1   2
BRANCH   1  13
HETATM   13  N2  UNL     1      23.558   0.882  51.869  1.00  0.00    -0.293 N 
HETATM   14  H7  UNL     1      23.301   0.474  50.948  1.00  0.00     0.187 HD
BRANCH  13  15
HETATM   15  C6  UNL     1      22.759   0.148  52.781  1.00  0.00     0.048 A 
HETATM   16  C7  UNL     1      23.311  -0.581  53.833  1.00  0.00     0.031 A 
HETATM   17  C8  UNL     1      22.354  -1.214  54.602  1.00  0.00     0.002 A 
HETATM   18  C9  UNL     1      20.996  -1.185  54.427  1.00  0.00     0.000 A 
HETATM   19  C10 UNL     1      20.529  -0.442  53.365  1.00  0.00     0.002 A 
HETATM   20  C11 UNL     1      21.384   0.234  52.526  1.00  0.00     0.031 A 
ENDBRANCH  13  15
ENDBRANCH   1  13
BRANCH   1  21
HETATM   21  C12 UNL     1      25.659   1.765  52.715  1.00  0.00     0.062 A 
HETATM   22  C13 UNL     1      26.556   0.768  52.746  1.00  0.00    -0.033 A 
HETATM   23  C14 UNL     1      26.729  -0.511  51.988  1.00  0.00     0.050 C 
HETATM   24  C15 UNL     1      27.326   1.407  53.827  1.00  0.00     0.011 A 
HETATM   25  C16 UNL     1      26.437   2.384  53.788  1.00  0.00     0.033 A 
ENDBRANCH   1  21
TORSDOF 6
ENDMDL
MODEL 6
REMARK VINA RESULT:      -7.3      2.263      5.810
REMARK  6 active torsions:
REMARK  status: ('A' for Active; 'I' for Inactive)
REMARK    1  A    between atoms: C2_2  and  C3_3 
REMARK    2  A    between atoms: C4_4  and  O1_5 
REMARK    3  A    between atoms: C5_6  and  N1_7 
REMARK    4  A    between atoms: N1_7  and  N2_8 
REMARK    5  A    between atoms: N1_7  and  C12_15 
REMARK    6  A    between atoms: N2_8  and  C6_9 
ROOT
HETATM    1  N1  UNL     1      24.661   2.567  51.731  1.00  0.00    -0.253 N 
ENDROOT
BRANCH   1   2
HETATM    2  C5  UNL     1      24.853   3.780  51.006  1.00  0.00     0.091 A 
HETATM    3  C4  UNL     1      25.985   3.836  50.214  1.00  0.00     0.102 A 
HETATM    4  C3  UNL     1      26.310   4.949  49.433  1.00  0.00    -0.009 A 
HETATM    5  P1  UNL     1      25.205   6.297  49.496  1.00  0.00    -0.018 P 
HETATM    6  C18 UNL     1      23.862   5.965  50.569  1.00  0.00    -0.045 A 
HETATM    7  C17 UNL     1      23.886   4.743  51.170  1.00  0.00     0.042 A 
HETATM    8  C19 UNL     1      22.786   6.976  50.782  1.00  0.00     0.049 C 
BRANCH   3   9
HETATM    9  O1  UNL     1      26.872   2.769  50.156  1.00  0.00    -0.358 OA
HETATM   10  H6  UNL     1      27.091   2.328  51.052  1.00  0.00     0.217 HD
ENDBRANCH   3   9
BRANCH   4  11
HETATM   11  C2  UNL     1      27.538   4.946  48.606  1.00  0.00     0.038 C 
HETATM   12  C1  UNL     1      27.808   6.409  48.255  1.00  0.00     0.010 C 
ENDBRANCH   4  11
ENDBRANCH   1   2
BRANCH   1  13
HETATM   13  N2  UNL     1      25.325   1.901  52.758  1.00  0.00    -0.293 N 
HETATM   14  H7  UNL     1      24.996   2.080  53.728  1.00  0.00     0.187 HD
BRANCH  13  15
HETATM   15  C6  UNL     1      26.388   0.982  52.944  1.00  0.00     0.048 A 
HETATM   16  C7  UNL     1      27.639   1.378  53.416  1.00  0.00     0.031 A 
HETATM   17  C8  UNL     1      28.525   0.325  53.528  1.00  0.00     0.002 A 
HETATM   18  C9  UNL     1      28.289  -0.992  53.234  1.00  0.00     0.000 A 
HETATM   19  C10 UNL     1      27.029  -1.303  52.773  1.00  0.00     0.002 A 
HETATM   20  C11 UNL     1      26.059  -0.340  52.618  1.00  0.00     0.031 A 
ENDBRANCH  13  15
ENDBRANCH   1  13
BRANCH   1  21
HETATM   21  C12 UNL     1      23.471   1.969  51.187  1.00  0.00     0.062 A 
HETATM   22  C13 UNL     1      22.557   1.213  51.812  1.00  0.00    -0.033 A 
HETATM   23  C14 UNL     1      22.393   0.710  53.213  1.00  0.00     0.050 C 
HETATM   24  C15 UNL     1      21.755   1.054  50.588  1.00  0.00     0.011 A 
HETATM   25  C16 UNL     1      22.661   1.800  49.980  1.00  0.00     0.033 A 
ENDBRANCH   1  21
TORSDOF 6
ENDMDL
MODEL 7
REMARK VINA RESULT:      -7.2      2.683      5.957
REMARK  6 active torsions:
REMARK  status: ('A' for Active; 'I' for Inactive)
REMARK    1  A    between atoms: C2_2  and  C3_3 
REMARK    2  A    between atoms: C4_4  and  O1_5 
REMARK    3  A    between atoms: C5_6  and  N1_7 
REMARK    4  A    between atoms: N1_7  and  N2_8 
REMARK    5  A    between atoms: N1_7  and  C12_15 
REMARK    6  A    between atoms: N2_8  and  C6_9 
ROOT
HETATM    1  N1  UNL     1      23.522   2.127  52.453  1.00  0.00    -0.253 N 
ENDROOT
BRANCH   1   2
HETATM    2  C5  UNL     1      23.421   2.970  51.307  1.00  0.00     0.091 A 
HETATM    3  C4  UNL     1      23.697   4.308  51.518  1.00  0.00     0.102 A 
HETATM    4  C3  UNL     1      23.654   5.262  50.497  1.00  0.00    -0.009 A 
HETATM    5  P1  UNL     1      23.229   4.684  48.906  1.00  0.00    -0.018 P 
HETATM    6  C18 UNL     1      22.933   2.959  48.918  1.00  0.00    -0.045 A 
HETATM    7  C17 UNL     1      23.074   2.353  50.129  1.00  0.00     0.042 A 
HETATM    8  C19 UNL     1      22.554   2.240  47.666  1.00  0.00     0.049 C 
BRANCH   3   9
HETATM    9  O1  UNL     1      24.035   4.780  52.780  1.00  0.00    -0.358 OA
HETATM   10  H6  UNL     1      23.888   4.124  53.550  1.00  0.00     0.217 HD
ENDBRANCH   3   9
BRANCH   4  11
HETATM   11  C2  UNL     1      23.960   6.681  50.788  1.00  0.00     0.038 C 
HETATM   12  C1  UNL     1      25.397   6.903  50.318  1.00  0.00     0.010 C 
ENDBRANCH   4  11
ENDBRANCH   1   2
BRANCH   1  13
HETATM   13  N2  UNL     1      24.543   1.720  53.308  1.00  0.00    -0.293 N 
HETATM   14  H7  UNL     1      24.530   2.101  54.275  1.00  0.00     0.187 HD
BRANCH  13  15
HETATM   15  C6  UNL     1      25.693   0.891  53.304  1.00  0.00     0.048 A 
HETATM   16  C7  UNL     1      26.052   0.123  52.198  1.00  0.00     0.031 A 
HETATM   17  C8  UNL     1      27.208  -0.604  52.406  1.00  0.00     0.002 A 
HETATM   18  C9  UNL     1      27.980  -0.628  53.536  1.00  0.00     0.000 A 
HETATM   19  C10 UNL     1      27.559   0.157  54.586  1.00  0.00     0.002 A 
HETATM   20  C11 UNL     1      26.422   0.927  54.501  1.00  0.00     0.031 A 
ENDBRANCH  13  15
ENDBRANCH   1  13
BRANCH   1  21
HETATM   21  C12 UNL     1      22.193   1.631  52.693  1.00  0.00     0.062 A 
HETATM   22  C13 UNL     1      21.806   0.371  52.940  1.00  0.00    -0.033 A 
HETATM   23  C14 UNL     1      22.517  -0.940  53.062  1.00  0.00     0.050 C 
HETATM   24  C15 UNL     1      20.390   0.759  53.050  1.00  0.00     0.011 A 
HETATM   25  C16 UNL     1      20.782   1.997  52.805  1.00  0.00     0.033 A 
ENDBRANCH   1  21
TORSDOF 6
ENDMDL
MODEL 8
REMARK VINA RESULT:      -7.0      2.590      3.505
REMARK  6 active torsions:
REMARK  status: ('A' for Active; 'I' for Inactive)
REMARK    1  A    between atoms: C2_2  and  C3_3 
REMARK    2  A    between atoms: C4_4  and  O1_5 
REMARK    3  A    between atoms: C5_6  and  N1_7 
REMARK    4  A    between atoms: N1_7  and  N2_8 
REMARK    5  A    between atoms: N1_7  and  C12_15 
REMARK    6  A    between atoms: N2_8  and  C6_9 
ROOT
HETATM    1  N1  UNL     1      22.347   2.590  51.727  1.00  0.00    -0.253 N 
ENDROOT
BRANCH   1   2
HETATM    2  C5  UNL     1      23.013   1.544  52.430  1.00  0.00     0.091 A 
HETATM    3  C4  UNL     1      24.389   1.515  52.303  1.00  0.00     0.102 A 
HETATM    4  C3  UNL     1      25.190   0.560  52.939  1.00  0.00    -0.009 A 
HETATM    5  P1  UNL     1      24.364  -0.622  53.922  1.00  0.00    -0.018 P 
HETATM    6  C18 UNL     1      22.633  -0.357  53.909  1.00  0.00    -0.045 A 
HETATM    7  C17 UNL     1      22.212   0.697  53.157  1.00  0.00     0.042 A 
HETATM    8  C19 UNL     1      21.720  -1.248  54.682  1.00  0.00     0.049 C 
BRANCH   3   9
HETATM    9  O1  UNL     1      25.058   2.450  51.524  1.00  0.00    -0.358 OA
HETATM   10  H6  UNL     1      25.180   2.197  50.540  1.00  0.00     0.217 HD
ENDBRANCH   3   9
BRANCH   4  11
HETATM   11  C2  UNL     1      26.660   0.583  52.763  1.00  0.00     0.038 C 
HETATM   12  C1  UNL     1      27.062  -0.854  52.432  1.00  0.00     0.010 C 
ENDBRANCH   4  11
ENDBRANCH   1   2
BRANCH   1  13
HETATM   13  N2  UNL     1      22.047   3.928  51.974  1.00  0.00    -0.293 N 
HETATM   14  H7  UNL     1      21.372   4.127  52.740  1.00  0.00     0.187 HD
BRANCH  13  15
HETATM   15  C6  UNL     1      22.378   5.219  51.493  1.00  0.00     0.048 A 
HETATM   16  C7  UNL     1      21.427   6.071  50.933  1.00  0.00     0.031 A 
HETATM   17  C8  UNL     1      21.963   7.280  50.536  1.00  0.00     0.002 A 
HETATM   18  C9  UNL     1      23.267   7.686  50.643  1.00  0.00     0.000 A 
HETATM   19  C10 UNL     1      24.145   6.788  51.208  1.00  0.00     0.002 A 
HETATM   20  C11 UNL     1      23.732   5.550  51.641  1.00  0.00     0.031 A 
ENDBRANCH  13  15
ENDBRANCH   1  13
BRANCH   1  21
HETATM   21  C12 UNL     1      21.924   2.017  50.478  1.00  0.00     0.062 A 
HETATM   22  C13 UNL     1      22.356   2.301  49.240  1.00  0.00    -0.033 A 
HETATM   23  C14 UNL     1      23.367   3.248  48.675  1.00  0.00     0.050 C 
HETATM   24  C15 UNL     1      21.448   1.318  48.627  1.00  0.00     0.011 A 
HETATM   25  C16 UNL     1      21.029   1.044  49.850  1.00  0.00     0.033 A 
ENDBRANCH   1  21
TORSDOF 6
ENDMDL
MODEL 9
REMARK VINA RESULT:      -6.9      2.724      6.446
REMARK  6 active torsions:
REMARK  status: ('A' for Active; 'I' for Inactive)
REMARK    1  A    between atoms: C2_2  and  C3_3 
REMARK    2  A    between atoms: C4_4  and  O1_5 
REMARK    3  A    between atoms: C5_6  and  N1_7 
REMARK    4  A    between atoms: N1_7  and  N2_8 
REMARK    5  A    between atoms: N1_7  and  C12_15 
REMARK    6  A    between atoms: N2_8  and  C6_9 
ROOT
HETATM    1  N1  UNL     1      23.950   2.796  50.655  1.00  0.00    -0.253 N 
ENDROOT
BRANCH   1   2
HETATM    2  C5  UNL     1      24.507   4.057  50.293  1.00  0.00     0.091 A 
HETATM    3  C4  UNL     1      23.767   5.168  50.653  1.00  0.00     0.102 A 
HETATM    4  C3  UNL     1      24.181   6.476  50.383  1.00  0.00    -0.009 A 
HETATM    5  P1  UNL     1      25.706   6.657  49.553  1.00  0.00    -0.018 P 
HETATM    6  C18 UNL     1      26.432   5.099  49.218  1.00  0.00    -0.045 A 
HETATM    7  C17 UNL     1      25.717   4.021  49.642  1.00  0.00     0.042 A 
HETATM    8  C19 UNL     1      27.744   5.005  48.514  1.00  0.00     0.049 C 
BRANCH   3   9
HETATM    9  O1  UNL     1      22.553   5.037  51.313  1.00  0.00    -0.358 OA
HETATM   10  H6  UNL     1      21.892   5.807  51.178  1.00  0.00     0.217 HD
ENDBRANCH   3   9
BRANCH   4  11
HETATM   11  C2  UNL     1      23.342   7.624  50.795  1.00  0.00     0.038 C 
HETATM   12  C1  UNL     1      23.126   8.457  49.531  1.00  0.00     0.010 C 
ENDBRANCH   4  11
ENDBRANCH   1   2
BRANCH   1  13
HETATM   13  N2  UNL     1      24.057   1.928  51.739  1.00  0.00    -0.293 N 
HETATM   14  H7  UNL     1      23.267   1.915  52.414  1.00  0.00     0.187 HD
BRANCH  13  15
HETATM   15  C6  UNL     1      24.958   0.976  52.279  1.00  0.00     0.048 A 
HETATM   16  C7  UNL     1      26.252   0.814  51.786  1.00  0.00     0.031 A 
HETATM   17  C8  UNL     1      26.961  -0.161  52.459  1.00  0.00     0.002 A 
HETATM   18  C9  UNL     1      26.525  -0.931  53.504  1.00  0.00     0.000 A 
HETATM   19  C10 UNL     1      25.235  -0.711  53.934  1.00  0.00     0.002 A 
HETATM   20  C11 UNL     1      24.429   0.234  53.342  1.00  0.00     0.031 A 
ENDBRANCH  13  15
ENDBRANCH   1  13
BRANCH   1  21
HETATM   21  C12 UNL     1      23.085   2.423  49.567  1.00  0.00     0.062 A 
HETATM   22  C13 UNL     1      22.062   1.556  49.574  1.00  0.00    -0.033 A 
HETATM   23  C14 UNL     1      21.437   0.681  50.615  1.00  0.00     0.050 C 
HETATM   24  C15 UNL     1      21.774   1.783  48.148  1.00  0.00     0.011 A 
HETATM   25  C16 UNL     1      22.784   2.636  48.151  1.00  0.00     0.033 A 
ENDBRANCH   1  21
TORSDOF 6
ENDMDL
