MODEL 1
REMARK VINA RESULT:      -8.5      0.000      0.000
REMARK  7 active torsions:
REMARK  status: ('A' for Active; 'I' for Inactive)
REMARK    1  A    between atoms: O1_2  and  C2_3 
REMARK    2  A    between atoms: C8_11  and  N3_12 
REMARK    3  A    between atoms: N3_12  and  C9_13 
REMARK    4  A    between atoms: C17_23  and  N4_24 
REMARK    5  A    between atoms: N4_24  and  C18_25 
REMARK    6  A    between atoms: C18_25  and  C20_27 
REMARK    7  A    between atoms: C20_27  and  N5_28 
ROOT
HETATM    1  C2  UNL     1      22.528  -0.050  53.261  1.00  0.00     0.096 A 
HETATM    2  C3  UNL     1      21.472   0.811  53.078  1.00  0.00     0.071 A 
HETATM    3  C4  UNL     1      21.638   2.088  52.594  1.00  0.00     0.071 A 
HETATM    4  N1  UNL     1      20.541   2.869  52.445  1.00  0.00    -0.259 NA
HETATM    5  C5  UNL     1      20.612   4.119  51.981  1.00  0.00     0.142 A 
HETATM    6  C6  UNL     1      21.887   4.559  51.664  1.00  0.00     0.089 A 
HETATM    7  C7  UNL     1      22.108   5.889  51.152  1.00  0.00     0.103 C 
HETATM    8  N2  UNL     1      22.274   6.969  50.730  1.00  0.00    -0.191 NA
HETATM    9  C8  UNL     1      23.023   3.788  51.805  1.00  0.00     0.067 A 
HETATM   10  C15 UNL     1      22.912   2.488  52.291  1.00  0.00     0.023 A 
HETATM   11  C16 UNL     1      23.975   1.630  52.473  1.00  0.00     0.048 A 
HETATM   12  C17 UNL     1      23.838   0.344  52.958  1.00  0.00     0.063 A 
ENDROOT
BRANCH   9  13
HETATM   13  N3  UNL     1      24.310   4.271  51.463  1.00  0.00    -0.356 N 
HETATM   14  H6  UNL     1      24.870   4.788  52.180  1.00  0.00     0.166 HD
BRANCH  13  15
HETATM   15  C9  UNL     1      24.962   4.134  50.205  1.00  0.00     0.027 C 
HETATM   16  C10 UNL     1      24.613   4.851  49.175  1.00  0.00     0.042 C 
HETATM   17  C11 UNL     1      25.450   5.727  48.642  1.00  0.00     0.150 C 
HETATM   18  F1  UNL     1      25.090   6.878  48.025  1.00  0.00    -0.203 F 
HETATM   19  C12 UNL     1      26.873   5.353  48.768  1.00  0.00     0.070 C 
HETATM   20 CL1  UNL     1      28.127   6.431  48.217  1.00  0.00    -0.081 Cl
HETATM   21  C13 UNL     1      27.163   4.173  49.315  1.00  0.00     0.006 C 
HETATM   22  C14 UNL     1      26.089   3.231  49.799  1.00  0.00     0.087 C 
ENDBRANCH  13  15
ENDBRANCH   9  13
BRANCH  12  23
HETATM   23  N4  UNL     1      24.961  -0.513  53.136  1.00  0.00    -0.382 N 
HETATM   24  H11 UNL     1      24.687  -1.455  53.555  1.00  0.00     0.160 HD
BRANCH  23  25
HETATM   25  C18 UNL     1      26.358  -0.216  52.810  1.00  0.00     0.106 C 
HETATM   26  C19 UNL     1      26.940  -1.512  52.277  1.00  0.00     0.034 C 
BRANCH  25  27
HETATM   27  C20 UNL     1      27.008   0.179  54.116  1.00  0.00     0.295 C 
BRANCH  27  28
HETATM   28  N5  UNL     1      28.023   1.163  54.018  1.00  0.00     0.081 N 
HETATM   29  C21 UNL     1      29.367   0.709  53.902  1.00  0.00     0.309 C 
HETATM   30  C22 UNL     1      27.701   2.130  52.993  1.00  0.00     0.309 C 
ENDBRANCH  27  28
ENDBRANCH  25  27
ENDBRANCH  23  25
ENDBRANCH  12  23
BRANCH   1  31
HETATM   31  O1  UNL     1      22.326  -1.328  53.750  1.00  0.00    -0.354 OA
HETATM   32  C1  UNL     1      21.189  -1.743  54.461  1.00  0.00     0.210 C 
ENDBRANCH   1  31
TORSDOF 7
ENDMDL
MODEL 2
REMARK VINA RESULT:      -8.3      2.857      5.689
REMARK  7 active torsions:
REMARK  status: ('A' for Active; 'I' for Inactive)
REMARK    1  A    between atoms: O1_2  and  C2_3 
REMARK    2  A    between atoms: C8_11  and  N3_12 
REMARK    3  A    between atoms: N3_12  and  C9_13 
REMARK    4  A    between atoms: C17_23  and  N4_24 
REMARK    5  A    between atoms: N4_24  and  C18_25 
REMARK    6  A    between atoms: C18_25  and  C20_27 
REMARK    7  A    between atoms: C20_27  and  N5_28 
ROOT
HETATM    1  C2  UNL     1      26.455   1.849  52.365  1.00  0.00     0.096 A 
HETATM    2  C3  UNL     1      25.920   0.801  53.075  1.00  0.00     0.071 A 
HETATM    3  C4  UNL     1      24.567   0.555  53.117  1.00  0.00     0.071 A 
HETATM    4  N1  UNL     1      24.125  -0.501  53.843  1.00  0.00    -0.259 NA
HETATM    5  C5  UNL     1      22.830  -0.812  53.937  1.00  0.00     0.142 A 
HETATM    6  C6  UNL     1      21.972   0.023  53.240  1.00  0.00     0.089 A 
HETATM    7  C7  UNL     1      20.547  -0.198  53.254  1.00  0.00     0.103 C 
HETATM    8  N2  UNL     1      19.391  -0.392  53.268  1.00  0.00    -0.191 NA
HETATM    9  C8  UNL     1      22.390   1.106  52.494  1.00  0.00     0.067 A 
HETATM   10  C15 UNL     1      23.749   1.400  52.417  1.00  0.00     0.023 A 
HETATM   11  C16 UNL     1      24.280   2.453  51.704  1.00  0.00     0.048 A 
HETATM   12  C17 UNL     1      25.632   2.724  51.645  1.00  0.00     0.063 A 
ENDROOT
BRANCH   9  13
HETATM   13  N3  UNL     1      21.481   1.932  51.788  1.00  0.00    -0.356 N 
HETATM   14  H6  UNL     1      21.097   2.786  52.256  1.00  0.00     0.166 HD
BRANCH  13  15
HETATM   15  C9  UNL     1      21.004   1.733  50.462  1.00  0.00     0.027 C 
HETATM   16  C10 UNL     1      20.103   2.514  49.938  1.00  0.00     0.042 C 
HETATM   17  C11 UNL     1      20.388   3.275  48.893  1.00  0.00     0.150 C 
HETATM   18  F1  UNL     1      19.826   4.478  48.625  1.00  0.00    -0.203 F 
HETATM   19  C12 UNL     1      21.409   2.703  47.993  1.00  0.00     0.070 C 
HETATM   20 CL1  UNL     1      21.989   3.606  46.619  1.00  0.00    -0.081 Cl
HETATM   21  C13 UNL     1      21.870   1.482  48.266  1.00  0.00     0.006 C 
HETATM   22  C14 UNL     1      21.380   0.690  49.452  1.00  0.00     0.087 C 
ENDBRANCH  13  15
ENDBRANCH   9  13
BRANCH  12  23
HETATM   23  N4  UNL     1      26.144   3.825  50.900  1.00  0.00    -0.382 N 
HETATM   24  H11 UNL     1      26.729   4.482  51.502  1.00  0.00     0.160 HD
BRANCH  23  25
HETATM   25  C18 UNL     1      25.940   4.097  49.474  1.00  0.00     0.106 C 
HETATM   26  C19 UNL     1      27.309   4.454  48.924  1.00  0.00     0.034 C 
BRANCH  25  27
HETATM   27  C20 UNL     1      25.000   5.279  49.414  1.00  0.00     0.295 C 
BRANCH  27  28
HETATM   28  N5  UNL     1      25.076   6.173  50.511  1.00  0.00     0.081 N 
HETATM   29  C21 UNL     1      25.710   7.428  50.292  1.00  0.00     0.309 C 
HETATM   30  C22 UNL     1      23.779   6.335  51.129  1.00  0.00     0.309 C 
ENDBRANCH  27  28
ENDBRANCH  25  27
ENDBRANCH  23  25
ENDBRANCH  12  23
BRANCH   1  31
HETATM   31  O1  UNL     1      27.821   2.068  52.344  1.00  0.00    -0.354 OA
HETATM   32  C1  UNL     1      28.593   2.418  53.462  1.00  0.00     0.210 C 
ENDBRANCH   1  31
TORSDOF 7
ENDMDL
MODEL 3
REMARK VINA RESULT:      -8.3      1.839      2.063
REMARK  7 active torsions:
REMARK  status: ('A' for Active; 'I' for Inactive)
REMARK    1  A    between atoms: O1_2  and  C2_3 
REMARK    2  A    between atoms: C8_11  and  N3_12 
REMARK    3  A    between atoms: N3_12  and  C9_13 
REMARK    4  A    between atoms: C17_23  and  N4_24 
REMARK    5  A    between atoms: N4_24  and  C18_25 
REMARK    6  A    between atoms: C18_25  and  C20_27 
REMARK    7  A    between atoms: C20_27  and  N5_28 
ROOT
HETATM    1  C2  UNL     1      22.785   0.322  53.263  1.00  0.00     0.096 A 
HETATM    2  C3  UNL     1      21.694   0.683  52.508  1.00  0.00     0.071 A 
HETATM    3  C4  UNL     1      21.812   1.407  51.344  1.00  0.00     0.071 A 
HETATM    4  N1  UNL     1      20.683   1.720  50.663  1.00  0.00    -0.259 NA
HETATM    5  C5  UNL     1      20.707   2.419  49.525  1.00  0.00     0.142 A 
HETATM    6  C6  UNL     1      21.967   2.798  49.092  1.00  0.00     0.089 A 
HETATM    7  C7  UNL     1      22.138   3.556  47.877  1.00  0.00     0.103 C 
HETATM    8  N2  UNL     1      22.264   4.166  46.884  1.00  0.00    -0.191 NA
HETATM    9  C8  UNL     1      23.134   2.495  49.764  1.00  0.00     0.067 A 
HETATM   10  C15 UNL     1      23.072   1.765  50.948  1.00  0.00     0.023 A 
HETATM   11  C16 UNL     1      24.169   1.405  51.700  1.00  0.00     0.048 A 
HETATM   12  C17 UNL     1      24.081   0.681  52.872  1.00  0.00     0.063 A 
ENDROOT
BRANCH   9  13
HETATM   13  N3  UNL     1      24.406   2.895  49.285  1.00  0.00    -0.356 N 
HETATM   14  H6  UNL     1      24.859   2.348  48.517  1.00  0.00     0.166 HD
BRANCH  13  15
HETATM   15  C9  UNL     1      25.177   4.001  49.744  1.00  0.00     0.027 C 
HETATM   16  C10 UNL     1      26.478   3.998  49.673  1.00  0.00     0.042 C 
HETATM   17  C11 UNL     1      27.117   4.865  48.903  1.00  0.00     0.150 C 
HETATM   18  F1  UNL     1      28.304   4.639  48.289  1.00  0.00    -0.203 F 
HETATM   19  C12 UNL     1      26.423   6.158  48.746  1.00  0.00     0.070 C 
HETATM   20 CL1  UNL     1      27.060   7.387  47.687  1.00  0.00    -0.081 Cl
HETATM   21  C13 UNL     1      25.298   6.351  49.435  1.00  0.00     0.006 C 
HETATM   22  C14 UNL     1      24.732   5.297  50.353  1.00  0.00     0.087 C 
ENDBRANCH  13  15
ENDBRANCH   9  13
BRANCH  12  23
HETATM   23  N4  UNL     1      25.238   0.331  53.626  1.00  0.00    -0.382 N 
HETATM   24  H11 UNL     1      25.027   0.231  54.666  1.00  0.00     0.160 HD
BRANCH  23  25
HETATM   25  C18 UNL     1      26.593   0.114  53.113  1.00  0.00     0.106 C 
HETATM   26  C19 UNL     1      26.563  -1.242  52.432  1.00  0.00     0.034 C 
BRANCH  25  27
HETATM   27  C20 UNL     1      27.492   0.096  54.328  1.00  0.00     0.295 C 
BRANCH  27  28
HETATM   28  N5  UNL     1      28.710   0.807  54.194  1.00  0.00     0.081 N 
HETATM   29  C21 UNL     1      29.804   0.125  53.592  1.00  0.00     0.309 C 
HETATM   30  C22 UNL     1      28.486   2.096  53.579  1.00  0.00     0.309 C 
ENDBRANCH  27  28
ENDBRANCH  25  27
ENDBRANCH  23  25
ENDBRANCH  12  23
BRANCH   1  31
HETATM   31  O1  UNL     1      22.631  -0.407  54.429  1.00  0.00    -0.354 OA
HETATM   32  C1  UNL     1      21.704  -1.445  54.608  1.00  0.00     0.210 C 
ENDBRANCH   1  31
TORSDOF 7
ENDMDL
MODEL 4
REMARK VINA RESULT:      -8.0      2.598      5.917
REMARK  7 active torsions:
REMARK  status: ('A' for Active; 'I' for Inactive)
REMARK    1  A    between atoms: O1_2  and  C2_3 
REMARK    2  A    between atoms: C8_11  and  N3_12 
REMARK    3  A    between atoms: N3_12  and  C9_13 
REMARK    4  A    between atoms: C17_23  and  N4_24 
REMARK    5  A    between atoms: N4_24  and  C18_25 
REMARK    6  A    between atoms: C18_25  and  C20_27 
REMARK    7  A    between atoms: C20_27  and  N5_28 
ROOT
HETATM    1  C2  UNL     1      26.896   1.801  52.584  1.00  0.00     0.096 A 
HETATM    2  C3  UNL     1      26.308   0.842  53.374  1.00  0.00     0.071 A 
HETATM    3  C4  UNL     1      24.965   0.552  53.302  1.00  0.00     0.071 A 
HETATM    4  N1  UNL     1      24.468  -0.409  54.118  1.00  0.00    -0.259 NA
HETATM    5  C5  UNL     1      23.178  -0.754  54.113  1.00  0.00     0.142 A 
HETATM    6  C6  UNL     1      22.386  -0.058  53.214  1.00  0.00     0.089 A 
HETATM    7  C7  UNL     1      20.974  -0.330  53.105  1.00  0.00     0.103 C 
HETATM    8  N2  UNL     1      19.829  -0.565  53.019  1.00  0.00    -0.191 NA
HETATM    9  C8  UNL     1      22.862   0.925  52.372  1.00  0.00     0.067 A 
HETATM   10  C15 UNL     1      24.213   1.259  52.403  1.00  0.00     0.023 A 
HETATM   11  C16 UNL     1      24.797   2.222  51.609  1.00  0.00     0.048 A 
HETATM   12  C17 UNL     1      26.141   2.534  51.660  1.00  0.00     0.063 A 
ENDROOT
BRANCH   9  13
HETATM   13  N3  UNL     1      22.020   1.610  51.461  1.00  0.00    -0.356 N 
HETATM   14  H6  UNL     1      21.991   1.303  50.461  1.00  0.00     0.166 HD
BRANCH  13  15
HETATM   15  C9  UNL     1      21.173   2.717  51.752  1.00  0.00     0.027 C 
HETATM   16  C10 UNL     1      21.631   3.791  52.329  1.00  0.00     0.042 C 
HETATM   17  C11 UNL     1      21.634   4.953  51.694  1.00  0.00     0.150 C 
HETATM   18  F1  UNL     1      22.539   5.944  51.881  1.00  0.00    -0.203 F 
HETATM   19  C12 UNL     1      20.535   5.111  50.721  1.00  0.00     0.070 C 
HETATM   20 CL1  UNL     1      20.435   6.532  49.716  1.00  0.00    -0.081 Cl
HETATM   21  C13 UNL     1      19.631   4.135  50.636  1.00  0.00     0.006 C 
HETATM   22  C14 UNL     1      19.706   2.898  51.496  1.00  0.00     0.087 C 
ENDBRANCH  13  15
ENDBRANCH   9  13
BRANCH  12  23
HETATM   23  N4  UNL     1      26.709   3.540  50.827  1.00  0.00    -0.382 N 
HETATM   24  H11 UNL     1      27.647   3.888  51.196  1.00  0.00     0.160 HD
BRANCH  23  25
HETATM   25  C18 UNL     1      26.141   4.086  49.592  1.00  0.00     0.106 C 
HETATM   26  C19 UNL     1      27.327   4.530  48.754  1.00  0.00     0.034 C 
BRANCH  25  27
HETATM   27  C20 UNL     1      25.299   5.268  50.017  1.00  0.00     0.295 C 
BRANCH  27  28
HETATM   28  N5  UNL     1      24.115   5.473  49.266  1.00  0.00     0.081 N 
HETATM   29  C21 UNL     1      24.152   6.455  48.238  1.00  0.00     0.309 C 
HETATM   30  C22 UNL     1      23.593   4.215  48.779  1.00  0.00     0.309 C 
ENDBRANCH  27  28
ENDBRANCH  25  27
ENDBRANCH  23  25
ENDBRANCH  12  23
BRANCH   1  31
HETATM   31  O1  UNL     1      28.251   2.068  52.682  1.00  0.00    -0.354 OA
HETATM   32  C1  UNL     1      28.979   2.086  53.881  1.00  0.00     0.210 C 
ENDBRANCH   1  31
TORSDOF 7
ENDMDL
MODEL 5
REMARK VINA RESULT:      -7.9      3.060      6.342
REMARK  7 active torsions:
REMARK  status: ('A' for Active; 'I' for Inactive)
REMARK    1  A    between atoms: O1_2  and  C2_3 
REMARK    2  A    between atoms: C8_11  and  N3_12 
REMARK    3  A    between atoms: N3_12  and  C9_13 
REMARK    4  A    between atoms: C17_23  and  N4_24 
REMARK    5  A    between atoms: N4_24  and  C18_25 
REMARK    6  A    between atoms: C18_25  and  C20_27 
REMARK    7  A    between atoms: C20_27  and  N5_28 
ROOT
HETATM    1  C2  UNL     1      19.260  -0.026  52.267  1.00  0.00     0.096 A 
HETATM    2  C3  UNL     1      19.754  -0.622  53.402  1.00  0.00     0.071 A 
HETATM    3  C4  UNL     1      21.098  -0.644  53.696  1.00  0.00     0.071 A 
HETATM    4  N1  UNL     1      21.499  -1.254  54.838  1.00  0.00    -0.259 NA
HETATM    5  C5  UNL     1      22.783  -1.320  55.199  1.00  0.00     0.142 A 
HETATM    6  C6  UNL     1      23.674  -0.720  54.324  1.00  0.00     0.089 A 
HETATM    7  C7  UNL     1      25.091  -0.717  54.593  1.00  0.00     0.103 C 
HETATM    8  N2  UNL     1      26.239  -0.715  54.826  1.00  0.00    -0.191 NA
HETATM    9  C8  UNL     1      23.296  -0.092  53.155  1.00  0.00     0.067 A 
HETATM   10  C15 UNL     1      21.949  -0.041  52.809  1.00  0.00     0.023 A 
HETATM   11  C16 UNL     1      21.458   0.558  51.668  1.00  0.00     0.048 A 
HETATM   12  C17 UNL     1      20.116   0.593  51.348  1.00  0.00     0.063 A 
ENDROOT
BRANCH   9  13
HETATM   13  N3  UNL     1      24.238   0.517  52.288  1.00  0.00    -0.356 N 
HETATM   14  H6  UNL     1      24.810  -0.084  51.652  1.00  0.00     0.166 HD
BRANCH  13  15
HETATM   15  C9  UNL     1      24.512   1.910  52.175  1.00  0.00     0.027 C 
HETATM   16  C10 UNL     1      24.981   2.423  51.074  1.00  0.00     0.042 C 
HETATM   17  C11 UNL     1      24.270   3.295  50.375  1.00  0.00     0.150 C 
HETATM   18  F1  UNL     1      24.325   3.450  49.030  1.00  0.00    -0.203 F 
HETATM   19  C12 UNL     1      23.368   4.129  51.193  1.00  0.00     0.070 C 
HETATM   20 CL1  UNL     1      22.278   5.263  50.440  1.00  0.00    -0.081 Cl
HETATM   21  C13 UNL     1      23.413   3.985  52.518  1.00  0.00     0.006 C 
HETATM   22  C14 UNL     1      24.348   3.007  53.184  1.00  0.00     0.087 C 
ENDBRANCH  13  15
ENDBRANCH   9  13
BRANCH  12  23
HETATM   23  N4  UNL     1      19.647   1.219  50.158  1.00  0.00    -0.382 N 
HETATM   24  H11 UNL     1      19.219   0.519  49.476  1.00  0.00     0.160 HD
BRANCH  23  25
HETATM   25  C18 UNL     1      19.704   2.645  49.829  1.00  0.00     0.106 C 
HETATM   26  C19 UNL     1      19.109   3.367  51.024  1.00  0.00     0.034 C 
BRANCH  25  27
HETATM   27  C20 UNL     1      18.838   2.816  48.601  1.00  0.00     0.295 C 
BRANCH  27  28
HETATM   28  N5  UNL     1      19.538   2.915  47.372  1.00  0.00     0.081 N 
HETATM   29  C21 UNL     1      18.849   3.492  46.269  1.00  0.00     0.309 C 
HETATM   30  C22 UNL     1      20.832   3.528  47.568  1.00  0.00     0.309 C 
ENDBRANCH  27  28
ENDBRANCH  25  27
ENDBRANCH  23  25
ENDBRANCH  12  23
BRANCH   1  31
HETATM   31  O1  UNL     1      17.902  -0.022  52.001  1.00  0.00    -0.354 OA
HETATM   32  C1  UNL     1      16.992  -0.983  52.469  1.00  0.00     0.210 C 
ENDBRANCH   1  31
TORSDOF 7
ENDMDL
MODEL 6
REMARK VINA RESULT:      -7.9      3.124      6.113
REMARK  7 active torsions:
REMARK  status: ('A' for Active; 'I' for Inactive)
REMARK    1  A    between atoms: O1_2  and  C2_3 
REMARK    2  A    between atoms: C8_11  and  N3_12 
REMARK    3  A    between atoms: N3_12  and  C9_13 
REMARK    4  A    between atoms: C17_23  and  N4_24 
REMARK    5  A    between atoms: N4_24  and  C18_25 
REMARK    6  A    between atoms: C18_25  and  C20_27 
REMARK    7  A    between atoms: C20_27  and  N5_28 
ROOT
HETATM    1  C2  UNL     1      21.279   2.089  49.363  1.00  0.00     0.096 A 
HETATM    2  C3  UNL     1      20.570   1.216  50.154  1.00  0.00     0.071 A 
HETATM    3  C4  UNL     1      21.096   0.671  51.303  1.00  0.00     0.071 A 
HETATM    4  N1  UNL     1      20.328  -0.182  52.023  1.00  0.00    -0.259 NA
HETATM    5  C5  UNL     1      20.759  -0.754  53.150  1.00  0.00     0.142 A 
HETATM    6  C6  UNL     1      22.048  -0.413  53.528  1.00  0.00     0.089 A 
HETATM    7  C7  UNL     1      22.638  -0.959  54.725  1.00  0.00     0.103 C 
HETATM    8  N2  UNL     1      23.105  -1.403  55.704  1.00  0.00    -0.191 NA
HETATM    9  C8  UNL     1      22.854   0.451  52.816  1.00  0.00     0.067 A 
HETATM   10  C15 UNL     1      22.372   1.030  51.646  1.00  0.00     0.023 A 
HETATM   11  C16 UNL     1      23.087   1.905  50.856  1.00  0.00     0.048 A 
HETATM   12  C17 UNL     1      22.585   2.466  49.699  1.00  0.00     0.063 A 
ENDROOT
BRANCH   9  13
HETATM   13  N3  UNL     1      24.165   0.781  53.240  1.00  0.00    -0.356 N 
HETATM   14  H6  UNL     1      24.293   1.392  54.079  1.00  0.00     0.166 HD
BRANCH  13  15
HETATM   15  C9  UNL     1      25.385   0.364  52.635  1.00  0.00     0.027 C 
HETATM   16  C10 UNL     1      26.245   1.226  52.174  1.00  0.00     0.042 C 
HETATM   17  C11 UNL     1      27.450   1.336  52.712  1.00  0.00     0.150 C 
HETATM   18  F1  UNL     1      28.182   2.475  52.766  1.00  0.00    -0.203 F 
HETATM   19  C12 UNL     1      27.974   0.076  53.277  1.00  0.00     0.070 C 
HETATM   20 CL1  UNL     1      29.501   0.047  54.118  1.00  0.00    -0.081 Cl
HETATM   21  C13 UNL     1      27.244  -1.028  53.126  1.00  0.00     0.006 C 
HETATM   22  C14 UNL     1      25.920  -1.018  52.404  1.00  0.00     0.087 C 
ENDBRANCH  13  15
ENDBRANCH   9  13
BRANCH  12  23
HETATM   23  N4  UNL     1      23.356   3.363  48.906  1.00  0.00    -0.382 N 
HETATM   24  H11 UNL     1      23.925   2.856  48.160  1.00  0.00     0.160 HD
BRANCH  23  25
HETATM   25  C18 UNL     1      23.417   4.822  49.031  1.00  0.00     0.106 C 
HETATM   26  C19 UNL     1      22.905   5.370  47.712  1.00  0.00     0.034 C 
BRANCH  25  27
HETATM   27  C20 UNL     1      24.878   5.154  49.231  1.00  0.00     0.295 C 
BRANCH  27  28
HETATM   28  N5  UNL     1      25.166   5.995  50.334  1.00  0.00     0.081 N 
HETATM   29  C21 UNL     1      25.749   7.263  50.058  1.00  0.00     0.309 C 
HETATM   30  C22 UNL     1      24.012   6.119  51.197  1.00  0.00     0.309 C 
ENDBRANCH  27  28
ENDBRANCH  25  27
ENDBRANCH  23  25
ENDBRANCH  12  23
BRANCH   1  31
HETATM   31  O1  UNL     1      20.719   2.619  48.214  1.00  0.00    -0.354 OA
HETATM   32  C1  UNL     1      19.583   3.441  48.182  1.00  0.00     0.210 C 
ENDBRANCH   1  31
TORSDOF 7
ENDMDL
MODEL 7
REMARK VINA RESULT:      -7.6      4.037      7.935
REMARK  7 active torsions:
REMARK  status: ('A' for Active; 'I' for Inactive)
REMARK    1  A    between atoms: O1_2  and  C2_3 
REMARK    2  A    between atoms: C8_11  and  N3_12 
REMARK    3  A    between atoms: N3_12  and  C9_13 
REMARK    4  A    between atoms: C17_23  and  N4_24 
REMARK    5  A    between atoms: N4_24  and  C18_25 
REMARK    6  A    between atoms: C18_25  and  C20_27 
REMARK    7  A    between atoms: C20_27  and  N5_28 
ROOT
HETATM    1  C2  UNL     1      25.328   4.465  49.709  1.00  0.00     0.096 A 
HETATM    2  C3  UNL     1      26.369   3.764  50.269  1.00  0.00     0.071 A 
HETATM    3  C4  UNL     1      26.175   2.810  51.241  1.00  0.00     0.071 A 
HETATM    4  N1  UNL     1      27.259   2.167  51.739  1.00  0.00    -0.259 NA
HETATM    5  C5  UNL     1      27.161   1.227  52.683  1.00  0.00     0.142 A 
HETATM    6  C6  UNL     1      25.872   0.959  53.116  1.00  0.00     0.089 A 
HETATM    7  C7  UNL     1      25.622  -0.034  54.131  1.00  0.00     0.103 C 
HETATM    8  N2  UNL     1      25.431  -0.849  54.952  1.00  0.00    -0.191 NA
HETATM    9  C8  UNL     1      24.750   1.597  52.629  1.00  0.00     0.067 A 
HETATM   10  C15 UNL     1      24.889   2.571  51.645  1.00  0.00     0.023 A 
HETATM   11  C16 UNL     1      23.841   3.271  51.087  1.00  0.00     0.048 A 
HETATM   12  C17 UNL     1      24.007   4.234  50.111  1.00  0.00     0.063 A 
ENDROOT
BRANCH   9  13
HETATM   13  N3  UNL     1      23.447   1.289  53.092  1.00  0.00    -0.356 N 
HETATM   14  H6  UNL     1      23.072   1.786  53.933  1.00  0.00     0.166 HD
BRANCH  13  15
HETATM   15  C9  UNL     1      22.546   0.341  52.529  1.00  0.00     0.027 C 
HETATM   16  C10 UNL     1      22.325  -0.809  53.097  1.00  0.00     0.042 C 
HETATM   17  C11 UNL     1      21.127  -1.112  53.573  1.00  0.00     0.150 C 
HETATM   18  F1  UNL     1      20.888  -1.921  54.634  1.00  0.00    -0.203 F 
HETATM   19  C12 UNL     1      20.011  -0.482  52.841  1.00  0.00     0.070 C 
HETATM   20 CL1  UNL     1      18.367  -0.681  53.383  1.00  0.00    -0.081 Cl
HETATM   21  C13 UNL     1      20.302   0.242  51.759  1.00  0.00     0.006 C 
HETATM   22  C14 UNL     1      21.720   0.425  51.280  1.00  0.00     0.087 C 
ENDBRANCH  13  15
ENDBRANCH   9  13
BRANCH  12  23
HETATM   23  N4  UNL     1      22.899   4.940  49.561  1.00  0.00    -0.382 N 
HETATM   24  H11 UNL     1      22.883   5.963  49.861  1.00  0.00     0.160 HD
BRANCH  23  25
HETATM   25  C18 UNL     1      21.861   4.404  48.677  1.00  0.00     0.106 C 
HETATM   26  C19 UNL     1      22.198   4.914  47.288  1.00  0.00     0.034 C 
BRANCH  25  27
HETATM   27  C20 UNL     1      20.559   4.989  49.174  1.00  0.00     0.295 C 
BRANCH  27  28
HETATM   28  N5  UNL     1      19.631   4.055  49.696  1.00  0.00     0.081 N 
HETATM   29  C21 UNL     1      19.560   2.780  49.068  1.00  0.00     0.309 C 
HETATM   30  C22 UNL     1      19.778   3.932  51.128  1.00  0.00     0.309 C 
ENDBRANCH  27  28
ENDBRANCH  25  27
ENDBRANCH  23  25
ENDBRANCH  12  23
BRANCH   1  31
HETATM   31  O1  UNL     1      25.558   5.419  48.733  1.00  0.00    -0.354 OA
HETATM   32  C1  UNL     1      26.745   6.155  48.597  1.00  0.00     0.210 C 
ENDBRANCH   1  31
TORSDOF 7
ENDMDL
MODEL 8
REMARK VINA RESULT:      -7.6      2.418      3.473
REMARK  7 active torsions:
REMARK  status: ('A' for Active; 'I' for Inactive)
REMARK    1  A    between atoms: O1_2  and  C2_3 
REMARK    2  A    between atoms: C8_11  and  N3_12 
REMARK    3  A    between atoms: N3_12  and  C9_13 
REMARK    4  A    between atoms: C17_23  and  N4_24 
REMARK    5  A    between atoms: N4_24  and  C18_25 
REMARK    6  A    between atoms: C18_25  and  C20_27 
REMARK    7  A    between atoms: C20_27  and  N5_28 
ROOT
HETATM    1  C2  UNL     1      23.455  -1.098  54.856  1.00  0.00     0.096 A 
HETATM    2  C3  UNL     1      22.081  -1.127  54.800  1.00  0.00     0.071 A 
HETATM    3  C4  UNL     1      21.377  -0.615  53.735  1.00  0.00     0.071 A 
HETATM    4  N1  UNL     1      20.024  -0.685  53.763  1.00  0.00    -0.259 NA
HETATM    5  C5  UNL     1      19.264  -0.214  52.771  1.00  0.00     0.142 A 
HETATM    6  C6  UNL     1      19.959   0.350  51.713  1.00  0.00     0.089 A 
HETATM    7  C7  UNL     1      19.262   0.896  50.575  1.00  0.00     0.103 C 
HETATM    8  N2  UNL     1      18.684   1.331  49.652  1.00  0.00    -0.191 NA
HETATM    9  C8  UNL     1      21.335   0.436  51.656  1.00  0.00     0.067 A 
HETATM   10  C15 UNL     1      22.096  -0.065  52.708  1.00  0.00     0.023 A 
HETATM   11  C16 UNL     1      23.473  -0.034  52.758  1.00  0.00     0.048 A 
HETATM   12  C17 UNL     1      24.205  -0.538  53.814  1.00  0.00     0.063 A 
ENDROOT
BRANCH   9  13
HETATM   13  N3  UNL     1      22.009   1.014  50.552  1.00  0.00    -0.356 N 
HETATM   14  H6  UNL     1      22.440   0.390  49.832  1.00  0.00     0.166 HD
BRANCH  13  15
HETATM   15  C9  UNL     1      22.181   2.404  50.294  1.00  0.00     0.027 C 
HETATM   16  C10 UNL     1      22.369   3.257  51.259  1.00  0.00     0.042 C 
HETATM   17  C11 UNL     1      23.507   3.926  51.361  1.00  0.00     0.150 C 
HETATM   18  F1  UNL     1      24.064   4.350  52.521  1.00  0.00    -0.203 F 
HETATM   19  C12 UNL     1      24.166   4.195  50.067  1.00  0.00     0.070 C 
HETATM   20 CL1  UNL     1      25.724   4.974  50.008  1.00  0.00    -0.081 Cl
HETATM   21  C13 UNL     1      23.534   3.823  48.955  1.00  0.00     0.006 C 
HETATM   22  C14 UNL     1      22.186   3.146  48.990  1.00  0.00     0.087 C 
ENDBRANCH  13  15
ENDBRANCH   9  13
BRANCH  12  23
HETATM   23  N4  UNL     1      25.628  -0.483  53.833  1.00  0.00    -0.382 N 
HETATM   24  H11 UNL     1      26.018  -0.463  54.825  1.00  0.00     0.160 HD
BRANCH  23  25
HETATM   25  C18 UNL     1      26.526  -0.457  52.675  1.00  0.00     0.106 C 
HETATM   26  C19 UNL     1      26.804  -1.910  52.337  1.00  0.00     0.034 C 
BRANCH  25  27
HETATM   27  C20 UNL     1      27.780   0.244  53.146  1.00  0.00     0.295 C 
BRANCH  27  28
HETATM   28  N5  UNL     1      27.974   1.552  52.635  1.00  0.00     0.081 N 
HETATM   29  C21 UNL     1      26.876   2.166  51.971  1.00  0.00     0.309 C 
HETATM   30  C22 UNL     1      28.533   2.419  53.648  1.00  0.00     0.309 C 
ENDBRANCH  27  28
ENDBRANCH  25  27
ENDBRANCH  23  25
ENDBRANCH  12  23
BRANCH   1  31
HETATM   31  O1  UNL     1      24.132  -1.621  55.943  1.00  0.00    -0.354 OA
HETATM   32  C1  UNL     1      24.931  -0.875  56.824  1.00  0.00     0.210 C 
ENDBRANCH   1  31
TORSDOF 7
ENDMDL
MODEL 9
REMARK VINA RESULT:      -7.3      3.211      7.457
REMARK  7 active torsions:
REMARK  status: ('A' for Active; 'I' for Inactive)
REMARK    1  A    between atoms: O1_2  and  C2_3 
REMARK    2  A    between atoms: C8_11  and  N3_12 
REMARK    3  A    between atoms: N3_12  and  C9_13 
REMARK    4  A    between atoms: C17_23  and  N4_24 
REMARK    5  A    between atoms: N4_24  and  C18_25 
REMARK    6  A    between atoms: C18_25  and  C20_27 
REMARK    7  A    between atoms: C20_27  and  N5_28 
ROOT
HETATM    1  C2  UNL     1      25.708   4.030  49.944  1.00  0.00     0.096 A 
HETATM    2  C3  UNL     1      26.546   3.031  50.379  1.00  0.00     0.071 A 
HETATM    3  C4  UNL     1      26.180   2.138  51.359  1.00  0.00     0.071 A 
HETATM    4  N1  UNL     1      27.070   1.185  51.728  1.00  0.00    -0.259 NA
HETATM    5  C5  UNL     1      26.796   0.279  52.670  1.00  0.00     0.142 A 
HETATM    6  C6  UNL     1      25.538   0.384  53.242  1.00  0.00     0.089 A 
HETATM    7  C7  UNL     1      25.112  -0.531  54.271  1.00  0.00     0.103 C 
HETATM    8  N2  UNL     1      24.774  -1.286  55.102  1.00  0.00    -0.191 NA
HETATM    9  C8  UNL     1      24.612   1.343  52.888  1.00  0.00     0.067 A 
HETATM   10  C15 UNL     1      24.930   2.272  51.902  1.00  0.00     0.023 A 
HETATM   11  C16 UNL     1      24.086   3.272  51.469  1.00  0.00     0.048 A 
HETATM   12  C17 UNL     1      24.427   4.182  50.489  1.00  0.00     0.063 A 
ENDROOT
BRANCH   9  13
HETATM   13  N3  UNL     1      23.332   1.414  53.491  1.00  0.00    -0.356 N 
HETATM   14  H6  UNL     1      23.244   1.795  54.462  1.00  0.00     0.166 HD
BRANCH  13  15
HETATM   15  C9  UNL     1      22.095   1.011  52.912  1.00  0.00     0.027 C 
HETATM   16  C10 UNL     1      21.016   1.728  53.044  1.00  0.00     0.042 C 
HETATM   17  C11 UNL     1      20.440   2.285  51.990  1.00  0.00     0.150 C 
HETATM   18  F1  UNL     1      19.743   3.448  52.003  1.00  0.00    -0.203 F 
HETATM   19  C12 UNL     1      20.611   1.524  50.737  1.00  0.00     0.070 C 
HETATM   20 CL1  UNL     1      20.009   2.152  49.226  1.00  0.00    -0.081 Cl
HETATM   21  C13 UNL     1      21.238   0.350  50.800  1.00  0.00     0.006 C 
HETATM   22  C14 UNL     1      21.766  -0.205  52.099  1.00  0.00     0.087 C 
ENDBRANCH  13  15
ENDBRANCH   9  13
BRANCH  12  23
HETATM   23  N4  UNL     1      23.528   5.205  50.071  1.00  0.00    -0.382 N 
HETATM   24  H11 UNL     1      23.901   6.181  50.283  1.00  0.00     0.160 HD
BRANCH  23  25
HETATM   25  C18 UNL     1      22.228   5.025  49.419  1.00  0.00     0.106 C 
HETATM   26  C19 UNL     1      22.444   5.395  47.962  1.00  0.00     0.034 C 
BRANCH  25  27
HETATM   27  C20 UNL     1      21.292   5.999  50.098  1.00  0.00     0.295 C 
BRANCH  27  28
HETATM   28  N5  UNL     1      20.146   6.364  49.349  1.00  0.00     0.081 N 
HETATM   29  C21 UNL     1      18.966   5.591  49.536  1.00  0.00     0.309 C 
HETATM   30  C22 UNL     1      19.880   7.779  49.479  1.00  0.00     0.309 C 
ENDBRANCH  27  28
ENDBRANCH  25  27
ENDBRANCH  23  25
ENDBRANCH  12  23
BRANCH   1  31
HETATM   31  O1  UNL     1      26.108   4.912  48.955  1.00  0.00    -0.354 OA
HETATM   32  C1  UNL     1      27.441   5.163  48.598  1.00  0.00     0.210 C 
ENDBRANCH   1  31
TORSDOF 7
ENDMDL
