MODEL 1
REMARK VINA RESULT:      -6.3      0.000      0.000
REMARK  7 active torsions:
REMARK  status: ('A' for Active; 'I' for Inactive)
REMARK    1  A    between atoms: C2_2  and  C3_3 
REMARK       I    between atoms: C3_3  and  N1_5 
REMARK    2  A    between atoms: N1_5  and  C4_6 
REMARK    3  A    between atoms: C7_10  and  O2_11 
REMARK    4  A    between atoms: C10_14  and  N2_15 
REMARK    5  A    between atoms: N2_15  and  C12_17 
REMARK    6  A    between atoms: C12_17  and  C13_18 
REMARK    7  A    between atoms: C13_18  and  N3_19 
ROOT
HETATM    1  C4  UNL     1      23.966   2.452  52.216  1.00  0.00     0.063 A 
HETATM    2  C5  UNL     1      22.618   2.629  52.143  1.00  0.00     0.058 A 
HETATM    3  C6  UNL     1      21.730   1.702  52.585  1.00  0.00     0.069 A 
HETATM    4 CL1  UNL     1      19.993   1.944  52.486  1.00  0.00    -0.081 Cl
HETATM    5  C7  UNL     1      22.183   0.523  53.135  1.00  0.00     0.092 A 
HETATM    6  C9  UNL     1      23.536   0.377  53.194  1.00  0.00     0.070 A 
HETATM    7  C10 UNL     1      24.493   1.306  52.752  1.00  0.00     0.059 A 
ENDROOT
BRANCH   7   8
HETATM    8  N2  UNL     1      25.862   0.926  52.993  1.00  0.00    -0.382 N 
HETATM    9  C11 UNL     1      26.515   0.141  51.926  1.00  0.00     0.150 C 
BRANCH   8  10
HETATM   10  C12 UNL     1      26.752   1.127  54.114  1.00  0.00     0.152 C 
BRANCH  10  11
HETATM   11  C13 UNL     1      27.563  -0.087  54.407  1.00  0.00     0.291 C 
BRANCH  11  12
HETATM   12  N3  UNL     1      28.971   0.202  54.616  1.00  0.00     0.081 N 
HETATM   13  C14 UNL     1      29.177   1.585  54.224  1.00  0.00     0.309 C 
HETATM   14  C15 UNL     1      29.800  -0.592  53.700  1.00  0.00     0.309 C 
ENDBRANCH  11  12
ENDBRANCH  10  11
ENDBRANCH   8  10
ENDBRANCH   7   8
BRANCH   1  15
HETATM   15  N1  UNL     1      24.900   3.377  51.744  1.00  0.00    -0.322 N 
HETATM   16  C3  UNL     1      25.014   3.791  50.398  1.00  0.00     0.244 C 
HETATM   17  O1  UNL     1      24.327   3.424  49.415  1.00  0.00    -0.268 OA
HETATM   18  H4  UNL     1      25.659   3.928  52.145  1.00  0.00     0.169 HD
BRANCH  16  19
HETATM   19  C2  UNL     1      25.860   4.705  49.647  1.00  0.00     0.064 C 
HETATM   20  C1  UNL     1      26.868   3.899  49.343  1.00  0.00     0.017 C 
ENDBRANCH  16  19
ENDBRANCH   1  15
BRANCH   5  21
HETATM   21  O2  UNL     1      21.307  -0.451  53.598  1.00  0.00    -0.354 OA
HETATM   22  C8  UNL     1      21.679  -1.554  54.372  1.00  0.00     0.210 C 
ENDBRANCH   5  21
TORSDOF 7
ENDMDL
MODEL 2
REMARK VINA RESULT:      -6.2      2.110      4.590
REMARK  7 active torsions:
REMARK  status: ('A' for Active; 'I' for Inactive)
REMARK    1  A    between atoms: C2_2  and  C3_3 
REMARK       I    between atoms: C3_3  and  N1_5 
REMARK    2  A    between atoms: N1_5  and  C4_6 
REMARK    3  A    between atoms: C7_10  and  O2_11 
REMARK    4  A    between atoms: C10_14  and  N2_15 
REMARK    5  A    between atoms: N2_15  and  C12_17 
REMARK    6  A    between atoms: C12_17  and  C13_18 
REMARK    7  A    between atoms: C13_18  and  N3_19 
ROOT
HETATM    1  C4  UNL     1      24.459   0.735  52.775  1.00  0.00     0.063 A 
HETATM    2  C5  UNL     1      23.966  -0.346  53.439  1.00  0.00     0.058 A 
HETATM    3  C6  UNL     1      22.648  -0.490  53.731  1.00  0.00     0.069 A 
HETATM    4 CL1  UNL     1      22.025  -1.891  54.588  1.00  0.00    -0.081 Cl
HETATM    5  C7  UNL     1      21.749   0.483  53.353  1.00  0.00     0.092 A 
HETATM    6  C9  UNL     1      22.275   1.551  52.690  1.00  0.00     0.070 A 
HETATM    7  C10 UNL     1      23.628   1.744  52.364  1.00  0.00     0.059 A 
ENDROOT
BRANCH   7   8
HETATM    8  N2  UNL     1      23.902   2.935  51.601  1.00  0.00    -0.382 N 
HETATM    9  C11 UNL     1      23.682   4.218  52.299  1.00  0.00     0.150 C 
BRANCH   8  10
HETATM   10  C12 UNL     1      24.329   3.148  50.236  1.00  0.00     0.152 C 
BRANCH  10  11
HETATM   11  C13 UNL     1      25.733   3.634  50.160  1.00  0.00     0.291 C 
BRANCH  11  12
HETATM   12  N3  UNL     1      25.924   4.682  49.172  1.00  0.00     0.081 N 
HETATM   13  C14 UNL     1      27.338   4.701  48.849  1.00  0.00     0.309 C 
HETATM   14  C15 UNL     1      25.638   5.998  49.757  1.00  0.00     0.309 C 
ENDBRANCH  11  12
ENDBRANCH  10  11
ENDBRANCH   8  10
ENDBRANCH   7   8
BRANCH   1  15
HETATM   15  N1  UNL     1      25.814   0.921  52.487  1.00  0.00    -0.322 N 
HETATM   16  C3  UNL     1      26.707   1.683  53.270  1.00  0.00     0.244 C 
HETATM   17  O1  UNL     1      26.466   2.310  54.330  1.00  0.00    -0.268 OA
HETATM   18  H4  UNL     1      26.456   0.630  51.749  1.00  0.00     0.169 HD
BRANCH  16  19
HETATM   19  C2  UNL     1      28.117   2.036  53.215  1.00  0.00     0.064 C 
HETATM   20  C1  UNL     1      28.666   0.882  53.568  1.00  0.00     0.017 C 
ENDBRANCH  16  19
ENDBRANCH   1  15
BRANCH   5  21
HETATM   21  O2  UNL     1      20.393   0.373  53.635  1.00  0.00    -0.354 OA
HETATM   22  C8  UNL     1      19.419  -0.033  52.717  1.00  0.00     0.210 C 
ENDBRANCH   5  21
TORSDOF 7
ENDMDL
MODEL 3
REMARK VINA RESULT:      -6.1      2.793      5.804
REMARK  7 active torsions:
REMARK  status: ('A' for Active; 'I' for Inactive)
REMARK    1  A    between atoms: C2_2  and  C3_3 
REMARK       I    between atoms: C3_3  and  N1_5 
REMARK    2  A    between atoms: N1_5  and  C4_6 
REMARK    3  A    between atoms: C7_10  and  O2_11 
REMARK    4  A    between atoms: C10_14  and  N2_15 
REMARK    5  A    between atoms: N2_15  and  C12_17 
REMARK    6  A    between atoms: C12_17  and  C13_18 
REMARK    7  A    between atoms: C13_18  and  N3_19 
ROOT
HETATM    1  C4  UNL     1      25.712   1.824  51.446  1.00  0.00     0.063 A 
HETATM    2  C5  UNL     1      26.573   2.641  50.779  1.00  0.00     0.058 A 
HETATM    3  C6  UNL     1      26.155   3.580  49.892  1.00  0.00     0.069 A 
HETATM    4 CL1  UNL     1      27.277   4.629  49.039  1.00  0.00    -0.081 Cl
HETATM    5  C7  UNL     1      24.810   3.734  49.635  1.00  0.00     0.092 A 
HETATM    6  C9  UNL     1      23.976   2.902  50.318  1.00  0.00     0.070 A 
HETATM    7  C10 UNL     1      24.360   1.918  51.245  1.00  0.00     0.059 A 
ENDROOT
BRANCH   7   8
HETATM    8  N2  UNL     1      23.266   1.219  51.873  1.00  0.00    -0.382 N 
HETATM    9  C11 UNL     1      22.047   1.053  51.056  1.00  0.00     0.150 C 
BRANCH   8  10
HETATM   10  C12 UNL     1      23.091   0.657  53.193  1.00  0.00     0.152 C 
BRANCH  10  11
HETATM   11  C13 UNL     1      22.653  -0.764  53.141  1.00  0.00     0.291 C 
BRANCH  11  12
HETATM   12  N3  UNL     1      21.975  -1.198  54.350  1.00  0.00     0.081 N 
HETATM   13  C14 UNL     1      21.127  -0.099  54.772  1.00  0.00     0.309 C 
HETATM   14  C15 UNL     1      22.940  -1.389  55.441  1.00  0.00     0.309 C 
ENDBRANCH  11  12
ENDBRANCH  10  11
ENDBRANCH   8  10
ENDBRANCH   7   8
BRANCH   1  15
HETATM   15  N1  UNL     1      26.117   0.831  52.342  1.00  0.00    -0.322 N 
HETATM   16  C3  UNL     1      26.532   1.066  53.671  1.00  0.00     0.244 C 
HETATM   17  O1  UNL     1      26.612   2.164  54.274  1.00  0.00    -0.268 OA
HETATM   18  H4  UNL     1      26.232  -0.182  52.316  1.00  0.00     0.169 HD
BRANCH  16  19
HETATM   19  C2  UNL     1      26.991   0.257  54.789  1.00  0.00     0.064 C 
HETATM   20  C1  UNL     1      28.291   0.212  54.532  1.00  0.00     0.017 C 
ENDBRANCH  16  19
ENDBRANCH   1  15
BRANCH   5  21
HETATM   21  O2  UNL     1      24.343   4.683  48.733  1.00  0.00    -0.354 OA
HETATM   22  C8  UNL     1      23.782   5.912  49.089  1.00  0.00     0.210 C 
ENDBRANCH   5  21
TORSDOF 7
ENDMDL
MODEL 4
REMARK VINA RESULT:      -6.0      2.432      5.239
REMARK  7 active torsions:
REMARK  status: ('A' for Active; 'I' for Inactive)
REMARK    1  A    between atoms: C2_2  and  C3_3 
REMARK       I    between atoms: C3_3  and  N1_5 
REMARK    2  A    between atoms: N1_5  and  C4_6 
REMARK    3  A    between atoms: C7_10  and  O2_11 
REMARK    4  A    between atoms: C10_14  and  N2_15 
REMARK    5  A    between atoms: N2_15  and  C12_17 
REMARK    6  A    between atoms: C12_17  and  C13_18 
REMARK    7  A    between atoms: C13_18  and  N3_19 
ROOT
HETATM    1  C4  UNL     1      24.444   0.623  52.851  1.00  0.00     0.063 A 
HETATM    2  C5  UNL     1      23.903  -0.429  53.524  1.00  0.00     0.058 A 
HETATM    3  C6  UNL     1      22.575  -0.527  53.789  1.00  0.00     0.069 A 
HETATM    4 CL1  UNL     1      21.890  -1.891  54.658  1.00  0.00    -0.081 Cl
HETATM    5  C7  UNL     1      21.715   0.466  53.371  1.00  0.00     0.092 A 
HETATM    6  C9  UNL     1      22.289   1.504  52.701  1.00  0.00     0.070 A 
HETATM    7  C10 UNL     1      23.654   1.648  52.402  1.00  0.00     0.059 A 
ENDROOT
BRANCH   7   8
HETATM    8  N2  UNL     1      23.982   2.815  51.622  1.00  0.00    -0.382 N 
HETATM    9  C11 UNL     1      23.729   4.119  52.268  1.00  0.00     0.150 C 
BRANCH   8  10
HETATM   10  C12 UNL     1      24.491   2.986  50.280  1.00  0.00     0.152 C 
BRANCH  10  11
HETATM   11  C13 UNL     1      23.436   3.446  49.337  1.00  0.00     0.291 C 
BRANCH  11  12
HETATM   12  N3  UNL     1      22.393   2.459  49.119  1.00  0.00     0.081 N 
HETATM   13  C14 UNL     1      22.422   2.125  47.707  1.00  0.00     0.309 C 
HETATM   14  C15 UNL     1      21.069   3.048  49.355  1.00  0.00     0.309 C 
ENDBRANCH  11  12
ENDBRANCH  10  11
ENDBRANCH   8  10
ENDBRANCH   7   8
BRANCH   1  15
HETATM   15  N1  UNL     1      25.810   0.761  52.590  1.00  0.00    -0.322 N 
HETATM   16  C3  UNL     1      26.736   1.385  53.454  1.00  0.00     0.244 C 
HETATM   17  O1  UNL     1      26.519   1.909  54.573  1.00  0.00    -0.268 OA
HETATM   18  H4  UNL     1      26.443   0.514  51.829  1.00  0.00     0.169 HD
BRANCH  16  19
HETATM   19  C2  UNL     1      28.164   1.662  53.443  1.00  0.00     0.064 C 
HETATM   20  C1  UNL     1      28.581   0.798  54.357  1.00  0.00     0.017 C 
ENDBRANCH  16  19
ENDBRANCH   1  15
BRANCH   5  21
HETATM   21  O2  UNL     1      20.350   0.403  53.624  1.00  0.00    -0.354 OA
HETATM   22  C8  UNL     1      19.394  -0.065  52.719  1.00  0.00     0.210 C 
ENDBRANCH   5  21
TORSDOF 7
ENDMDL
MODEL 5
REMARK VINA RESULT:      -5.9      2.893      5.199
REMARK  7 active torsions:
REMARK  status: ('A' for Active; 'I' for Inactive)
REMARK    1  A    between atoms: C2_2  and  C3_3 
REMARK       I    between atoms: C3_3  and  N1_5 
REMARK    2  A    between atoms: N1_5  and  C4_6 
REMARK    3  A    between atoms: C7_10  and  O2_11 
REMARK    4  A    between atoms: C10_14  and  N2_15 
REMARK    5  A    between atoms: N2_15  and  C12_17 
REMARK    6  A    between atoms: C12_17  and  C13_18 
REMARK    7  A    between atoms: C13_18  and  N3_19 
ROOT
HETATM    1  C4  UNL     1      25.597   2.572  51.627  1.00  0.00     0.063 A 
HETATM    2  C5  UNL     1      26.369   1.544  52.074  1.00  0.00     0.058 A 
HETATM    3  C6  UNL     1      25.848   0.439  52.667  1.00  0.00     0.069 A 
HETATM    4 CL1  UNL     1      26.855  -0.882  53.238  1.00  0.00    -0.081 Cl
HETATM    5  C7  UNL     1      24.485   0.327  52.836  1.00  0.00     0.092 A 
HETATM    6  C9  UNL     1      23.742   1.372  52.378  1.00  0.00     0.070 A 
HETATM    7  C10 UNL     1      24.234   2.533  51.758  1.00  0.00     0.059 A 
ENDROOT
BRANCH   7   8
HETATM    8  N2  UNL     1      23.220   3.456  51.311  1.00  0.00    -0.382 N 
HETATM    9  C11 UNL     1      22.788   4.471  52.292  1.00  0.00     0.150 C 
BRANCH   8  10
HETATM   10  C12 UNL     1      22.486   3.579  50.072  1.00  0.00     0.152 C 
BRANCH  10  11
HETATM   11  C13 UNL     1      23.121   2.809  48.968  1.00  0.00     0.291 C 
BRANCH  11  12
HETATM   12  N3  UNL     1      22.178   1.990  48.226  1.00  0.00     0.081 N 
HETATM   13  C14 UNL     1      21.148   2.884  47.729  1.00  0.00     0.309 C 
HETATM   14  C15 UNL     1      21.486   1.059  49.126  1.00  0.00     0.309 C 
ENDBRANCH  11  12
ENDBRANCH  10  11
ENDBRANCH   8  10
ENDBRANCH   7   8
BRANCH   1  15
HETATM   15  N1  UNL     1      26.110   3.732  51.040  1.00  0.00    -0.322 N 
HETATM   16  C3  UNL     1      26.684   3.797  49.751  1.00  0.00     0.244 C 
HETATM   17  O1  UNL     1      26.835   2.866  48.924  1.00  0.00    -0.268 OA
HETATM   18  H4  UNL     1      26.222   4.709  51.314  1.00  0.00     0.169 HD
BRANCH  16  19
HETATM   19  C2  UNL     1      27.276   4.828  48.914  1.00  0.00     0.064 C 
HETATM   20  C1  UNL     1      26.261   5.677  48.829  1.00  0.00     0.017 C 
ENDBRANCH  16  19
ENDBRANCH   1  15
BRANCH   5  21
HETATM   21  O2  UNL     1      23.914  -0.787  53.439  1.00  0.00    -0.354 OA
HETATM   22  C8  UNL     1      22.577  -0.879  53.838  1.00  0.00     0.210 C 
ENDBRANCH   5  21
TORSDOF 7
ENDMDL
MODEL 6
REMARK VINA RESULT:      -5.9      2.784      5.270
REMARK  7 active torsions:
REMARK  status: ('A' for Active; 'I' for Inactive)
REMARK    1  A    between atoms: C2_2  and  C3_3 
REMARK       I    between atoms: C3_3  and  N1_5 
REMARK    2  A    between atoms: N1_5  and  C4_6 
REMARK    3  A    between atoms: C7_10  and  O2_11 
REMARK    4  A    between atoms: C10_14  and  N2_15 
REMARK    5  A    between atoms: N2_15  and  C12_17 
REMARK    6  A    between atoms: C12_17  and  C13_18 
REMARK    7  A    between atoms: C13_18  and  N3_19 
ROOT
HETATM    1  C4  UNL     1      25.973   2.329  51.772  1.00  0.00     0.063 A 
HETATM    2  C5  UNL     1      26.499   1.087  51.954  1.00  0.00     0.058 A 
HETATM    3  C6  UNL     1      25.817   0.083  52.562  1.00  0.00     0.069 A 
HETATM    4 CL1  UNL     1      26.507  -1.516  52.789  1.00  0.00    -0.081 Cl
HETATM    5  C7  UNL     1      24.537   0.302  53.024  1.00  0.00     0.092 A 
HETATM    6  C9  UNL     1      24.041   1.554  52.826  1.00  0.00     0.070 A 
HETATM    7  C10 UNL     1      24.706   2.624  52.203  1.00  0.00     0.059 A 
ENDROOT
BRANCH   7   8
HETATM    8  N2  UNL     1      23.924   3.826  52.066  1.00  0.00    -0.382 N 
HETATM    9  C11 UNL     1      23.834   4.682  53.267  1.00  0.00     0.150 C 
BRANCH   8  10
HETATM   10  C12 UNL     1      23.151   4.374  50.975  1.00  0.00     0.152 C 
BRANCH  10  11
HETATM   11  C13 UNL     1      22.237   5.458  51.427  1.00  0.00     0.291 C 
BRANCH  11  12
HETATM   12  N3  UNL     1      22.182   6.581  50.507  1.00  0.00     0.081 N 
HETATM   13  C14 UNL     1      22.382   6.040  49.175  1.00  0.00     0.309 C 
HETATM   14  C15 UNL     1      23.313   7.489  50.734  1.00  0.00     0.309 C 
ENDBRANCH  11  12
ENDBRANCH  10  11
ENDBRANCH   8  10
ENDBRANCH   7   8
BRANCH   1  15
HETATM   15  N1  UNL     1      26.664   3.388  51.175  1.00  0.00    -0.322 N 
HETATM   16  C3  UNL     1      26.549   3.762  49.819  1.00  0.00     0.244 C 
HETATM   17  O1  UNL     1      25.834   3.239  48.929  1.00  0.00    -0.268 OA
HETATM   18  H4  UNL     1      27.351   4.081  51.474  1.00  0.00     0.169 HD
BRANCH  16  19
HETATM   19  C2  UNL     1      27.124   4.782  48.956  1.00  0.00     0.064 C 
HETATM   20  C1  UNL     1      26.165   5.696  48.997  1.00  0.00     0.017 C 
ENDBRANCH  16  19
ENDBRANCH   1  15
BRANCH   5  21
HETATM   21  O2  UNL     1      23.807  -0.700  53.652  1.00  0.00    -0.354 OA
HETATM   22  C8  UNL     1      22.473  -1.009  53.371  1.00  0.00     0.210 C 
ENDBRANCH   5  21
TORSDOF 7
ENDMDL
MODEL 7
REMARK VINA RESULT:      -5.8      3.002      5.229
REMARK  7 active torsions:
REMARK  status: ('A' for Active; 'I' for Inactive)
REMARK    1  A    between atoms: C2_2  and  C3_3 
REMARK       I    between atoms: C3_3  and  N1_5 
REMARK    2  A    between atoms: N1_5  and  C4_6 
REMARK    3  A    between atoms: C7_10  and  O2_11 
REMARK    4  A    between atoms: C10_14  and  N2_15 
REMARK    5  A    between atoms: N2_15  and  C12_17 
REMARK    6  A    between atoms: C12_17  and  C13_18 
REMARK    7  A    between atoms: C13_18  and  N3_19 
ROOT
HETATM    1  C4  UNL     1      25.446   2.472  52.206  1.00  0.00     0.063 A 
HETATM    2  C5  UNL     1      26.584   1.985  52.774  1.00  0.00     0.058 A 
HETATM    3  C6  UNL     1      26.601   0.866  53.541  1.00  0.00     0.069 A 
HETATM    4 CL1  UNL     1      28.077   0.249  54.267  1.00  0.00    -0.081 Cl
HETATM    5  C7  UNL     1      25.433   0.172  53.773  1.00  0.00     0.092 A 
HETATM    6  C9  UNL     1      24.314   0.685  53.191  1.00  0.00     0.070 A 
HETATM    7  C10 UNL     1      24.246   1.837  52.389  1.00  0.00     0.059 A 
ENDROOT
BRANCH   7   8
HETATM    8  N2  UNL     1      22.941   2.119  51.845  1.00  0.00    -0.382 N 
HETATM    9  C11 UNL     1      22.491   1.240  50.747  1.00  0.00     0.150 C 
BRANCH   8  10
HETATM   10  C12 UNL     1      21.960   3.140  52.134  1.00  0.00     0.152 C 
BRANCH  10  11
HETATM   11  C13 UNL     1      21.373   3.717  50.893  1.00  0.00     0.291 C 
BRANCH  11  12
HETATM   12  N3  UNL     1      22.216   4.729  50.280  1.00  0.00     0.081 N 
HETATM   13  C14 UNL     1      22.322   5.819  51.231  1.00  0.00     0.309 C 
HETATM   14  C15 UNL     1      21.556   5.302  49.100  1.00  0.00     0.309 C 
ENDBRANCH  11  12
ENDBRANCH  10  11
ENDBRANCH   8  10
ENDBRANCH   7   8
BRANCH   1  15
HETATM   15  N1  UNL     1      25.397   3.637  51.436  1.00  0.00    -0.322 N 
HETATM   16  C3  UNL     1      26.093   3.832  50.224  1.00  0.00     0.244 C 
HETATM   17  O1  UNL     1      26.856   3.030  49.632  1.00  0.00    -0.268 OA
HETATM   18  H4  UNL     1      24.939   4.546  51.505  1.00  0.00     0.169 HD
BRANCH  16  19
HETATM   19  C2  UNL     1      26.225   4.900  49.246  1.00  0.00     0.064 C 
HETATM   20  C1  UNL     1      27.430   4.633  48.763  1.00  0.00     0.017 C 
ENDBRANCH  16  19
ENDBRANCH   1  15
BRANCH   5  21
HETATM   21  O2  UNL     1      25.410  -0.977  54.554  1.00  0.00    -0.354 OA
HETATM   22  C8  UNL     1      24.554  -1.184  55.640  1.00  0.00     0.210 C 
ENDBRANCH   5  21
TORSDOF 7
ENDMDL
MODEL 8
REMARK VINA RESULT:      -5.6      3.273      6.621
REMARK  7 active torsions:
REMARK  status: ('A' for Active; 'I' for Inactive)
REMARK    1  A    between atoms: C2_2  and  C3_3 
REMARK       I    between atoms: C3_3  and  N1_5 
REMARK    2  A    between atoms: N1_5  and  C4_6 
REMARK    3  A    between atoms: C7_10  and  O2_11 
REMARK    4  A    between atoms: C10_14  and  N2_15 
REMARK    5  A    between atoms: N2_15  and  C12_17 
REMARK    6  A    between atoms: C12_17  and  C13_18 
REMARK    7  A    between atoms: C13_18  and  N3_19 
ROOT
HETATM    1  C4  UNL     1      23.415   1.033  52.353  1.00  0.00     0.063 A 
HETATM    2  C5  UNL     1      24.162   0.228  53.157  1.00  0.00     0.058 A 
HETATM    3  C6  UNL     1      25.316   0.640  53.741  1.00  0.00     0.069 A 
HETATM    4 CL1  UNL     1      26.271  -0.409  54.777  1.00  0.00    -0.081 Cl
HETATM    5  C7  UNL     1      25.774   1.923  53.529  1.00  0.00     0.092 A 
HETATM    6  C9  UNL     1      25.004   2.702  52.721  1.00  0.00     0.070 A 
HETATM    7  C10 UNL     1      23.804   2.322  52.097  1.00  0.00     0.059 A 
ENDROOT
BRANCH   7   8
HETATM    8  N2  UNL     1      23.155   3.366  51.345  1.00  0.00    -0.382 N 
HETATM    9  C11 UNL     1      22.367   4.338  52.130  1.00  0.00     0.150 C 
BRANCH   8  10
HETATM   10  C12 UNL     1      23.082   3.655  49.930  1.00  0.00     0.152 C 
BRANCH  10  11
HETATM   11  C13 UNL     1      21.675   3.732  49.449  1.00  0.00     0.291 C 
BRANCH  11  12
HETATM   12  N3  UNL     1      21.180   2.471  48.926  1.00  0.00     0.081 N 
HETATM   13  C14 UNL     1      22.203   1.956  48.035  1.00  0.00     0.309 C 
HETATM   14  C15 UNL     1      20.000   2.692  48.081  1.00  0.00     0.309 C 
ENDBRANCH  11  12
ENDBRANCH  10  11
ENDBRANCH   8  10
ENDBRANCH   7   8
BRANCH   1  15
HETATM   15  N1  UNL     1      22.239   0.624  51.718  1.00  0.00    -0.322 N 
HETATM   16  C3  UNL     1      20.957   0.639  52.308  1.00  0.00     0.244 C 
HETATM   17  O1  UNL     1      20.642   1.008  53.466  1.00  0.00    -0.268 OA
HETATM   18  H4  UNL     1      21.990   0.244  50.804  1.00  0.00     0.169 HD
BRANCH  16  19
HETATM   19  C2  UNL     1      19.607   0.285  51.901  1.00  0.00     0.064 C 
HETATM   20  C1  UNL     1      19.228  -0.444  52.941  1.00  0.00     0.017 C 
ENDBRANCH  16  19
ENDBRANCH   1  15
BRANCH   5  21
HETATM   21  O2  UNL     1      26.951   2.382  54.108  1.00  0.00    -0.354 OA
HETATM   22  C8  UNL     1      28.212   2.314  53.508  1.00  0.00     0.210 C 
ENDBRANCH   5  21
TORSDOF 7
ENDMDL
MODEL 9
REMARK VINA RESULT:      -5.5      3.676      6.971
REMARK  7 active torsions:
REMARK  status: ('A' for Active; 'I' for Inactive)
REMARK    1  A    between atoms: C2_2  and  C3_3 
REMARK       I    between atoms: C3_3  and  N1_5 
REMARK    2  A    between atoms: N1_5  and  C4_6 
REMARK    3  A    between atoms: C7_10  and  O2_11 
REMARK    4  A    between atoms: C10_14  and  N2_15 
REMARK    5  A    between atoms: N2_15  and  C12_17 
REMARK    6  A    between atoms: C12_17  and  C13_18 
REMARK    7  A    between atoms: C13_18  and  N3_19 
ROOT
HETATM    1  C4  UNL     1      25.815   3.699  50.011  1.00  0.00     0.063 A 
HETATM    2  C5  UNL     1      26.914   4.138  49.338  1.00  0.00     0.058 A 
HETATM    3  C6  UNL     1      27.013   5.394  48.832  1.00  0.00     0.069 A 
HETATM    4 CL1  UNL     1      28.438   5.947  47.967  1.00  0.00    -0.081 Cl
HETATM    5  C7  UNL     1      25.973   6.284  48.991  1.00  0.00     0.092 A 
HETATM    6  C9  UNL     1      24.889   5.814  49.669  1.00  0.00     0.070 A 
HETATM    7  C10 UNL     1      24.741   4.526  50.211  1.00  0.00     0.059 A 
ENDROOT
BRANCH   7   8
HETATM    8  N2  UNL     1      23.514   4.313  50.937  1.00  0.00    -0.382 N 
HETATM    9  C11 UNL     1      23.559   4.598  52.386  1.00  0.00     0.150 C 
BRANCH   8  10
HETATM   10  C12 UNL     1      22.211   3.828  50.540  1.00  0.00     0.152 C 
BRANCH  10  11
HETATM   11  C13 UNL     1      21.752   2.700  51.395  1.00  0.00     0.291 C 
BRANCH  11  12
HETATM   12  N3  UNL     1      22.286   1.414  50.982  1.00  0.00     0.081 N 
HETATM   13  C14 UNL     1      21.864   1.206  49.609  1.00  0.00     0.309 C 
HETATM   14  C15 UNL     1      21.666   0.327  51.751  1.00  0.00     0.309 C 
ENDBRANCH  11  12
ENDBRANCH  10  11
ENDBRANCH   8  10
ENDBRANCH   7   8
BRANCH   1  15
HETATM   15  N1  UNL     1      25.676   2.404  50.516  1.00  0.00    -0.322 N 
HETATM   16  C3  UNL     1      26.533   1.816  51.472  1.00  0.00     0.244 C 
HETATM   17  O1  UNL     1      27.538   2.324  52.027  1.00  0.00    -0.268 OA
HETATM   18  H4  UNL     1      25.040   1.620  50.368  1.00  0.00     0.169 HD
BRANCH  16  19
HETATM   19  C2  UNL     1      26.627   0.535  52.154  1.00  0.00     0.064 C 
HETATM   20  C1  UNL     1      25.398   0.435  52.642  1.00  0.00     0.017 C 
ENDBRANCH  16  19
ENDBRANCH   1  15
BRANCH   5  21
HETATM   21  O2  UNL     1      26.035   7.577  48.487  1.00  0.00    -0.354 OA
HETATM   22  C8  UNL     1      25.491   7.982  47.265  1.00  0.00     0.210 C 
ENDBRANCH   5  21
TORSDOF 7
ENDMDL
