MODEL 1
REMARK VINA RESULT:      -8.0      0.000      0.000
REMARK  7 active torsions:
REMARK  status: ('A' for Active; 'I' for Inactive)
REMARK    1  A    between atoms: C2_2  and  O1_3 
REMARK    2  A    between atoms: C4_6  and  N1_7 
REMARK    3  A    between atoms: N1_7  and  C5_8 
REMARK    4  A    between atoms: C5_8  and  C6_9 
REMARK    5  A    between atoms: C8_11  and  O3_12 
REMARK    6  A    between atoms: C11_15  and  O4_16 
REMARK    7  A    between atoms: C14_19  and  O5_20 
ROOT
HETATM    1  N1  UNL     1      26.802   3.215  51.477  1.00  0.00    -0.387 N 
HETATM    2  H7  UNL     1      26.913   4.077  52.055  1.00  0.00     0.159 HD
ENDROOT
BRANCH   1   3
HETATM    3  C4  UNL     1      27.091   1.989  52.170  1.00  0.00     0.029 C 
HETATM    4  C3  UNL     1      27.899   1.948  53.418  1.00  0.00     0.228 C 
HETATM    5  O2  UNL     1      28.879   0.974  53.212  1.00  0.00    -0.344 OA
HETATM    6  C2  UNL     1      28.563  -0.260  53.750  1.00  0.00     0.208 C 
HETATM    7  C1  UNL     1      29.831  -1.105  53.646  1.00  0.00     0.087 C 
HETATM    8  C14 UNL     1      27.525  -0.990  52.974  1.00  0.00     0.104 C 
HETATM    9  C13 UNL     1      26.667  -0.540  52.068  1.00  0.00     0.040 C 
HETATM   10  C12 UNL     1      26.586   0.858  51.643  1.00  0.00     0.029 C 
BRANCH   6  11
HETATM   11  O1  UNL     1      28.245  -0.142  55.099  1.00  0.00    -0.360 OA
HETATM   12  H4  UNL     1      27.488   0.447  55.265  1.00  0.00     0.213 HD
ENDBRANCH   6  11
BRANCH   8  13
HETATM   13  O5  UNL     1      27.500  -2.342  53.289  1.00  0.00    -0.359 OA
HETATM   14  H17 UNL     1      28.304  -2.868  52.925  1.00  0.00     0.217 HD
ENDBRANCH   8  13
ENDBRANCH   1   3
BRANCH   1  15
HETATM   15  C5  UNL     1      26.404   3.072  50.105  1.00  0.00     0.161 C 
BRANCH  15  16
HETATM   16  C6  UNL     1      25.911   4.307  49.466  1.00  0.00    -0.005 A 
HETATM   17  C7  UNL     1      24.591   4.693  49.225  1.00  0.00     0.048 A 
HETATM   18  C8  UNL     1      24.349   5.904  48.605  1.00  0.00     0.066 A 
HETATM   19  C9  UNL     1      25.362   6.754  48.213  1.00  0.00     0.039 A 
HETATM   20  C10 UNL     1      26.683   6.383  48.449  1.00  0.00     0.040 A 
HETATM   21  C11 UNL     1      26.919   5.190  49.059  1.00  0.00     0.073 A 
BRANCH  18  22
HETATM   22  O3  UNL     1      23.002   6.235  48.391  1.00  0.00    -0.361 OA
HETATM   23  H11 UNL     1      22.869   7.113  47.883  1.00  0.00     0.217 HD
ENDBRANCH  18  22
BRANCH  21  24
HETATM   24  O4  UNL     1      28.272   4.910  49.249  1.00  0.00    -0.360 OA
HETATM   25  H14 UNL     1      28.604   4.059  48.791  1.00  0.00     0.217 HD
ENDBRANCH  21  24
ENDBRANCH  15  16
ENDBRANCH   1  15
TORSDOF 7
ENDMDL
MODEL 2
REMARK VINA RESULT:      -7.8      0.975      2.055
REMARK  7 active torsions:
REMARK  status: ('A' for Active; 'I' for Inactive)
REMARK    1  A    between atoms: C2_2  and  O1_3 
REMARK    2  A    between atoms: C4_6  and  N1_7 
REMARK    3  A    between atoms: N1_7  and  C5_8 
REMARK    4  A    between atoms: C5_8  and  C6_9 
REMARK    5  A    between atoms: C8_11  and  O3_12 
REMARK    6  A    between atoms: C11_15  and  O4_16 
REMARK    7  A    between atoms: C14_19  and  O5_20 
ROOT
HETATM    1  N1  UNL     1      26.411   3.227  51.453  1.00  0.00    -0.387 N 
HETATM    2  H7  UNL     1      26.080   4.003  52.067  1.00  0.00     0.159 HD
ENDROOT
BRANCH   1   3
HETATM    3  C4  UNL     1      26.895   2.071  52.158  1.00  0.00     0.029 C 
HETATM    4  C3  UNL     1      27.796   2.174  53.337  1.00  0.00     0.228 C 
HETATM    5  O2  UNL     1      28.865   1.310  53.083  1.00  0.00    -0.344 OA
HETATM    6  C2  UNL     1      28.738   0.072  53.682  1.00  0.00     0.208 C 
HETATM    7  C1  UNL     1      30.085  -0.626  53.502  1.00  0.00     0.087 C 
HETATM    8  C14 UNL     1      27.736  -0.804  53.017  1.00  0.00     0.104 C 
HETATM    9  C13 UNL     1      26.764  -0.492  52.170  1.00  0.00     0.040 C 
HETATM   10  C12 UNL     1      26.487   0.869  51.710  1.00  0.00     0.029 C 
BRANCH   6  11
HETATM   11  O1  UNL     1      28.513   0.206  55.049  1.00  0.00    -0.360 OA
HETATM   12  H4  UNL     1      28.336   1.125  55.320  1.00  0.00     0.213 HD
ENDBRANCH   6  11
BRANCH   8  13
HETATM   13  O5  UNL     1      27.895  -2.136  53.375  1.00  0.00    -0.359 OA
HETATM   14  H17 UNL     1      28.339  -2.268  54.292  1.00  0.00     0.217 HD
ENDBRANCH   8  13
ENDBRANCH   1   3
BRANCH   1  15
HETATM   15  C5  UNL     1      26.453   3.141  50.020  1.00  0.00     0.161 C 
BRANCH  15  16
HETATM   16  C6  UNL     1      26.700   4.419  49.326  1.00  0.00    -0.005 A 
HETATM   17  C7  UNL     1      27.869   4.855  48.700  1.00  0.00     0.048 A 
HETATM   18  C8  UNL     1      27.886   6.103  48.106  1.00  0.00     0.066 A 
HETATM   19  C9  UNL     1      26.791   6.940  48.104  1.00  0.00     0.039 A 
HETATM   20  C10 UNL     1      25.617   6.518  48.722  1.00  0.00     0.040 A 
HETATM   21  C11 UNL     1      25.602   5.289  49.308  1.00  0.00     0.073 A 
BRANCH  18  22
HETATM   22  O3  UNL     1      29.090   6.483  47.492  1.00  0.00    -0.361 OA
HETATM   23  H11 UNL     1      29.633   5.697  47.129  1.00  0.00     0.217 HD
ENDBRANCH  18  22
BRANCH  21  24
HETATM   24  O4  UNL     1      24.384   4.960  49.900  1.00  0.00    -0.360 OA
HETATM   25  H14 UNL     1      24.017   5.660  50.549  1.00  0.00     0.217 HD
ENDBRANCH  21  24
ENDBRANCH  15  16
ENDBRANCH   1  15
TORSDOF 7
ENDMDL
MODEL 3
REMARK VINA RESULT:      -7.7      3.980      7.065
REMARK  7 active torsions:
REMARK  status: ('A' for Active; 'I' for Inactive)
REMARK    1  A    between atoms: C2_2  and  O1_3 
REMARK    2  A    between atoms: C4_6  and  N1_7 
REMARK    3  A    between atoms: N1_7  and  C5_8 
REMARK    4  A    between atoms: C5_8  and  C6_9 
REMARK    5  A    between atoms: C8_11  and  O3_12 
REMARK    6  A    between atoms: C11_15  and  O4_16 
REMARK    7  A    between atoms: C14_19  and  O5_20 
ROOT
HETATM    1  N1  UNL     1      25.885   1.481  53.114  1.00  0.00    -0.387 N 
HETATM    2  H7  UNL     1      25.987   2.323  53.721  1.00  0.00     0.159 HD
ENDROOT
BRANCH   1   3
HETATM    3  C4  UNL     1      24.649   0.765  53.287  1.00  0.00     0.029 C 
HETATM    4  C3  UNL     1      23.454   1.019  52.439  1.00  0.00     0.228 C 
HETATM    5  O2  UNL     1      22.387   1.206  53.321  1.00  0.00    -0.344 OA
HETATM    6  C2  UNL     1      21.618   0.075  53.518  1.00  0.00     0.208 C 
HETATM    7  C1  UNL     1      20.385   0.531  54.295  1.00  0.00     0.087 C 
HETATM    8  C14 UNL     1      22.282  -0.946  54.372  1.00  0.00     0.104 C 
HETATM    9  C13 UNL     1      23.560  -1.075  54.706  1.00  0.00     0.040 C 
HETATM   10  C12 UNL     1      24.616  -0.168  54.256  1.00  0.00     0.029 C 
BRANCH   6  11
HETATM   11  O1  UNL     1      21.182  -0.441  52.301  1.00  0.00    -0.360 OA
HETATM   12  H4  UNL     1      20.257  -0.215  52.098  1.00  0.00     0.213 HD
ENDBRANCH   6  11
BRANCH   8  13
HETATM   13  O5  UNL     1      21.376  -1.875  54.866  1.00  0.00    -0.359 OA
HETATM   14  H17 UNL     1      21.637  -2.850  54.676  1.00  0.00     0.217 HD
ENDBRANCH   8  13
ENDBRANCH   1   3
BRANCH   1  15
HETATM   15  C5  UNL     1      26.786   0.934  52.139  1.00  0.00     0.161 C 
BRANCH  15  16
HETATM   16  C6  UNL     1      27.797   0.004  52.677  1.00  0.00    -0.005 A 
HETATM   17  C7  UNL     1      27.738  -1.388  52.765  1.00  0.00     0.048 A 
HETATM   18  C8  UNL     1      28.807  -2.072  53.312  1.00  0.00     0.066 A 
HETATM   19  C9  UNL     1      29.938  -1.434  53.777  1.00  0.00     0.039 A 
HETATM   20  C10 UNL     1      30.012  -0.046  53.694  1.00  0.00     0.040 A 
HETATM   21  C11 UNL     1      28.958   0.626  53.156  1.00  0.00     0.073 A 
BRANCH  18  22
HETATM   22  O3  UNL     1      28.688  -3.469  53.371  1.00  0.00    -0.361 OA
HETATM   23  H11 UNL     1      28.842  -3.856  54.305  1.00  0.00     0.217 HD
ENDBRANCH  18  22
BRANCH  21  24
HETATM   24  O4  UNL     1      29.128   2.009  53.119  1.00  0.00    -0.360 OA
HETATM   25  H14 UNL     1      28.788   2.507  53.944  1.00  0.00     0.217 HD
ENDBRANCH  21  24
ENDBRANCH  15  16
ENDBRANCH   1  15
TORSDOF 7
ENDMDL
MODEL 4
REMARK VINA RESULT:      -7.7      4.428      7.510
REMARK  7 active torsions:
REMARK  status: ('A' for Active; 'I' for Inactive)
REMARK    1  A    between atoms: C2_2  and  O1_3 
REMARK    2  A    between atoms: C4_6  and  N1_7 
REMARK    3  A    between atoms: N1_7  and  C5_8 
REMARK    4  A    between atoms: C5_8  and  C6_9 
REMARK    5  A    between atoms: C8_11  and  O3_12 
REMARK    6  A    between atoms: C11_15  and  O4_16 
REMARK    7  A    between atoms: C14_19  and  O5_20 
ROOT
HETATM    1  N1  UNL     1      25.178  -1.194  53.704  1.00  0.00    -0.387 N 
HETATM    2  H7  UNL     1      25.302  -1.877  54.483  1.00  0.00     0.159 HD
ENDROOT
BRANCH   1   3
HETATM    3  C4  UNL     1      23.910  -0.515  53.700  1.00  0.00     0.029 C 
HETATM    4  C3  UNL     1      22.745  -0.993  54.491  1.00  0.00     0.228 C 
HETATM    5  O2  UNL     1      21.668  -1.042  53.603  1.00  0.00    -0.344 OA
HETATM    6  C2  UNL     1      20.848   0.069  53.655  1.00  0.00     0.208 C 
HETATM    7  C1  UNL     1      19.619  -0.272  52.816  1.00  0.00     0.087 C 
HETATM    8  C14 UNL     1      21.450   1.274  53.023  1.00  0.00     0.104 C 
HETATM    9  C13 UNL     1      22.713   1.527  52.707  1.00  0.00     0.040 C 
HETATM   10  C12 UNL     1      23.817   0.596  52.945  1.00  0.00     0.029 C 
BRANCH   6  11
HETATM   11  O1  UNL     1      20.417   0.302  54.958  1.00  0.00    -0.360 OA
HETATM   12  H4  UNL     1      20.751   1.138  55.329  1.00  0.00     0.213 HD
ENDBRANCH   6  11
BRANCH   8  13
HETATM   13  O5  UNL     1      20.495   2.242  52.744  1.00  0.00    -0.359 OA
HETATM   14  H17 UNL     1      19.735   1.912  52.137  1.00  0.00     0.217 HD
ENDBRANCH   8  13
ENDBRANCH   1   3
BRANCH   1  15
HETATM   15  C5  UNL     1      26.078  -0.832  52.645  1.00  0.00     0.161 C 
BRANCH  15  16
HETATM   16  C6  UNL     1      27.454  -0.521  53.076  1.00  0.00    -0.005 A 
HETATM   17  C7  UNL     1      27.986   0.711  53.462  1.00  0.00     0.048 A 
HETATM   18  C8  UNL     1      29.317   0.781  53.830  1.00  0.00     0.066 A 
HETATM   19  C9  UNL     1      30.146  -0.321  53.833  1.00  0.00     0.039 A 
HETATM   20  C10 UNL     1      29.629  -1.556  53.452  1.00  0.00     0.040 A 
HETATM   21  C11 UNL     1      28.318  -1.623  53.090  1.00  0.00     0.073 A 
BRANCH  18  22
HETATM   22  O3  UNL     1      29.792   2.046  54.208  1.00  0.00    -0.361 OA
HETATM   23  H11 UNL     1      29.209   2.512  54.908  1.00  0.00     0.217 HD
ENDBRANCH  18  22
BRANCH  21  24
HETATM   24  O4  UNL     1      27.898  -2.902  52.725  1.00  0.00    -0.360 OA
HETATM   25  H14 UNL     1      27.962  -3.107  51.725  1.00  0.00     0.217 HD
ENDBRANCH  21  24
ENDBRANCH  15  16
ENDBRANCH   1  15
TORSDOF 7
ENDMDL
MODEL 5
REMARK VINA RESULT:      -7.5      3.128      4.308
REMARK  7 active torsions:
REMARK  status: ('A' for Active; 'I' for Inactive)
REMARK    1  A    between atoms: C2_2  and  O1_3 
REMARK    2  A    between atoms: C4_6  and  N1_7 
REMARK    3  A    between atoms: N1_7  and  C5_8 
REMARK    4  A    between atoms: C5_8  and  C6_9 
REMARK    5  A    between atoms: C8_11  and  O3_12 
REMARK    6  A    between atoms: C11_15  and  O4_16 
REMARK    7  A    between atoms: C14_19  and  O5_20 
ROOT
HETATM    1  N1  UNL     1      25.590   2.792  52.047  1.00  0.00    -0.387 N 
HETATM    2  H7  UNL     1      26.100   3.318  51.304  1.00  0.00     0.159 HD
ENDROOT
BRANCH   1   3
HETATM    3  C4  UNL     1      26.307   1.666  52.582  1.00  0.00     0.029 C 
HETATM    4  C3  UNL     1      27.190   1.776  53.774  1.00  0.00     0.228 C 
HETATM    5  O2  UNL     1      28.404   1.189  53.411  1.00  0.00    -0.344 OA
HETATM    6  C2  UNL     1      28.537  -0.124  53.823  1.00  0.00     0.208 C 
HETATM    7  C1  UNL     1      29.992  -0.505  53.560  1.00  0.00     0.087 C 
HETATM    8  C14 UNL     1      27.718  -1.076  53.026  1.00  0.00     0.104 C 
HETATM    9  C13 UNL     1      26.689  -0.846  52.221  1.00  0.00     0.040 C 
HETATM   10  C12 UNL     1      26.139   0.485  51.960  1.00  0.00     0.029 C 
BRANCH   6  11
HETATM   11  O1  UNL     1      28.313  -0.235  55.192  1.00  0.00    -0.360 OA
HETATM   12  H4  UNL     1      29.036   0.134  55.731  1.00  0.00     0.213 HD
ENDBRANCH   6  11
BRANCH   8  13
HETATM   13  O5  UNL     1      28.145  -2.387  53.189  1.00  0.00    -0.359 OA
HETATM   14  H17 UNL     1      27.553  -2.940  53.822  1.00  0.00     0.217 HD
ENDBRANCH   8  13
ENDBRANCH   1   3
BRANCH   1  15
HETATM   15  C5  UNL     1      24.289   3.023  52.610  1.00  0.00     0.161 C 
BRANCH  15  16
HETATM   16  C6  UNL     1      23.261   2.037  52.228  1.00  0.00    -0.005 A 
HETATM   17  C7  UNL     1      22.605   1.108  53.038  1.00  0.00     0.048 A 
HETATM   18  C8  UNL     1      21.666   0.267  52.470  1.00  0.00     0.066 A 
HETATM   19  C9  UNL     1      21.347   0.308  51.129  1.00  0.00     0.039 A 
HETATM   20  C10 UNL     1      21.991   1.230  50.310  1.00  0.00     0.040 A 
HETATM   21  C11 UNL     1      22.916   2.058  50.871  1.00  0.00     0.073 A 
BRANCH  18  22
HETATM   22  O3  UNL     1      21.041  -0.643  53.336  1.00  0.00    -0.361 OA
HETATM   23  H11 UNL     1      20.062  -0.423  53.528  1.00  0.00     0.217 HD
ENDBRANCH  18  22
BRANCH  21  24
HETATM   24  O4  UNL     1      23.504   2.942  49.968  1.00  0.00    -0.360 OA
HETATM   25  H14 UNL     1      23.665   2.560  49.033  1.00  0.00     0.217 HD
ENDBRANCH  21  24
ENDBRANCH  15  16
ENDBRANCH   1  15
TORSDOF 7
ENDMDL
MODEL 6
REMARK VINA RESULT:      -7.4      1.697      7.247
REMARK  7 active torsions:
REMARK  status: ('A' for Active; 'I' for Inactive)
REMARK    1  A    between atoms: C2_2  and  O1_3 
REMARK    2  A    between atoms: C4_6  and  N1_7 
REMARK    3  A    between atoms: N1_7  and  C5_8 
REMARK    4  A    between atoms: C5_8  and  C6_9 
REMARK    5  A    between atoms: C8_11  and  O3_12 
REMARK    6  A    between atoms: C11_15  and  O4_16 
REMARK    7  A    between atoms: C14_19  and  O5_20 
ROOT
HETATM    1  N1  UNL     1      25.254   1.142  52.180  1.00  0.00    -0.387 N 
HETATM    2  H7  UNL     1      24.645   0.452  51.688  1.00  0.00     0.159 HD
ENDROOT
BRANCH   1   3
HETATM    3  C4  UNL     1      25.403   2.400  51.501  1.00  0.00     0.029 C 
HETATM    4  C3  UNL     1      24.547   3.578  51.805  1.00  0.00     0.228 C 
HETATM    5  O2  UNL     1      24.065   4.033  50.575  1.00  0.00    -0.344 OA
HETATM    6  C2  UNL     1      24.786   5.088  50.048  1.00  0.00     0.208 C 
HETATM    7  C1  UNL     1      23.979   5.598  48.855  1.00  0.00     0.087 C 
HETATM    8  C14 UNL     1      26.107   4.681  49.498  1.00  0.00     0.104 C 
HETATM    9  C13 UNL     1      26.808   3.574  49.702  1.00  0.00     0.040 C 
HETATM   10  C12 UNL     1      26.371   2.479  50.569  1.00  0.00     0.029 C 
BRANCH   6  11
HETATM   11  O1  UNL     1      24.881   6.128  50.967  1.00  0.00    -0.360 OA
HETATM   12  H4  UNL     1      24.190   6.100  51.652  1.00  0.00     0.213 HD
ENDBRANCH   6  11
BRANCH   8  13
HETATM   13  O5  UNL     1      26.634   5.646  48.650  1.00  0.00    -0.359 OA
HETATM   14  H17 UNL     1      25.934   6.306  48.288  1.00  0.00     0.217 HD
ENDBRANCH   8  13
ENDBRANCH   1   3
BRANCH   1  15
HETATM   15  C5  UNL     1      25.960   1.022  53.425  1.00  0.00     0.161 C 
BRANCH  15  16
HETATM   16  C6  UNL     1      27.143   0.141  53.389  1.00  0.00    -0.005 A 
HETATM   17  C7  UNL     1      27.199  -1.226  53.109  1.00  0.00     0.048 A 
HETATM   18  C8  UNL     1      28.425  -1.865  53.133  1.00  0.00     0.066 A 
HETATM   19  C9  UNL     1      29.601  -1.206  53.421  1.00  0.00     0.039 A 
HETATM   20  C10 UNL     1      29.560   0.157  53.700  1.00  0.00     0.040 A 
HETATM   21  C11 UNL     1      28.352   0.785  53.677  1.00  0.00     0.073 A 
BRANCH  18  22
HETATM   22  O3  UNL     1      28.416  -3.238  52.842  1.00  0.00    -0.361 OA
HETATM   23  H11 UNL     1      28.075  -3.819  53.610  1.00  0.00     0.217 HD
ENDBRANCH  18  22
BRANCH  21  24
HETATM   24  O4  UNL     1      28.417   2.146  53.972  1.00  0.00    -0.360 OA
HETATM   25  H14 UNL     1      29.135   2.664  53.460  1.00  0.00     0.217 HD
ENDBRANCH  21  24
ENDBRANCH  15  16
ENDBRANCH   1  15
TORSDOF 7
ENDMDL
MODEL 7
REMARK VINA RESULT:      -7.2      2.557      7.197
REMARK  7 active torsions:
REMARK  status: ('A' for Active; 'I' for Inactive)
REMARK    1  A    between atoms: C2_2  and  O1_3 
REMARK    2  A    between atoms: C4_6  and  N1_7 
REMARK    3  A    between atoms: N1_7  and  C5_8 
REMARK    4  A    between atoms: C5_8  and  C6_9 
REMARK    5  A    between atoms: C8_11  and  O3_12 
REMARK    6  A    between atoms: C11_15  and  O4_16 
REMARK    7  A    between atoms: C14_19  and  O5_20 
ROOT
HETATM    1  N1  UNL     1      26.308   2.427  52.582  1.00  0.00    -0.387 N 
HETATM    2  H7  UNL     1      27.083   3.103  52.403  1.00  0.00     0.159 HD
ENDROOT
BRANCH   1   3
HETATM    3  C4  UNL     1      25.157   2.599  51.737  1.00  0.00     0.029 C 
HETATM    4  C3  UNL     1      23.780   2.257  52.183  1.00  0.00     0.228 C 
HETATM    5  O2  UNL     1      23.237   1.453  51.178  1.00  0.00    -0.344 OA
HETATM    6  C2  UNL     1      22.438   2.139  50.283  1.00  0.00     0.208 C 
HETATM    7  C1  UNL     1      21.750   1.077  49.428  1.00  0.00     0.087 C 
HETATM    8  C14 UNL     1      23.211   2.985  49.334  1.00  0.00     0.104 C 
HETATM    9  C13 UNL     1      24.466   3.412  49.403  1.00  0.00     0.040 C 
HETATM   10  C12 UNL     1      25.374   3.101  50.507  1.00  0.00     0.029 C 
BRANCH   6  11
HETATM   11  O1  UNL     1      21.446   2.849  50.952  1.00  0.00    -0.360 OA
HETATM   12  H4  UNL     1      20.633   2.332  51.094  1.00  0.00     0.213 HD
ENDBRANCH   6  11
BRANCH   8  13
HETATM   13  O5  UNL     1      22.452   3.351  48.231  1.00  0.00    -0.359 OA
HETATM   14  H17 UNL     1      22.560   4.336  47.961  1.00  0.00     0.217 HD
ENDBRANCH   8  13
ENDBRANCH   1   3
BRANCH   1  15
HETATM   15  C5  UNL     1      26.220   1.359  53.537  1.00  0.00     0.161 C 
BRANCH  15  16
HETATM   16  C6  UNL     1      27.318   0.375  53.475  1.00  0.00    -0.005 A 
HETATM   17  C7  UNL     1      27.250  -0.985  53.166  1.00  0.00     0.048 A 
HETATM   18  C8  UNL     1      28.413  -1.732  53.168  1.00  0.00     0.066 A 
HETATM   19  C9  UNL     1      29.645  -1.189  53.463  1.00  0.00     0.039 A 
HETATM   20  C10 UNL     1      29.729   0.166  53.771  1.00  0.00     0.040 A 
HETATM   21  C11 UNL     1      28.583   0.901  53.769  1.00  0.00     0.073 A 
BRANCH  18  22
HETATM   22  O3  UNL     1      28.278  -3.092  52.848  1.00  0.00    -0.361 OA
HETATM   23  H11 UNL     1      28.344  -3.288  51.846  1.00  0.00     0.217 HD
ENDBRANCH  18  22
BRANCH  21  24
HETATM   24  O4  UNL     1      28.772   2.244  54.092  1.00  0.00    -0.360 OA
HETATM   25  H14 UNL     1      28.411   2.522  55.007  1.00  0.00     0.217 HD
ENDBRANCH  21  24
ENDBRANCH  15  16
ENDBRANCH   1  15
TORSDOF 7
ENDMDL
MODEL 8
REMARK VINA RESULT:      -7.2      2.028      2.525
REMARK  7 active torsions:
REMARK  status: ('A' for Active; 'I' for Inactive)
REMARK    1  A    between atoms: C2_2  and  O1_3 
REMARK    2  A    between atoms: C4_6  and  N1_7 
REMARK    3  A    between atoms: N1_7  and  C5_8 
REMARK    4  A    between atoms: C5_8  and  C6_9 
REMARK    5  A    between atoms: C8_11  and  O3_12 
REMARK    6  A    between atoms: C11_15  and  O4_16 
REMARK    7  A    between atoms: C14_19  and  O5_20 
ROOT
HETATM    1  N1  UNL     1      25.904   2.886  52.129  1.00  0.00    -0.387 N 
HETATM    2  H7  UNL     1      26.562   3.619  51.787  1.00  0.00     0.159 HD
ENDROOT
BRANCH   1   3
HETATM    3  C4  UNL     1      26.540   1.703  52.644  1.00  0.00     0.029 C 
HETATM    4  C3  UNL     1      27.472   1.737  53.802  1.00  0.00     0.228 C 
HETATM    5  O2  UNL     1      28.617   1.047  53.397  1.00  0.00    -0.344 OA
HETATM    6  C2  UNL     1      28.652  -0.271  53.810  1.00  0.00     0.208 C 
HETATM    7  C1  UNL     1      30.058  -0.777  53.496  1.00  0.00     0.087 C 
HETATM    8  C14 UNL     1      27.725  -1.150  53.047  1.00  0.00     0.104 C 
HETATM    9  C13 UNL     1      26.690  -0.833  52.280  1.00  0.00     0.040 C 
HETATM   10  C12 UNL     1      26.248   0.540  52.033  1.00  0.00     0.029 C 
BRANCH   6  11
HETATM   11  O1  UNL     1      28.470  -0.361  55.186  1.00  0.00    -0.360 OA
HETATM   12  H4  UNL     1      28.666   0.470  55.655  1.00  0.00     0.213 HD
ENDBRANCH   6  11
BRANCH   8  13
HETATM   13  O5  UNL     1      28.043  -2.493  53.201  1.00  0.00    -0.359 OA
HETATM   14  H17 UNL     1      27.523  -3.117  52.571  1.00  0.00     0.217 HD
ENDBRANCH   8  13
ENDBRANCH   1   3
BRANCH   1  15
HETATM   15  C5  UNL     1      24.468   2.882  52.165  1.00  0.00     0.161 C 
BRANCH  15  16
HETATM   16  C6  UNL     1      23.812   2.972  50.846  1.00  0.00    -0.005 A 
HETATM   17  C7  UNL     1      22.979   2.040  50.225  1.00  0.00     0.048 A 
HETATM   18  C8  UNL     1      22.467   2.327  48.973  1.00  0.00     0.066 A 
HETATM   19  C9  UNL     1      22.745   3.502  48.309  1.00  0.00     0.039 A 
HETATM   20  C10 UNL     1      23.572   4.443  48.917  1.00  0.00     0.040 A 
HETATM   21  C11 UNL     1      24.075   4.158  50.150  1.00  0.00     0.073 A 
BRANCH  18  22
HETATM   22  O3  UNL     1      21.636   1.350  48.402  1.00  0.00    -0.361 OA
HETATM   23  H11 UNL     1      22.146   0.567  47.988  1.00  0.00     0.217 HD
ENDBRANCH  18  22
BRANCH  21  24
HETATM   24  O4  UNL     1      24.892   5.160  50.671  1.00  0.00    -0.360 OA
HETATM   25  H14 UNL     1      25.684   5.422  50.081  1.00  0.00     0.217 HD
ENDBRANCH  21  24
ENDBRANCH  15  16
ENDBRANCH   1  15
TORSDOF 7
ENDMDL
MODEL 9
REMARK VINA RESULT:      -7.1      2.969      3.401
REMARK  7 active torsions:
REMARK  status: ('A' for Active; 'I' for Inactive)
REMARK    1  A    between atoms: C2_2  and  O1_3 
REMARK    2  A    between atoms: C4_6  and  N1_7 
REMARK    3  A    between atoms: N1_7  and  C5_8 
REMARK    4  A    between atoms: C5_8  and  C6_9 
REMARK    5  A    between atoms: C8_11  and  O3_12 
REMARK    6  A    between atoms: C11_15  and  O4_16 
REMARK    7  A    between atoms: C14_19  and  O5_20 
ROOT
HETATM    1  N1  UNL     1      25.605   2.770  52.290  1.00  0.00    -0.387 N 
HETATM    2  H7  UNL     1      25.943   3.171  51.388  1.00  0.00     0.159 HD
ENDROOT
BRANCH   1   3
HETATM    3  C4  UNL     1      26.341   1.622  52.748  1.00  0.00     0.029 C 
HETATM    4  C3  UNL     1      27.304   1.690  53.880  1.00  0.00     0.228 C 
HETATM    5  O2  UNL     1      28.482   1.098  53.420  1.00  0.00    -0.344 OA
HETATM    6  C2  UNL     1      28.625  -0.226  53.790  1.00  0.00     0.208 C 
HETATM    7  C1  UNL     1      30.053  -0.619  53.419  1.00  0.00     0.087 C 
HETATM    8  C14 UNL     1      27.740  -1.148  53.027  1.00  0.00     0.104 C 
HETATM    9  C13 UNL     1      26.662  -0.884  52.300  1.00  0.00     0.040 C 
HETATM   10  C12 UNL     1      26.114   0.459  52.110  1.00  0.00     0.029 C 
BRANCH   6  11
HETATM   11  O1  UNL     1      28.493  -0.370  55.168  1.00  0.00    -0.360 OA
HETATM   12  H4  UNL     1      27.988   0.352  55.582  1.00  0.00     0.213 HD
ENDBRANCH   6  11
BRANCH   8  13
HETATM   13  O5  UNL     1      28.159  -2.468  53.129  1.00  0.00    -0.359 OA
HETATM   14  H17 UNL     1      29.125  -2.622  52.815  1.00  0.00     0.217 HD
ENDBRANCH   8  13
ENDBRANCH   1   3
BRANCH   1  15
HETATM   15  C5  UNL     1      24.524   3.190  53.137  1.00  0.00     0.161 C 
BRANCH  15  16
HETATM   16  C6  UNL     1      23.387   3.813  52.432  1.00  0.00    -0.005 A 
HETATM   17  C7  UNL     1      23.119   5.171  52.246  1.00  0.00     0.048 A 
HETATM   18  C8  UNL     1      21.984   5.541  51.550  1.00  0.00     0.066 A 
HETATM   19  C9  UNL     1      21.099   4.621  51.028  1.00  0.00     0.039 A 
HETATM   20  C10 UNL     1      21.354   3.264  51.204  1.00  0.00     0.040 A 
HETATM   21  C11 UNL     1      22.473   2.901  51.890  1.00  0.00     0.073 A 
BRANCH  18  22
HETATM   22  O3  UNL     1      21.771   6.920  51.395  1.00  0.00    -0.361 OA
HETATM   23  H11 UNL     1      22.173   7.485  52.146  1.00  0.00     0.217 HD
ENDBRANCH  18  22
BRANCH  21  24
HETATM   24  O4  UNL     1      22.637   1.522  52.014  1.00  0.00    -0.360 OA
HETATM   25  H14 UNL     1      21.767   0.987  52.064  1.00  0.00     0.217 HD
ENDBRANCH  21  24
ENDBRANCH  15  16
ENDBRANCH   1  15
TORSDOF 7
ENDMDL
