MODEL 1
REMARK VINA RESULT:      -8.6      0.000      0.000
REMARK  4 active torsions:
REMARK  status: ('A' for Active; 'I' for Inactive)
REMARK    1  A    between atoms: C2_2  and  C3_3 
REMARK    2  A    between atoms: C2_2  and  C8_8 
REMARK    3  A    between atoms: C3_3  and  C4_4 
REMARK    4  A    between atoms: C4_4  and  C5_5 
REMARK       I    between atoms: C8_8  and  N1_10 
ROOT
HETATM    1  C8  UNL     1      24.163   3.990  51.223  1.00  0.00     0.361 C 
HETATM    2  O1  UNL     1      24.039   4.184  52.461  1.00  0.00    -0.259 OA
HETATM    3  N1  UNL     1      24.267   2.645  50.599  1.00  0.00     0.094 N 
HETATM    4  C9  UNL     1      24.194   1.704  51.675  1.00  0.00     0.261 A 
HETATM    5  N2  UNL     1      22.863   1.407  51.792  1.00  0.00    -0.233 NA
HETATM    6  C10 UNL     1      22.366   0.563  52.714  1.00  0.00     0.151 A 
HETATM    7  C11 UNL     1      23.267  -0.033  53.594  1.00  0.00     0.090 A 
HETATM    8  N3  UNL     1      22.717  -0.854  54.491  1.00  0.00    -0.240 NA
HETATM    9  C12 UNL     1      23.476  -1.476  55.392  1.00  0.00     0.236 A 
HETATM   10  N4  UNL     1      24.796  -1.237  55.349  1.00  0.00    -0.224 NA
HETATM   11  C13 UNL     1      25.385  -0.432  54.478  1.00  0.00     0.142 A 
HETATM   12  C14 UNL     1      24.618   0.241  53.512  1.00  0.00     0.056 A 
HETATM   13  C15 UNL     1      25.065   1.112  52.544  1.00  0.00     0.054 A 
HETATM   14  C16 UNL     1      26.308   1.674  52.050  1.00  0.00     0.043 C 
HETATM   15 BR1  UNL     1      26.393   2.402  50.336  1.00  0.00     0.120 Br
HETATM   16  C17 UNL     1      27.527   1.785  52.551  1.00  0.00     0.022 C 
HETATM   17  C18 UNL     1      28.125   1.369  53.840  1.00  0.00     0.018 C 
HETATM   18  C19 UNL     1      27.839   0.455  54.783  1.00  0.00     0.090 C 
HETATM   19  N5  UNL     1      26.771  -0.518  54.882  1.00  0.00    -0.350 N 
HETATM   20  H10 UNL     1      24.323   2.634  49.541  1.00  0.00     0.314 HD
HETATM   21  H16 UNL     1      27.084  -1.405  55.324  1.00  0.00     0.166 HD
ENDROOT
BRANCH   1  22
HETATM   22  C2  UNL     1      24.197   5.214  50.433  1.00  0.00     0.006 C 
HETATM   23  C1  UNL     1      23.658   5.809  51.511  1.00  0.00     0.045 C 
BRANCH  22  24
HETATM   24  C3  UNL     1      24.316   6.303  49.492  1.00  0.00     0.054 C 
BRANCH  24  25
HETATM   25  C4  UNL     1      25.223   6.776  48.674  1.00  0.00    -0.017 C 
BRANCH  25  26
HETATM   26  C5  UNL     1      26.423   7.435  48.109  1.00  0.00    -0.008 C 
HETATM   27  C6  UNL     1      27.561   6.785  48.039  1.00  0.00    -0.031 C 
HETATM   28  C7  UNL     1      27.543   5.395  48.550  1.00  0.00     0.036 C 
ENDBRANCH  25  26
ENDBRANCH  24  25
ENDBRANCH  22  24
ENDBRANCH   1  22
TORSDOF 4
ENDMDL
MODEL 2
REMARK VINA RESULT:      -8.2      2.252      4.129
REMARK  4 active torsions:
REMARK  status: ('A' for Active; 'I' for Inactive)
REMARK    1  A    between atoms: C2_2  and  C3_3 
REMARK    2  A    between atoms: C2_2  and  C8_8 
REMARK    3  A    between atoms: C3_3  and  C4_4 
REMARK    4  A    between atoms: C4_4  and  C5_5 
REMARK       I    between atoms: C8_8  and  N1_10 
ROOT
HETATM    1  C8  UNL     1      25.120   3.948  50.185  1.00  0.00     0.361 C 
HETATM    2  O1  UNL     1      24.606   3.010  49.520  1.00  0.00    -0.259 OA
HETATM    3  N1  UNL     1      25.038   4.059  51.664  1.00  0.00     0.094 N 
HETATM    4  C9  UNL     1      24.289   2.921  52.105  1.00  0.00     0.261 A 
HETATM    5  N2  UNL     1      25.229   1.959  52.357  1.00  0.00    -0.233 NA
HETATM    6  C10 UNL     1      24.928   0.717  52.777  1.00  0.00     0.151 A 
HETATM    7  C11 UNL     1      23.583   0.406  52.960  1.00  0.00     0.090 A 
HETATM    8  N3  UNL     1      23.345  -0.842  53.370  1.00  0.00    -0.240 NA
HETATM    9  C12 UNL     1      22.096  -1.260  53.571  1.00  0.00     0.236 A 
HETATM   10  N4  UNL     1      21.111  -0.377  53.343  1.00  0.00    -0.224 NA
HETATM   11  C13 UNL     1      21.300   0.869  52.937  1.00  0.00     0.142 A 
HETATM   12  C14 UNL     1      22.603   1.347  52.715  1.00  0.00     0.056 A 
HETATM   13  C15 UNL     1      22.974   2.603  52.289  1.00  0.00     0.054 A 
HETATM   14  C16 UNL     1      22.373   3.877  51.944  1.00  0.00     0.043 C 
HETATM   15 BR1  UNL     1      23.401   5.432  51.952  1.00  0.00     0.120 Br
HETATM   16  C17 UNL     1      21.147   4.255  51.622  1.00  0.00     0.022 C 
HETATM   17  C18 UNL     1      19.871   3.516  51.482  1.00  0.00     0.018 C 
HETATM   18  C19 UNL     1      19.373   2.361  51.955  1.00  0.00     0.090 C 
HETATM   19  N5  UNL     1      19.943   1.357  52.829  1.00  0.00    -0.350 N 
HETATM   20  H10 UNL     1      25.556   4.878  52.092  1.00  0.00     0.314 HD
HETATM   21  H16 UNL     1      19.235   0.936  53.464  1.00  0.00     0.166 HD
ENDROOT
BRANCH   1  22
HETATM   22  C2  UNL     1      25.818   4.936  49.372  1.00  0.00     0.006 C 
HETATM   23  C1  UNL     1      26.810   4.032  49.300  1.00  0.00     0.045 C 
BRANCH  22  24
HETATM   24  C3  UNL     1      26.332   6.041  48.597  1.00  0.00     0.054 C 
BRANCH  24  25
HETATM   25  C4  UNL     1      27.501   6.485  48.208  1.00  0.00    -0.017 C 
BRANCH  25  26
HETATM   26  C5  UNL     1      28.586   7.289  47.601  1.00  0.00    -0.008 C 
HETATM   27  C6  UNL     1      29.797   6.791  47.496  1.00  0.00    -0.031 C 
HETATM   28  C7  UNL     1      29.976   5.415  48.014  1.00  0.00     0.036 C 
ENDBRANCH  25  26
ENDBRANCH  24  25
ENDBRANCH  22  24
ENDBRANCH   1  22
TORSDOF 4
ENDMDL
MODEL 3
REMARK VINA RESULT:      -7.7      1.950      2.237
REMARK  4 active torsions:
REMARK  status: ('A' for Active; 'I' for Inactive)
REMARK    1  A    between atoms: C2_2  and  C3_3 
REMARK    2  A    between atoms: C2_2  and  C8_8 
REMARK    3  A    between atoms: C3_3  and  C4_4 
REMARK    4  A    between atoms: C4_4  and  C5_5 
REMARK       I    between atoms: C8_8  and  N1_10 
ROOT
HETATM    1  C8  UNL     1      23.253   5.119  51.717  1.00  0.00     0.361 C 
HETATM    2  O1  UNL     1      23.438   4.964  52.953  1.00  0.00    -0.259 OA
HETATM    3  N1  UNL     1      22.800   4.040  50.802  1.00  0.00     0.094 N 
HETATM    4  C9  UNL     1      22.637   2.875  51.616  1.00  0.00     0.261 A 
HETATM    5  N2  UNL     1      21.329   2.908  52.019  1.00  0.00    -0.233 NA
HETATM    6  C10 UNL     1      20.775   1.985  52.827  1.00  0.00     0.151 A 
HETATM    7  C11 UNL     1      21.588   0.946  53.271  1.00  0.00     0.090 A 
HETATM    8  N3  UNL     1      20.987   0.066  54.075  1.00  0.00    -0.240 NA
HETATM    9  C12 UNL     1      21.665  -0.968  54.571  1.00  0.00     0.236 A 
HETATM   10  N4  UNL     1      22.957  -1.074  54.228  1.00  0.00    -0.224 NA
HETATM   11  C13 UNL     1      23.595  -0.226  53.434  1.00  0.00     0.142 A 
HETATM   12  C14 UNL     1      22.914   0.876  52.890  1.00  0.00     0.056 A 
HETATM   13  C15 UNL     1      23.422   1.849  52.059  1.00  0.00     0.054 A 
HETATM   14  C16 UNL     1      24.660   2.194  51.387  1.00  0.00     0.043 C 
HETATM   15 BR1  UNL     1      24.643   3.349  49.923  1.00  0.00     0.120 Br
HETATM   16  C17 UNL     1      25.923   1.834  51.549  1.00  0.00     0.022 C 
HETATM   17  C18 UNL     1      26.592   0.917  52.500  1.00  0.00     0.018 C 
HETATM   18  C19 UNL     1      26.214  -0.130  53.254  1.00  0.00     0.090 C 
HETATM   19  N5  UNL     1      24.931  -0.780  53.417  1.00  0.00    -0.350 N 
HETATM   20  H10 UNL     1      22.644   4.329  49.794  1.00  0.00     0.314 HD
HETATM   21  H16 UNL     1      25.021  -1.808  53.546  1.00  0.00     0.166 HD
ENDROOT
BRANCH   1  22
HETATM   22  C2  UNL     1      23.525   6.471  51.245  1.00  0.00     0.006 C 
HETATM   23  C1  UNL     1      22.226   6.508  50.901  1.00  0.00     0.045 C 
BRANCH  22  24
HETATM   24  C3  UNL     1      24.000   7.775  50.842  1.00  0.00     0.054 C 
BRANCH  24  25
HETATM   25  C4  UNL     1      24.342   8.376  49.730  1.00  0.00    -0.017 C 
BRANCH  25  26
HETATM   26  C5  UNL     1      24.314   9.094  48.436  1.00  0.00    -0.008 C 
HETATM   27  C6  UNL     1      24.054   8.444  47.325  1.00  0.00    -0.031 C 
HETATM   28  C7  UNL     1      23.801   6.991  47.473  1.00  0.00     0.036 C 
ENDBRANCH  25  26
ENDBRANCH  24  25
ENDBRANCH  22  24
ENDBRANCH   1  22
TORSDOF 4
ENDMDL
MODEL 4
REMARK VINA RESULT:      -7.7      1.282      2.130
REMARK  4 active torsions:
REMARK  status: ('A' for Active; 'I' for Inactive)
REMARK    1  A    between atoms: C2_2  and  C3_3 
REMARK    2  A    between atoms: C2_2  and  C8_8 
REMARK    3  A    between atoms: C3_3  and  C4_4 
REMARK    4  A    between atoms: C4_4  and  C5_5 
REMARK       I    between atoms: C8_8  and  N1_10 
ROOT
HETATM    1  C8  UNL     1      24.010   4.019  51.221  1.00  0.00     0.361 C 
HETATM    2  O1  UNL     1      23.893   4.195  52.463  1.00  0.00    -0.259 OA
HETATM    3  N1  UNL     1      24.183   2.689  50.583  1.00  0.00     0.094 N 
HETATM    4  C9  UNL     1      24.181   1.736  51.651  1.00  0.00     0.261 A 
HETATM    5  N2  UNL     1      22.872   1.360  51.785  1.00  0.00    -0.233 NA
HETATM    6  C10 UNL     1      22.440   0.480  52.706  1.00  0.00     0.151 A 
HETATM    7  C11 UNL     1      23.387  -0.069  53.567  1.00  0.00     0.090 A 
HETATM    8  N3  UNL     1      22.900  -0.929  54.464  1.00  0.00    -0.240 NA
HETATM    9  C12 UNL     1      23.709  -1.513  55.347  1.00  0.00     0.236 A 
HETATM   10  N4  UNL     1      25.011  -1.197  55.287  1.00  0.00    -0.224 NA
HETATM   11  C13 UNL     1      25.539  -0.351  54.415  1.00  0.00     0.142 A 
HETATM   12  C14 UNL     1      24.719   0.284  53.467  1.00  0.00     0.056 A 
HETATM   13  C15 UNL     1      25.099   1.188  52.501  1.00  0.00     0.054 A 
HETATM   14  C16 UNL     1      26.299   1.827  51.994  1.00  0.00     0.043 C 
HETATM   15 BR1  UNL     1      26.314   2.573  50.285  1.00  0.00     0.120 Br
HETATM   16  C17 UNL     1      27.517   2.004  52.477  1.00  0.00     0.022 C 
HETATM   17  C18 UNL     1      28.159   1.613  53.754  1.00  0.00     0.018 C 
HETATM   18  C19 UNL     1      27.941   0.676  54.692  1.00  0.00     0.090 C 
HETATM   19  N5  UNL     1      26.933  -0.359  54.798  1.00  0.00    -0.350 N 
HETATM   20  H10 UNL     1      24.222   2.690  49.525  1.00  0.00     0.314 HD
HETATM   21  H16 UNL     1      27.304  -1.230  55.227  1.00  0.00     0.166 HD
ENDROOT
BRANCH   1  22
HETATM   22  C2  UNL     1      23.959   5.250  50.443  1.00  0.00     0.006 C 
HETATM   23  C1  UNL     1      23.746   5.869  51.617  1.00  0.00     0.045 C 
BRANCH  22  24
HETATM   24  C3  UNL     1      23.944   6.342  49.497  1.00  0.00     0.054 C 
BRANCH  24  25
HETATM   25  C4  UNL     1      23.287   7.462  49.326  1.00  0.00    -0.017 C 
BRANCH  25  26
HETATM   26  C5  UNL     1      22.355   8.601  49.485  1.00  0.00    -0.008 C 
HETATM   27  C6  UNL     1      21.199   8.602  48.862  1.00  0.00    -0.031 C 
HETATM   28  C7  UNL     1      20.919   7.414  48.022  1.00  0.00     0.036 C 
ENDBRANCH  25  26
ENDBRANCH  24  25
ENDBRANCH  22  24
ENDBRANCH   1  22
TORSDOF 4
ENDMDL
MODEL 5
REMARK VINA RESULT:      -7.6      2.459      7.815
REMARK  4 active torsions:
REMARK  status: ('A' for Active; 'I' for Inactive)
REMARK    1  A    between atoms: C2_2  and  C3_3 
REMARK    2  A    between atoms: C2_2  and  C8_8 
REMARK    3  A    between atoms: C3_3  and  C4_4 
REMARK    4  A    between atoms: C4_4  and  C5_5 
REMARK       I    between atoms: C8_8  and  N1_10 
ROOT
HETATM    1  C8  UNL     1      24.711   1.848  52.220  1.00  0.00     0.361 C 
HETATM    2  O1  UNL     1      25.185   2.847  52.823  1.00  0.00    -0.259 OA
HETATM    3  N1  UNL     1      24.421   1.817  50.763  1.00  0.00     0.094 N 
HETATM    4  C9  UNL     1      24.789   3.106  50.260  1.00  0.00     0.261 A 
HETATM    5  N2  UNL     1      26.095   2.972  49.873  1.00  0.00    -0.233 NA
HETATM    6  C10 UNL     1      26.826   3.977  49.358  1.00  0.00     0.151 A 
HETATM    7  C11 UNL     1      26.208   5.217  49.217  1.00  0.00     0.090 A 
HETATM    8  N3  UNL     1      26.983   6.177  48.708  1.00  0.00    -0.240 NA
HETATM    9  C12 UNL     1      26.506   7.409  48.534  1.00  0.00     0.236 A 
HETATM   10  N4  UNL     1      25.231   7.627  48.892  1.00  0.00    -0.224 NA
HETATM   11  C13 UNL     1      24.425   6.707  49.399  1.00  0.00     0.142 A 
HETATM   12  C14 UNL     1      24.892   5.395  49.597  1.00  0.00     0.056 A 
HETATM   13  C15 UNL     1      24.196   4.327  50.115  1.00  0.00     0.054 A 
HETATM   14  C16 UNL     1      22.869   4.003  50.605  1.00  0.00     0.043 C 
HETATM   15 BR1  UNL     1      22.306   2.228  50.685  1.00  0.00     0.120 Br
HETATM   16  C17 UNL     1      21.844   4.727  51.022  1.00  0.00     0.022 C 
HETATM   17  C18 UNL     1      21.634   6.187  51.159  1.00  0.00     0.018 C 
HETATM   18  C19 UNL     1      22.168   7.291  50.610  1.00  0.00     0.090 C 
HETATM   19  N5  UNL     1      23.211   7.461  49.620  1.00  0.00    -0.350 N 
HETATM   20  H10 UNL     1      24.067   0.893  50.385  1.00  0.00     0.314 HD
HETATM   21  H16 UNL     1      23.029   8.265  48.987  1.00  0.00     0.166 HD
ENDROOT
BRANCH   1  22
HETATM   22  C2  UNL     1      24.466   0.699  53.082  1.00  0.00     0.006 C 
HETATM   23  C1  UNL     1      25.626   0.217  52.606  1.00  0.00     0.045 C 
BRANCH  22  24
HETATM   24  C3  UNL     1      24.038  -0.336  53.995  1.00  0.00     0.054 C 
BRANCH  24  25
HETATM   25  C4  UNL     1      22.932  -0.980  54.273  1.00  0.00    -0.017 C 
BRANCH  25  26
HETATM   26  C5  UNL     1      21.632  -1.681  54.173  1.00  0.00    -0.008 C 
HETATM   27  C6  UNL     1      20.525  -0.998  53.998  1.00  0.00    -0.031 C 
HETATM   28  C7  UNL     1      20.681   0.473  53.912  1.00  0.00     0.036 C 
ENDBRANCH  25  26
ENDBRANCH  24  25
ENDBRANCH  22  24
ENDBRANCH   1  22
TORSDOF 4
ENDMDL
MODEL 6
REMARK VINA RESULT:      -7.4      3.882      6.799
REMARK  4 active torsions:
REMARK  status: ('A' for Active; 'I' for Inactive)
REMARK    1  A    between atoms: C2_2  and  C3_3 
REMARK    2  A    between atoms: C2_2  and  C8_8 
REMARK    3  A    between atoms: C3_3  and  C4_4 
REMARK    4  A    between atoms: C4_4  and  C5_5 
REMARK       I    between atoms: C8_8  and  N1_10 
ROOT
HETATM    1  C8  UNL     1      20.047   1.202  51.820  1.00  0.00     0.361 C 
HETATM    2  O1  UNL     1      20.413   2.064  52.663  1.00  0.00    -0.259 OA
HETATM    3  N1  UNL     1      20.969   0.239  51.163  1.00  0.00     0.094 N 
HETATM    4  C9  UNL     1      22.270   0.517  51.689  1.00  0.00     0.261 A 
HETATM    5  N2  UNL     1      22.392  -0.305  52.776  1.00  0.00    -0.233 NA
HETATM    6  C10 UNL     1      23.479  -0.335  53.569  1.00  0.00     0.151 A 
HETATM    7  C11 UNL     1      24.529   0.524  53.256  1.00  0.00     0.090 A 
HETATM    8  N3  UNL     1      25.576   0.457  54.081  1.00  0.00    -0.240 NA
HETATM    9  C12 UNL     1      26.638   1.237  53.889  1.00  0.00     0.236 A 
HETATM   10  N4  UNL     1      26.600   2.078  52.844  1.00  0.00    -0.224 NA
HETATM   11  C13 UNL     1      25.584   2.179  52.000  1.00  0.00     0.142 A 
HETATM   12  C14 UNL     1      24.446   1.372  52.169  1.00  0.00     0.056 A 
HETATM   13  C15 UNL     1      23.308   1.353  51.393  1.00  0.00     0.054 A 
HETATM   14  C16 UNL     1      22.771   1.984  50.202  1.00  0.00     0.043 C 
HETATM   15 BR1  UNL     1      21.373   1.181  49.266  1.00  0.00     0.120 Br
HETATM   16  C17 UNL     1      23.074   3.081  49.529  1.00  0.00     0.022 C 
HETATM   17  C18 UNL     1      24.106   4.126  49.723  1.00  0.00     0.018 C 
HETATM   18  C19 UNL     1      25.293   4.201  50.347  1.00  0.00     0.090 C 
HETATM   19  N5  UNL     1      26.041   3.220  51.106  1.00  0.00    -0.350 N 
HETATM   20  H10 UNL     1      20.512  -0.458  50.509  1.00  0.00     0.314 HD
HETATM   21  H16 UNL     1      27.067   3.310  50.967  1.00  0.00     0.166 HD
ENDROOT
BRANCH   1  22
HETATM   22  C2  UNL     1      18.618   1.223  51.536  1.00  0.00     0.006 C 
HETATM   23  C1  UNL     1      18.632  -0.080  51.869  1.00  0.00     0.045 C 
BRANCH  22  24
HETATM   24  C3  UNL     1      17.231   1.455  51.205  1.00  0.00     0.054 C 
BRANCH  24  25
HETATM   25  C4  UNL     1      16.096   1.590  51.845  1.00  0.00    -0.017 C 
BRANCH  25  26
HETATM   26  C5  UNL     1      14.672   1.814  52.181  1.00  0.00    -0.008 C 
HETATM   27  C6  UNL     1      14.283   2.967  52.674  1.00  0.00    -0.031 C 
HETATM   28  C7  UNL     1      15.347   3.982  52.857  1.00  0.00     0.036 C 
ENDBRANCH  25  26
ENDBRANCH  24  25
ENDBRANCH  22  24
ENDBRANCH   1  22
TORSDOF 4
ENDMDL
MODEL 7
REMARK VINA RESULT:      -7.4      2.443      3.998
REMARK  4 active torsions:
REMARK  status: ('A' for Active; 'I' for Inactive)
REMARK    1  A    between atoms: C2_2  and  C3_3 
REMARK    2  A    between atoms: C2_2  and  C8_8 
REMARK    3  A    between atoms: C3_3  and  C4_4 
REMARK    4  A    between atoms: C4_4  and  C5_5 
REMARK       I    between atoms: C8_8  and  N1_10 
ROOT
HETATM    1  C8  UNL     1      23.554   3.997  49.356  1.00  0.00     0.361 C 
HETATM    2  O1  UNL     1      23.638   2.832  48.884  1.00  0.00    -0.259 OA
HETATM    3  N1  UNL     1      24.020   4.380  50.714  1.00  0.00     0.094 N 
HETATM    4  C9  UNL     1      24.548   3.186  51.301  1.00  0.00     0.261 A 
HETATM    5  N2  UNL     1      25.878   3.195  50.980  1.00  0.00    -0.233 NA
HETATM    6  C10 UNL     1      26.736   2.221  51.335  1.00  0.00     0.151 A 
HETATM    7  C11 UNL     1      26.229   1.150  52.065  1.00  0.00     0.090 A 
HETATM    8  N3  UNL     1      27.124   0.211  52.381  1.00  0.00    -0.240 NA
HETATM    9  C12 UNL     1      26.756  -0.867  53.072  1.00  0.00     0.236 A 
HETATM   10  N4  UNL     1      25.464  -0.957  53.424  1.00  0.00    -0.224 NA
HETATM   11  C13 UNL     1      24.542  -0.051  53.134  1.00  0.00     0.142 A 
HETATM   12  C14 UNL     1      24.892   1.100  52.408  1.00  0.00     0.056 A 
HETATM   13  C15 UNL     1      24.064   2.129  52.018  1.00  0.00     0.054 A 
HETATM   14  C16 UNL     1      22.679   2.543  52.142  1.00  0.00     0.043 C 
HETATM   15 BR1  UNL     1      22.206   4.326  51.876  1.00  0.00     0.120 Br
HETATM   16  C17 UNL     1      21.560   1.914  52.458  1.00  0.00     0.022 C 
HETATM   17  C18 UNL     1      21.264   0.509  52.820  1.00  0.00     0.018 C 
HETATM   18  C19 UNL     1      21.964  -0.523  53.321  1.00  0.00     0.090 C 
HETATM   19  N5  UNL     1      23.354  -0.638  53.712  1.00  0.00    -0.350 N 
HETATM   20  H10 UNL     1      23.926   5.406  50.958  1.00  0.00     0.314 HD
HETATM   21  H16 UNL     1      23.482  -1.253  54.541  1.00  0.00     0.166 HD
ENDROOT
BRANCH   1  22
HETATM   22  C2  UNL     1      22.952   4.961  48.444  1.00  0.00     0.006 C 
HETATM   23  C1  UNL     1      24.100   5.649  48.567  1.00  0.00     0.045 C 
BRANCH  22  24
HETATM   24  C3  UNL     1      22.181   5.784  47.541  1.00  0.00     0.054 C 
BRANCH  24  25
HETATM   25  C4  UNL     1      22.350   6.360  46.377  1.00  0.00    -0.017 C 
BRANCH  25  26
HETATM   26  C5  UNL     1      22.594   6.613  44.939  1.00  0.00    -0.008 C 
HETATM   27  C6  UNL     1      23.544   7.439  44.565  1.00  0.00    -0.031 C 
HETATM   28  C7  UNL     1      24.320   8.067  45.660  1.00  0.00     0.036 C 
ENDBRANCH  25  26
ENDBRANCH  24  25
ENDBRANCH  22  24
ENDBRANCH   1  22
TORSDOF 4
ENDMDL
MODEL 8
REMARK VINA RESULT:      -7.3      3.271      7.442
REMARK  4 active torsions:
REMARK  status: ('A' for Active; 'I' for Inactive)
REMARK    1  A    between atoms: C2_2  and  C3_3 
REMARK    2  A    between atoms: C2_2  and  C8_8 
REMARK    3  A    between atoms: C3_3  and  C4_4 
REMARK    4  A    between atoms: C4_4  and  C5_5 
REMARK       I    between atoms: C8_8  and  N1_10 
ROOT
HETATM    1  C8  UNL     1      21.439   3.029  50.871  1.00  0.00     0.361 C 
HETATM    2  O1  UNL     1      21.528   3.374  49.663  1.00  0.00    -0.259 OA
HETATM    3  N1  UNL     1      22.119   3.733  51.989  1.00  0.00     0.094 N 
HETATM    4  C9  UNL     1      22.841   4.816  51.392  1.00  0.00     0.261 A 
HETATM    5  N2  UNL     1      21.974   5.874  51.423  1.00  0.00    -0.233 NA
HETATM    6  C10 UNL     1      22.268   7.092  50.931  1.00  0.00     0.151 A 
HETATM    7  C11 UNL     1      23.526   7.270  50.362  1.00  0.00     0.090 A 
HETATM    8  N3  UNL     1      23.759   8.495  49.885  1.00  0.00    -0.240 NA
HETATM    9  C12 UNL     1      24.925   8.785  49.309  1.00  0.00     0.236 A 
HETATM   10  N4  UNL     1      25.833   7.800  49.236  1.00  0.00    -0.224 NA
HETATM   11  C13 UNL     1      25.647   6.572  49.695  1.00  0.00     0.142 A 
HETATM   12  C14 UNL     1      24.430   6.228  50.310  1.00  0.00     0.056 A 
HETATM   13  C15 UNL     1      24.071   5.006  50.832  1.00  0.00     0.054 A 
HETATM   14  C16 UNL     1      24.631   3.683  51.040  1.00  0.00     0.043 C 
HETATM   15 BR1  UNL     1      23.884   2.537  52.306  1.00  0.00     0.120 Br
HETATM   16  C17 UNL     1      25.660   3.032  50.525  1.00  0.00     0.022 C 
HETATM   17  C18 UNL     1      26.676   3.399  49.511  1.00  0.00     0.018 C 
HETATM   18  C19 UNL     1      27.182   4.546  49.027  1.00  0.00     0.090 C 
HETATM   19  N5  UNL     1      26.895   5.930  49.346  1.00  0.00    -0.350 N 
HETATM   20  H10 UNL     1      21.916   3.357  52.959  1.00  0.00     0.314 HD
HETATM   21  H16 UNL     1      27.742   6.530  49.302  1.00  0.00     0.166 HD
ENDROOT
BRANCH   1  22
HETATM   22  C2  UNL     1      20.596   1.860  51.091  1.00  0.00     0.006 C 
HETATM   23  C1  UNL     1      19.577   2.641  50.694  1.00  0.00     0.045 C 
BRANCH  22  24
HETATM   24  C3  UNL     1      19.946   0.601  51.370  1.00  0.00     0.054 C 
BRANCH  24  25
HETATM   25  C4  UNL     1      19.675  -0.133  52.420  1.00  0.00    -0.017 C 
BRANCH  25  26
HETATM   26  C5  UNL     1      19.782  -0.929  53.665  1.00  0.00    -0.008 C 
HETATM   27  C6  UNL     1      20.961  -1.259  54.138  1.00  0.00    -0.031 C 
HETATM   28  C7  UNL     1      22.126  -0.788  53.353  1.00  0.00     0.036 C 
ENDBRANCH  25  26
ENDBRANCH  24  25
ENDBRANCH  22  24
ENDBRANCH   1  22
TORSDOF 4
ENDMDL
MODEL 9
REMARK VINA RESULT:      -7.2      6.379     10.896
REMARK  4 active torsions:
REMARK  status: ('A' for Active; 'I' for Inactive)
REMARK    1  A    between atoms: C2_2  and  C3_3 
REMARK    2  A    between atoms: C2_2  and  C8_8 
REMARK    3  A    between atoms: C3_3  and  C4_4 
REMARK    4  A    between atoms: C4_4  and  C5_5 
REMARK       I    between atoms: C8_8  and  N1_10 
ROOT
HETATM    1  C8  UNL     1      28.925   6.304  48.264  1.00  0.00     0.361 C 
HETATM    2  O1  UNL     1      28.609   7.001  47.264  1.00  0.00    -0.259 OA
HETATM    3  N1  UNL     1      30.164   6.505  49.059  1.00  0.00     0.094 N 
HETATM    4  C9  UNL     1      30.850   7.604  48.450  1.00  0.00     0.261 A 
HETATM    5  N2  UNL     1      30.397   8.711  49.114  1.00  0.00    -0.233 NA
HETATM    6  C10 UNL     1      30.789   9.965  48.825  1.00  0.00     0.151 A 
HETATM    7  C11 UNL     1      31.706  10.131  47.789  1.00  0.00     0.090 A 
HETATM    8  N3  UNL     1      32.052  11.396  47.542  1.00  0.00    -0.240 NA
HETATM    9  C12 UNL     1      32.916  11.682  46.569  1.00  0.00     0.236 A 
HETATM   10  N4  UNL     1      33.407  10.651  45.865  1.00  0.00    -0.224 NA
HETATM   11  C13 UNL     1      33.093   9.382  46.074  1.00  0.00     0.142 A 
HETATM   12  C14 UNL     1      32.187   9.040  47.093  1.00  0.00     0.056 A 
HETATM   13  C15 UNL     1      31.749   7.781  47.438  1.00  0.00     0.054 A 
HETATM   14  C16 UNL     1      31.957   6.396  47.062  1.00  0.00     0.043 C 
HETATM   15 BR1  UNL     1      31.503   5.025  48.243  1.00  0.00     0.120 Br
HETATM   16  C17 UNL     1      32.468   5.801  45.997  1.00  0.00     0.022 C 
HETATM   17  C18 UNL     1      33.044   6.321  44.736  1.00  0.00     0.018 C 
HETATM   18  C19 UNL     1      33.605   7.476  44.339  1.00  0.00     0.090 C 
HETATM   19  N5  UNL     1      33.864   8.710  45.051  1.00  0.00    -0.350 N 
HETATM   20  H10 UNL     1      30.277   5.871  49.901  1.00  0.00     0.314 HD
HETATM   21  H16 UNL     1      34.750   9.163  44.750  1.00  0.00     0.166 HD
ENDROOT
BRANCH   1  22
HETATM   22  C2  UNL     1      27.959   5.263  48.588  1.00  0.00     0.006 C 
HETATM   23  C1  UNL     1      27.031   6.232  48.500  1.00  0.00     0.045 C 
BRANCH  22  24
HETATM   24  C3  UNL     1      27.173   4.096  48.917  1.00  0.00     0.054 C 
BRANCH  24  25
HETATM   25  C4  UNL     1      26.251   3.767  49.787  1.00  0.00    -0.017 C 
BRANCH  25  26
HETATM   26  C5  UNL     1      25.096   3.135  50.464  1.00  0.00    -0.008 C 
HETATM   27  C6  UNL     1      25.290   2.208  51.373  1.00  0.00    -0.031 C 
HETATM   28  C7  UNL     1      26.703   1.864  51.652  1.00  0.00     0.036 C 
ENDBRANCH  25  26
ENDBRANCH  24  25
ENDBRANCH  22  24
ENDBRANCH   1  22
TORSDOF 4
ENDMDL
