MODEL 1
REMARK VINA RESULT:      -8.3      0.000      0.000
REMARK  2 active torsions:
REMARK  status: ('A' for Active; 'I' for Inactive)
REMARK    1  A    between atoms: O1_2  and  C2_3 
REMARK    2  A    between atoms: C9_12  and  O2_13 
ROOT
HETATM    1  C2  UNL     1      24.494   4.540  50.542  1.00  0.00     0.102 C 
HETATM    2  C3  UNL     1      25.702   4.038  50.109  1.00  0.00     0.059 C 
HETATM    3  C4  UNL     1      26.546   2.979  50.007  1.00  0.00     0.121 C 
HETATM    4  N1  UNL     1      26.687   2.585  51.289  1.00  0.00    -0.254 NA
HETATM    5  C5  UNL     1      26.009   1.460  51.668  1.00  0.00     0.234 C 
HETATM    6  N2  UNL     1      24.763   1.901  51.678  1.00  0.00    -0.224 NA
HETATM    7  C6  UNL     1      23.761   1.430  52.455  1.00  0.00     0.132 C 
HETATM    8  C7  UNL     1      22.813   2.474  52.234  1.00  0.00     0.004 C 
HETATM    9  C8  UNL     1      23.019   3.816  52.355  1.00  0.00     0.051 C 
HETATM   10  C9  UNL     1      23.788   4.737  51.699  1.00  0.00     0.099 C 
HETATM   11  C10 UNL     1      21.700   1.546  51.879  1.00  0.00     0.017 A 
HETATM   12  C11 UNL     1      22.159   1.349  50.603  1.00  0.00    -0.030 A 
HETATM   13  C12 UNL     1      21.697   0.228  51.238  1.00  0.00     0.036 A 
HETATM   14  C13 UNL     1      21.221   0.351  52.519  1.00  0.00    -0.001 A 
HETATM   15  C14 UNL     1      20.790   0.677  53.775  1.00  0.00    -0.034 A 
HETATM   16  C15 UNL     1      21.259   1.803  53.145  1.00  0.00     0.035 A 
HETATM   17  C16 UNL     1      21.863  -0.948  52.955  1.00  0.00     0.024 A 
HETATM   18  C17 UNL     1      22.135  -1.569  54.208  1.00  0.00     0.033 A 
HETATM   19  C18 UNL     1      22.935  -0.406  54.027  1.00  0.00     0.088 A 
HETATM   20  N3  UNL     1      23.889   0.160  53.163  1.00  0.00    -0.369 N 
HETATM   21  H17 UNL     1      24.789  -0.308  52.961  1.00  0.00     0.161 HD
ENDROOT
BRANCH   1  22
HETATM   22  O1  UNL     1      23.558   5.061  49.628  1.00  0.00    -0.353 OA
HETATM   23  C1  UNL     1      23.106   4.287  48.532  1.00  0.00     0.210 C 
ENDBRANCH   1  22
BRANCH  10  24
HETATM   24  O2  UNL     1      23.839   5.988  52.296  1.00  0.00    -0.358 OA
HETATM   25  H8  UNL     1      23.472   6.794  51.839  1.00  0.00     0.217 HD
ENDBRANCH  10  24
TORSDOF 2
ENDMDL
MODEL 2
REMARK VINA RESULT:      -8.0      2.216      3.909
REMARK  2 active torsions:
REMARK  status: ('A' for Active; 'I' for Inactive)
REMARK    1  A    between atoms: O1_2  and  C2_3 
REMARK    2  A    between atoms: C9_12  and  O2_13 
ROOT
HETATM    1  C2  UNL     1      23.327   3.886  51.443  1.00  0.00     0.102 C 
HETATM    2  C3  UNL     1      23.785   4.155  50.172  1.00  0.00     0.059 C 
HETATM    3  C4  UNL     1      24.728   3.957  49.215  1.00  0.00     0.121 C 
HETATM    4  N1  UNL     1      25.871   4.296  49.845  1.00  0.00    -0.254 NA
HETATM    5  C5  UNL     1      26.680   3.272  50.250  1.00  0.00     0.234 C 
HETATM    6  N2  UNL     1      25.982   2.770  51.253  1.00  0.00    -0.224 NA
HETATM    7  C6  UNL     1      26.488   2.127  52.330  1.00  0.00     0.132 C 
HETATM    8  C7  UNL     1      25.315   2.122  53.144  1.00  0.00     0.004 C 
HETATM    9  C8  UNL     1      24.523   3.186  53.459  1.00  0.00     0.051 C 
HETATM   10  C9  UNL     1      23.708   4.024  52.752  1.00  0.00     0.099 C 
HETATM   11  C10 UNL     1      25.378   0.658  53.426  1.00  0.00     0.017 A 
HETATM   12  C11 UNL     1      24.843   0.315  52.213  1.00  0.00    -0.030 A 
HETATM   13  C12 UNL     1      25.884  -0.466  52.634  1.00  0.00     0.036 A 
HETATM   14  C13 UNL     1      26.468  -0.181  53.843  1.00  0.00    -0.001 A 
HETATM   15  C14 UNL     1      26.910   0.256  55.060  1.00  0.00    -0.034 A 
HETATM   16  C15 UNL     1      25.871   1.048  54.638  1.00  0.00     0.035 A 
HETATM   17  C16 UNL     1      27.859  -0.454  53.312  1.00  0.00     0.024 A 
HETATM   18  C17 UNL     1      29.183  -0.192  53.767  1.00  0.00     0.033 A 
HETATM   19  C18 UNL     1      28.512   1.013  53.419  1.00  0.00     0.088 A 
HETATM   20  N3  UNL     1      27.868   1.653  52.345  1.00  0.00    -0.369 N 
HETATM   21  H17 UNL     1      28.353   1.840  51.450  1.00  0.00     0.161 HD
ENDROOT
BRANCH   1  22
HETATM   22  O1  UNL     1      22.078   3.269  51.646  1.00  0.00    -0.353 OA
HETATM   23  C1  UNL     1      21.763   2.043  51.011  1.00  0.00     0.210 C 
ENDBRANCH   1  22
BRANCH  10  24
HETATM   24  O2  UNL     1      23.235   5.117  53.463  1.00  0.00    -0.358 OA
HETATM   25  H8  UNL     1      23.612   6.030  53.319  1.00  0.00     0.217 HD
ENDBRANCH  10  24
TORSDOF 2
ENDMDL
MODEL 3
REMARK VINA RESULT:      -7.9      2.339      4.951
REMARK  2 active torsions:
REMARK  status: ('A' for Active; 'I' for Inactive)
REMARK    1  A    between atoms: O1_2  and  C2_3 
REMARK    2  A    between atoms: C9_12  and  O2_13 
ROOT
HETATM    1  C2  UNL     1      20.981   1.699  52.188  1.00  0.00     0.102 C 
HETATM    2  C3  UNL     1      20.387   1.047  53.248  1.00  0.00     0.059 C 
HETATM    3  C4  UNL     1      20.528   0.306  54.377  1.00  0.00     0.121 C 
HETATM    4  N1  UNL     1      21.246  -0.753  53.952  1.00  0.00    -0.254 NA
HETATM    5  C5  UNL     1      22.571  -0.775  54.285  1.00  0.00     0.234 C 
HETATM    6  N2  UNL     1      23.050   0.179  53.507  1.00  0.00    -0.224 NA
HETATM    7  C6  UNL     1      24.309   0.247  53.017  1.00  0.00     0.132 C 
HETATM    8  C7  UNL     1      24.105   1.278  52.051  1.00  0.00     0.004 C 
HETATM    9  C8  UNL     1      23.138   1.334  51.093  1.00  0.00     0.051 C 
HETATM   10  C9  UNL     1      21.775   1.439  51.103  1.00  0.00     0.099 C 
HETATM   11  C10 UNL     1      25.256   2.104  52.520  1.00  0.00     0.017 A 
HETATM   12  C11 UNL     1      24.565   2.617  53.585  1.00  0.00    -0.030 A 
HETATM   13  C12 UNL     1      25.863   2.269  53.843  1.00  0.00     0.036 A 
HETATM   14  C13 UNL     1      26.617   1.749  52.821  1.00  0.00    -0.001 A 
HETATM   15  C14 UNL     1      27.198   1.257  51.686  1.00  0.00    -0.034 A 
HETATM   16  C15 UNL     1      25.894   1.598  51.423  1.00  0.00     0.035 A 
HETATM   17  C16 UNL     1      27.270   0.730  53.731  1.00  0.00     0.024 A 
HETATM   18  C17 UNL     1      28.045  -0.449  53.533  1.00  0.00     0.033 A 
HETATM   19  C18 UNL     1      26.703  -0.639  53.099  1.00  0.00     0.088 A 
HETATM   20  N3  UNL     1      25.374  -0.593  53.555  1.00  0.00    -0.369 N 
HETATM   21  H17 UNL     1      25.045  -1.182  54.341  1.00  0.00     0.161 HD
ENDROOT
BRANCH   1  22
HETATM   22  O1  UNL     1      20.823   3.087  52.013  1.00  0.00    -0.353 OA
HETATM   23  C1  UNL     1      19.558   3.639  51.696  1.00  0.00     0.210 C 
ENDBRANCH   1  22
BRANCH  10  24
HETATM   24  O2  UNL     1      21.165   1.257  49.870  1.00  0.00    -0.358 OA
HETATM   25  H8  UNL     1      20.383   1.809  49.593  1.00  0.00     0.217 HD
ENDBRANCH  10  24
TORSDOF 2
ENDMDL
MODEL 4
REMARK VINA RESULT:      -7.4      2.114      4.240
REMARK  2 active torsions:
REMARK  status: ('A' for Active; 'I' for Inactive)
REMARK    1  A    between atoms: O1_2  and  C2_3 
REMARK    2  A    between atoms: C9_12  and  O2_13 
ROOT
HETATM    1  C2  UNL     1      21.295   3.713  50.216  1.00  0.00     0.102 C 
HETATM    2  C3  UNL     1      20.161   3.401  50.933  1.00  0.00     0.059 C 
HETATM    3  C4  UNL     1      19.599   2.752  51.985  1.00  0.00     0.121 C 
HETATM    4  N1  UNL     1      19.996   1.477  51.797  1.00  0.00    -0.254 NA
HETATM    5  C5  UNL     1      21.002   1.017  52.601  1.00  0.00     0.234 C 
HETATM    6  N2  UNL     1      22.041   1.676  52.119  1.00  0.00    -0.224 NA
HETATM    7  C6  UNL     1      23.326   1.257  52.142  1.00  0.00     0.132 C 
HETATM    8  C7  UNL     1      23.877   2.212  51.235  1.00  0.00     0.004 C 
HETATM    9  C8  UNL     1      23.422   2.526  49.989  1.00  0.00     0.051 C 
HETATM   10  C9  UNL     1      22.287   3.104  49.493  1.00  0.00     0.099 C 
HETATM   11  C10 UNL     1      24.984   2.615  52.150  1.00  0.00     0.017 A 
HETATM   12  C11 UNL     1      24.178   3.423  52.908  1.00  0.00    -0.030 A 
HETATM   13  C12 UNL     1      25.071   2.663  53.612  1.00  0.00     0.036 A 
HETATM   14  C13 UNL     1      25.912   1.830  52.918  1.00  0.00    -0.001 A 
HETATM   15  C14 UNL     1      26.657   1.075  52.056  1.00  0.00    -0.034 A 
HETATM   16  C15 UNL     1      25.758   1.830  51.344  1.00  0.00     0.035 A 
HETATM   17  C16 UNL     1      25.773   0.724  53.942  1.00  0.00     0.024 A 
HETATM   18  C17 UNL     1      26.092  -0.664  53.978  1.00  0.00     0.033 A 
HETATM   19  C18 UNL     1      25.035  -0.404  53.062  1.00  0.00     0.088 A 
HETATM   20  N3  UNL     1      23.741   0.142  52.987  1.00  0.00    -0.369 N 
HETATM   21  H17 UNL     1      22.958  -0.227  53.555  1.00  0.00     0.161 HD
ENDROOT
BRANCH   1  22
HETATM   22  O1  UNL     1      21.719   5.049  50.079  1.00  0.00    -0.353 OA
HETATM   23  C1  UNL     1      21.883   5.878  51.215  1.00  0.00     0.210 C 
ENDBRANCH   1  22
BRANCH  10  24
HETATM   24  O2  UNL     1      22.157   3.048  48.113  1.00  0.00    -0.358 OA
HETATM   25  H8  UNL     1      21.307   3.310  47.663  1.00  0.00     0.217 HD
ENDBRANCH  10  24
TORSDOF 2
ENDMDL
MODEL 5
REMARK VINA RESULT:      -7.3      3.953      5.993
REMARK  2 active torsions:
REMARK  status: ('A' for Active; 'I' for Inactive)
REMARK    1  A    between atoms: O1_2  and  C2_3 
REMARK    2  A    between atoms: C9_12  and  O2_13 
ROOT
HETATM    1  C2  UNL     1      27.655   9.075  48.893  1.00  0.00     0.102 C 
HETATM    2  C3  UNL     1      28.632   8.533  48.086  1.00  0.00     0.059 C 
HETATM    3  C4  UNL     1      29.100   7.461  47.396  1.00  0.00     0.121 C 
HETATM    4  N1  UNL     1      29.152   6.498  48.338  1.00  0.00    -0.254 NA
HETATM    5  C5  UNL     1      28.169   5.548  48.306  1.00  0.00     0.234 C 
HETATM    6  N2  UNL     1      27.124   6.243  48.719  1.00  0.00    -0.224 NA
HETATM    7  C6  UNL     1      26.051   5.749  49.377  1.00  0.00     0.132 C 
HETATM    8  C7  UNL     1      25.470   6.984  49.793  1.00  0.00     0.004 C 
HETATM    9  C8  UNL     1      26.088   8.011  50.442  1.00  0.00     0.051 C 
HETATM   10  C9  UNL     1      27.084   8.892  50.125  1.00  0.00     0.099 C 
HETATM   11  C10 UNL     1      24.112   6.655  49.270  1.00  0.00     0.017 A 
HETATM   12  C11 UNL     1      24.444   6.956  47.976  1.00  0.00    -0.030 A 
HETATM   13  C12 UNL     1      23.677   5.835  48.136  1.00  0.00     0.036 A 
HETATM   14  C13 UNL     1      23.305   5.472  49.406  1.00  0.00    -0.001 A 
HETATM   15  C14 UNL     1      23.038   5.281  50.732  1.00  0.00    -0.034 A 
HETATM   16  C15 UNL     1      23.814   6.403  50.578  1.00  0.00     0.035 A 
HETATM   17  C16 UNL     1      23.523   4.001  49.123  1.00  0.00     0.024 A 
HETATM   18  C17 UNL     1      23.629   2.825  49.919  1.00  0.00     0.033 A 
HETATM   19  C18 UNL     1      24.745   3.684  50.122  1.00  0.00     0.088 A 
HETATM   20  N3  UNL     1      25.800   4.313  49.436  1.00  0.00    -0.369 N 
HETATM   21  H17 UNL     1      26.502   3.772  48.901  1.00  0.00     0.161 HD
ENDROOT
BRANCH   1  22
HETATM   22  O1  UNL     1      26.900  10.185  48.468  1.00  0.00    -0.353 OA
HETATM   23  C1  UNL     1      26.232  10.172  47.219  1.00  0.00     0.210 C 
ENDBRANCH   1  22
BRANCH  10  24
HETATM   24  O2  UNL     1      27.542   9.663  51.184  1.00  0.00    -0.358 OA
HETATM   25  H8  UNL     1      28.470  10.027  51.195  1.00  0.00     0.217 HD
ENDBRANCH  10  24
TORSDOF 2
ENDMDL
MODEL 6
REMARK VINA RESULT:      -7.3      2.119      3.822
REMARK  2 active torsions:
REMARK  status: ('A' for Active; 'I' for Inactive)
REMARK    1  A    between atoms: O1_2  and  C2_3 
REMARK    2  A    between atoms: C9_12  and  O2_13 
ROOT
HETATM    1  C2  UNL     1      21.032   4.907  50.491  1.00  0.00     0.102 C 
HETATM    2  C3  UNL     1      20.940   4.572  49.158  1.00  0.00     0.059 C 
HETATM    3  C4  UNL     1      21.400   3.833  48.115  1.00  0.00     0.121 C 
HETATM    4  N1  UNL     1      22.713   4.140  48.088  1.00  0.00    -0.254 NA
HETATM    5  C5  UNL     1      23.577   3.202  48.578  1.00  0.00     0.234 C 
HETATM    6  N2  UNL     1      23.332   3.276  49.874  1.00  0.00    -0.224 NA
HETATM    7  C6  UNL     1      24.209   3.000  50.866  1.00  0.00     0.132 C 
HETATM    8  C7  UNL     1      23.473   3.549  51.959  1.00  0.00     0.004 C 
HETATM    9  C8  UNL     1      22.921   4.792  52.042  1.00  0.00     0.051 C 
HETATM   10  C9  UNL     1      21.920   5.449  51.383  1.00  0.00     0.099 C 
HETATM   11  C10 UNL     1      23.589   2.324  52.802  1.00  0.00     0.017 A 
HETATM   12  C11 UNL     1      22.592   1.665  52.133  1.00  0.00    -0.030 A 
HETATM   13  C12 UNL     1      23.683   0.904  52.451  1.00  0.00     0.036 A 
HETATM   14  C13 UNL     1      24.722   1.498  53.124  1.00  0.00    -0.001 A 
HETATM   15  C14 UNL     1      25.639   2.262  53.789  1.00  0.00    -0.034 A 
HETATM   16  C15 UNL     1      24.549   3.032  53.465  1.00  0.00     0.035 A 
HETATM   17  C16 UNL     1      25.762   0.760  52.308  1.00  0.00     0.024 A 
HETATM   18  C17 UNL     1      27.165   0.894  52.104  1.00  0.00     0.033 A 
HETATM   19  C18 UNL     1      26.457   1.988  51.533  1.00  0.00     0.088 A 
HETATM   20  N3  UNL     1      25.455   2.291  50.594  1.00  0.00    -0.369 N 
HETATM   21  H17 UNL     1      25.538   2.019  49.599  1.00  0.00     0.161 HD
ENDROOT
BRANCH   1  22
HETATM   22  O1  UNL     1      19.952   4.688  51.368  1.00  0.00    -0.353 OA
HETATM   23  C1  UNL     1      19.416   3.390  51.549  1.00  0.00     0.210 C 
ENDBRANCH   1  22
BRANCH  10  24
HETATM   24  O2  UNL     1      21.822   6.803  51.668  1.00  0.00    -0.358 OA
HETATM   25  H8  UNL     1      22.195   7.183  52.512  1.00  0.00     0.217 HD
ENDBRANCH  10  24
TORSDOF 2
ENDMDL
MODEL 7
REMARK VINA RESULT:      -7.3      2.238      6.060
REMARK  2 active torsions:
REMARK  status: ('A' for Active; 'I' for Inactive)
REMARK    1  A    between atoms: O1_2  and  C2_3 
REMARK    2  A    between atoms: C9_12  and  O2_13 
ROOT
HETATM    1  C2  UNL     1      22.937   1.926  51.226  1.00  0.00     0.102 C 
HETATM    2  C3  UNL     1      23.830   1.346  52.101  1.00  0.00     0.059 C 
HETATM    3  C4  UNL     1      25.059   1.359  52.679  1.00  0.00     0.121 C 
HETATM    4  N1  UNL     1      25.889   1.355  51.616  1.00  0.00    -0.254 NA
HETATM    5  C5  UNL     1      26.496   2.539  51.302  1.00  0.00     0.234 C 
HETATM    6  N2  UNL     1      25.479   3.232  50.821  1.00  0.00    -0.224 NA
HETATM    7  C6  UNL     1      25.555   4.219  49.899  1.00  0.00     0.132 C 
HETATM    8  C7  UNL     1      24.165   4.330  49.593  1.00  0.00     0.004 C 
HETATM    9  C8  UNL     1      23.310   3.324  49.254  1.00  0.00     0.051 C 
HETATM   10  C9  UNL     1      22.809   2.227  49.896  1.00  0.00     0.099 C 
HETATM   11  C10 UNL     1      24.123   5.809  49.787  1.00  0.00     0.017 A 
HETATM   12  C11 UNL     1      24.073   5.714  51.153  1.00  0.00    -0.030 A 
HETATM   13  C12 UNL     1      24.887   6.699  50.666  1.00  0.00     0.036 A 
HETATM   14  C13 UNL     1      24.986   6.853  49.305  1.00  0.00    -0.001 A 
HETATM   15  C14 UNL     1      24.948   6.850  47.939  1.00  0.00    -0.034 A 
HETATM   16  C15 UNL     1      24.135   5.855  48.423  1.00  0.00     0.035 A 
HETATM   17  C16 UNL     1      26.476   7.114  49.374  1.00  0.00     0.024 A 
HETATM   18  C17 UNL     1      27.538   7.152  48.427  1.00  0.00     0.033 A 
HETATM   19  C18 UNL     1      27.040   5.829  48.586  1.00  0.00     0.088 A 
HETATM   20  N3  UNL     1      26.834   4.831  49.554  1.00  0.00    -0.369 N 
HETATM   21  H17 UNL     1      27.614   4.444  50.114  1.00  0.00     0.161 HD
ENDROOT
BRANCH   1  22
HETATM   22  O1  UNL     1      21.702   2.428  51.680  1.00  0.00    -0.353 OA
HETATM   23  C1  UNL     1      20.944   1.723  52.647  1.00  0.00     0.210 C 
ENDBRANCH   1  22
BRANCH  10  24
HETATM   24  O2  UNL     1      22.106   1.346  49.087  1.00  0.00    -0.358 OA
HETATM   25  H8  UNL     1      21.818   1.605  48.168  1.00  0.00     0.217 HD
ENDBRANCH  10  24
TORSDOF 2
ENDMDL
MODEL 8
REMARK VINA RESULT:      -7.1      2.450      4.036
REMARK  2 active torsions:
REMARK  status: ('A' for Active; 'I' for Inactive)
REMARK    1  A    between atoms: O1_2  and  C2_3 
REMARK    2  A    between atoms: C9_12  and  O2_13 
ROOT
HETATM    1  C2  UNL     1      25.560   6.196  48.982  1.00  0.00     0.102 C 
HETATM    2  C3  UNL     1      24.555   6.775  48.238  1.00  0.00     0.059 C 
HETATM    3  C4  UNL     1      23.248   6.787  47.867  1.00  0.00     0.121 C 
HETATM    4  N1  UNL     1      23.059   5.536  47.400  1.00  0.00    -0.254 NA
HETATM    5  C5  UNL     1      22.378   4.671  48.210  1.00  0.00     0.234 C 
HETATM    6  N2  UNL     1      23.269   4.449  49.160  1.00  0.00    -0.224 NA
HETATM    7  C6  UNL     1      23.374   3.325  49.903  1.00  0.00     0.132 C 
HETATM    8  C7  UNL     1      24.653   3.575  50.487  1.00  0.00     0.004 C 
HETATM    9  C8  UNL     1      25.803   3.919  49.841  1.00  0.00     0.051 C 
HETATM   10  C9  UNL     1      26.216   5.001  49.117  1.00  0.00     0.099 C 
HETATM   11  C10 UNL     1      24.193   3.321  51.883  1.00  0.00     0.017 A 
HETATM   12  C11 UNL     1      23.613   4.555  52.008  1.00  0.00    -0.030 A 
HETATM   13  C12 UNL     1      22.895   3.516  52.533  1.00  0.00     0.036 A 
HETATM   14  C13 UNL     1      23.416   2.250  52.445  1.00  0.00    -0.001 A 
HETATM   15  C14 UNL     1      24.097   1.079  52.263  1.00  0.00    -0.034 A 
HETATM   16  C15 UNL     1      24.819   2.117  51.728  1.00  0.00     0.035 A 
HETATM   17  C16 UNL     1      22.065   1.642  52.131  1.00  0.00     0.024 A 
HETATM   18  C17 UNL     1      21.615   0.388  51.630  1.00  0.00     0.033 A 
HETATM   19  C18 UNL     1      22.317   1.116  50.631  1.00  0.00     0.088 A 
HETATM   20  N3  UNL     1      22.301   2.336  49.931  1.00  0.00    -0.369 N 
HETATM   21  H17 UNL     1      21.488   2.630  49.362  1.00  0.00     0.161 HD
ENDROOT
BRANCH   1  22
HETATM   22  O1  UNL     1      26.241   6.930  49.971  1.00  0.00    -0.353 OA
HETATM   23  C1  UNL     1      26.668   8.258  49.725  1.00  0.00     0.210 C 
ENDBRANCH   1  22
BRANCH  10  24
HETATM   24  O2  UNL     1      27.428   4.839  48.462  1.00  0.00    -0.358 OA
HETATM   25  H8  UNL     1      28.166   4.301  48.864  1.00  0.00     0.217 HD
ENDBRANCH  10  24
TORSDOF 2
ENDMDL
MODEL 9
REMARK VINA RESULT:      -7.1      1.622      2.190
REMARK  2 active torsions:
REMARK  status: ('A' for Active; 'I' for Inactive)
REMARK    1  A    between atoms: O1_2  and  C2_3 
REMARK    2  A    between atoms: C9_12  and  O2_13 
ROOT
HETATM    1  C2  UNL     1      24.980   3.411  51.426  1.00  0.00     0.102 C 
HETATM    2  C3  UNL     1      25.902   2.429  51.715  1.00  0.00     0.059 C 
HETATM    3  C4  UNL     1      26.151   1.138  52.054  1.00  0.00     0.121 C 
HETATM    4  N1  UNL     1      25.427   0.979  53.180  1.00  0.00    -0.254 NA
HETATM    5  C5  UNL     1      24.259   0.277  53.070  1.00  0.00     0.234 C 
HETATM    6  N2  UNL     1      23.503   1.133  52.406  1.00  0.00    -0.224 NA
HETATM    7  C6  UNL     1      22.155   1.223  52.475  1.00  0.00     0.132 C 
HETATM    8  C7  UNL     1      21.991   2.475  51.811  1.00  0.00     0.004 C 
HETATM    9  C8  UNL     1      22.635   3.645  52.082  1.00  0.00     0.051 C 
HETATM   10  C9  UNL     1      23.930   4.075  52.005  1.00  0.00     0.099 C 
HETATM   11  C10 UNL     1      20.963   1.966  50.858  1.00  0.00     0.017 A 
HETATM   12  C11 UNL     1      21.888   1.369  50.044  1.00  0.00    -0.030 A 
HETATM   13  C12 UNL     1      20.751   0.642  50.267  1.00  0.00     0.036 A 
HETATM   14  C13 UNL     1      19.778   1.178  51.073  1.00  0.00    -0.001 A 
HETATM   15  C14 UNL     1      18.936   1.878  51.890  1.00  0.00    -0.034 A 
HETATM   16  C15 UNL     1      20.078   2.609  51.676  1.00  0.00     0.035 A 
HETATM   17  C16 UNL     1      19.496  -0.153  51.735  1.00  0.00     0.024 A 
HETATM   18  C17 UNL     1      18.792  -0.571  52.901  1.00  0.00     0.033 A 
HETATM   19  C18 UNL     1      19.963   0.161  53.244  1.00  0.00     0.088 A 
HETATM   20  N3  UNL     1      21.360   0.159  53.080  1.00  0.00    -0.369 N 
HETATM   21  H17 UNL     1      21.946  -0.635  53.392  1.00  0.00     0.161 HD
ENDROOT
BRANCH   1  22
HETATM   22  O1  UNL     1      24.971   4.047  50.170  1.00  0.00    -0.353 OA
HETATM   23  C1  UNL     1      26.171   4.529  49.592  1.00  0.00     0.210 C 
ENDBRANCH   1  22
BRANCH  10  24
HETATM   24  O2  UNL     1      24.172   5.312  52.583  1.00  0.00    -0.358 OA
HETATM   25  H8  UNL     1      23.745   5.572  53.446  1.00  0.00     0.217 HD
ENDBRANCH  10  24
TORSDOF 2
ENDMDL
