MODEL 1
REMARK VINA RESULT:      -6.1      0.000      0.000
REMARK  7 active torsions:
REMARK  status: ('A' for Active; 'I' for Inactive)
REMARK    1  A    between atoms: C2_2  and  C3_3 
REMARK    2  A    between atoms: C2_2  and  O1_16 
REMARK    3  A    between atoms: C3_3  and  C4_4 
REMARK    4  A    between atoms: N3_8  and  C6_9 
REMARK    5  A    between atoms: O1_16  and  C12_17 
REMARK    6  A    between atoms: C12_17  and  C13_18 
REMARK    7  A    between atoms: C13_18  and  N4_19 
ROOT
HETATM    1  C4  UNL     1      23.808   1.612  51.875  1.00  0.00     0.063 A 
HETATM    2  N1  UNL     1      23.922   0.738  52.819  1.00  0.00    -0.161 NA
HETATM    3  N2  UNL     1      25.093   0.201  53.301  1.00  0.00    -0.209 N 
HETATM    4  C5  UNL     1      25.087  -0.792  54.383  1.00  0.00     0.203 C 
HETATM    5  N3  UNL     1      26.307   0.634  52.721  1.00  0.00    -0.254 N 
HETATM    6  C10 UNL     1      26.232   1.592  51.681  1.00  0.00     0.120 A 
HETATM    7  C11 UNL     1      25.058   2.060  51.274  1.00  0.00     0.048 A 
ENDROOT
BRANCH   1   8
HETATM    8  C3  UNL     1      22.466   2.115  51.448  1.00  0.00     0.124 C 
BRANCH   8   9
HETATM    9  C2  UNL     1      21.646   1.116  50.759  1.00  0.00     0.042 C 
HETATM   10  C1  UNL     1      21.606   1.158  49.432  1.00  0.00     0.046 C 
BRANCH   9  11
HETATM   11  O1  UNL     1      20.837   0.056  51.114  1.00  0.00    -0.354 OA
BRANCH  11  12
HETATM   12  C12 UNL     1      19.669   0.326  51.854  1.00  0.00     0.194 C 
BRANCH  12  13
HETATM   13  C13 UNL     1      19.565  -0.545  53.085  1.00  0.00     0.142 C 
BRANCH  13  14
HETATM   14  N4  UNL     1      20.725  -0.519  53.900  1.00  0.00    -0.419 N 
HETATM   15  C14 UNL     1      20.877   0.558  54.803  1.00  0.00     0.142 C 
HETATM   16  C15 UNL     1      21.316  -1.760  54.247  1.00  0.00     0.142 C 
ENDBRANCH  13  14
ENDBRANCH  12  13
ENDBRANCH  11  12
ENDBRANCH   9  11
ENDBRANCH   8   9
ENDBRANCH   1   8
BRANCH   5  17
HETATM   17  C6  UNL     1      27.537   0.091  53.209  1.00  0.00     0.037 A 
HETATM   18  C7  UNL     1      28.346   0.767  53.941  1.00  0.00     0.037 A 
HETATM   19  C8  UNL     1      29.309  -0.317  54.063  1.00  0.00     0.200 A 
HETATM   20  F1  UNL     1      30.547  -0.066  53.469  1.00  0.00    -0.245 F 
HETATM   21  C9  UNL     1      28.368  -1.102  53.211  1.00  0.00     0.100 A 
ENDBRANCH   5  17
TORSDOF 7
ENDMDL
MODEL 2
REMARK VINA RESULT:      -6.0      2.175      3.838
REMARK  7 active torsions:
REMARK  status: ('A' for Active; 'I' for Inactive)
REMARK    1  A    between atoms: C2_2  and  C3_3 
REMARK    2  A    between atoms: C2_2  and  O1_16 
REMARK    3  A    between atoms: C3_3  and  C4_4 
REMARK    4  A    between atoms: N3_8  and  C6_9 
REMARK    5  A    between atoms: O1_16  and  C12_17 
REMARK    6  A    between atoms: C12_17  and  C13_18 
REMARK    7  A    between atoms: C13_18  and  N4_19 
ROOT
HETATM    1  C4  UNL     1      22.024   0.593  53.455  1.00  0.00     0.063 A 
HETATM    2  N1  UNL     1      22.884   1.501  53.133  1.00  0.00    -0.161 NA
HETATM    3  N2  UNL     1      24.253   1.369  53.129  1.00  0.00    -0.209 N 
HETATM    4  C5  UNL     1      25.125   2.484  52.741  1.00  0.00     0.203 C 
HETATM    5  N3  UNL     1      24.797   0.122  53.514  1.00  0.00    -0.254 N 
HETATM    6  C10 UNL     1      23.893  -0.904  53.878  1.00  0.00     0.120 A 
HETATM    7  C11 UNL     1      22.583  -0.693  53.854  1.00  0.00     0.048 A 
ENDROOT
BRANCH   1   8
HETATM    8  C3  UNL     1      20.555   0.872  53.413  1.00  0.00     0.124 C 
BRANCH   8   9
HETATM    9  C2  UNL     1      20.180   1.956  52.504  1.00  0.00     0.042 C 
HETATM   10  C1  UNL     1      19.899   1.638  51.246  1.00  0.00     0.046 C 
BRANCH   9  11
HETATM   11  O1  UNL     1      20.018   3.325  52.578  1.00  0.00    -0.354 OA
BRANCH  11  12
HETATM   12  C12 UNL     1      20.561   4.118  51.548  1.00  0.00     0.194 C 
BRANCH  12  13
HETATM   13  C13 UNL     1      21.891   4.720  51.938  1.00  0.00     0.142 C 
BRANCH  13  14
HETATM   14  N4  UNL     1      22.814   4.804  50.866  1.00  0.00    -0.419 N 
HETATM   15  C14 UNL     1      23.961   5.612  51.040  1.00  0.00     0.142 C 
HETATM   16  C15 UNL     1      22.918   3.689  49.995  1.00  0.00     0.142 C 
ENDBRANCH  13  14
ENDBRANCH  12  13
ENDBRANCH  11  12
ENDBRANCH   9  11
ENDBRANCH   8   9
ENDBRANCH   1   8
BRANCH   5  17
HETATM   17  C6  UNL     1      26.219  -0.039  53.515  1.00  0.00     0.037 A 
HETATM   18  C7  UNL     1      26.854  -0.560  52.529  1.00  0.00     0.037 A 
HETATM   19  C8  UNL     1      28.159  -0.420  53.157  1.00  0.00     0.200 A 
HETATM   20  F1  UNL     1      28.794  -1.627  53.457  1.00  0.00    -0.245 F 
HETATM   21  C9  UNL     1      27.420   0.185  54.304  1.00  0.00     0.100 A 
ENDBRANCH   5  17
TORSDOF 7
ENDMDL
MODEL 3
REMARK VINA RESULT:      -5.9      2.197      3.818
REMARK  7 active torsions:
REMARK  status: ('A' for Active; 'I' for Inactive)
REMARK    1  A    between atoms: C2_2  and  C3_3 
REMARK    2  A    between atoms: C2_2  and  O1_16 
REMARK    3  A    between atoms: C3_3  and  C4_4 
REMARK    4  A    between atoms: N3_8  and  C6_9 
REMARK    5  A    between atoms: O1_16  and  C12_17 
REMARK    6  A    between atoms: C12_17  and  C13_18 
REMARK    7  A    between atoms: C13_18  and  N4_19 
ROOT
HETATM    1  C4  UNL     1      23.671   0.512  53.204  1.00  0.00     0.063 A 
HETATM    2  N1  UNL     1      24.543   1.214  52.561  1.00  0.00    -0.161 NA
HETATM    3  N2  UNL     1      25.910   1.072  52.615  1.00  0.00    -0.209 N 
HETATM    4  C5  UNL     1      26.798   1.940  51.831  1.00  0.00     0.203 C 
HETATM    5  N3  UNL     1      26.437   0.063  53.453  1.00  0.00    -0.254 N 
HETATM    6  C10 UNL     1      25.518  -0.733  54.180  1.00  0.00     0.120 A 
HETATM    7  C11 UNL     1      24.211  -0.529  54.070  1.00  0.00     0.048 A 
ENDROOT
BRANCH   1   8
HETATM    8  C3  UNL     1      22.206   0.773  53.051  1.00  0.00     0.124 C 
BRANCH   8   9
HETATM    9  C2  UNL     1      21.842   1.405  51.781  1.00  0.00     0.042 C 
HETATM   10  C1  UNL     1      21.420   0.620  50.797  1.00  0.00     0.046 C 
BRANCH   9  11
HETATM   11  O1  UNL     1      21.806   2.685  51.266  1.00  0.00    -0.354 OA
BRANCH  11  12
HETATM   12  C12 UNL     1      21.328   3.723  52.090  1.00  0.00     0.194 C 
BRANCH  12  13
HETATM   13  C13 UNL     1      22.402   4.741  52.397  1.00  0.00     0.142 C 
BRANCH  13  14
HETATM   14  N4  UNL     1      22.680   5.618  51.318  1.00  0.00    -0.419 N 
HETATM   15  C14 UNL     1      21.671   6.526  50.926  1.00  0.00     0.142 C 
HETATM   16  C15 UNL     1      24.030   5.999  51.108  1.00  0.00     0.142 C 
ENDBRANCH  13  14
ENDBRANCH  12  13
ENDBRANCH  11  12
ENDBRANCH   9  11
ENDBRANCH   8   9
ENDBRANCH   1   8
BRANCH   5  17
HETATM   17  C6  UNL     1      27.856  -0.105  53.522  1.00  0.00     0.037 A 
HETATM   18  C7  UNL     1      28.456  -1.121  53.016  1.00  0.00     0.037 A 
HETATM   19  C8  UNL     1      29.780  -0.674  53.421  1.00  0.00     0.200 A 
HETATM   20  F1  UNL     1      30.410  -1.494  54.359  1.00  0.00    -0.245 F 
HETATM   21  C9  UNL     1      29.082   0.506  54.009  1.00  0.00     0.100 A 
ENDBRANCH   5  17
TORSDOF 7
ENDMDL
MODEL 4
REMARK VINA RESULT:      -5.9      1.337      2.146
REMARK  7 active torsions:
REMARK  status: ('A' for Active; 'I' for Inactive)
REMARK    1  A    between atoms: C2_2  and  C3_3 
REMARK    2  A    between atoms: C2_2  and  O1_16 
REMARK    3  A    between atoms: C3_3  and  C4_4 
REMARK    4  A    between atoms: N3_8  and  C6_9 
REMARK    5  A    between atoms: O1_16  and  C12_17 
REMARK    6  A    between atoms: C12_17  and  C13_18 
REMARK    7  A    between atoms: C13_18  and  N4_19 
ROOT
HETATM    1  C4  UNL     1      23.567   1.085  52.870  1.00  0.00     0.063 A 
HETATM    2  N1  UNL     1      24.621   1.675  52.413  1.00  0.00    -0.161 NA
HETATM    3  N2  UNL     1      25.924   1.272  52.586  1.00  0.00    -0.209 N 
HETATM    4  C5  UNL     1      27.040   2.036  52.014  1.00  0.00     0.203 C 
HETATM    5  N3  UNL     1      26.159   0.096  53.335  1.00  0.00    -0.254 N 
HETATM    6  C10 UNL     1      25.033  -0.585  53.856  1.00  0.00     0.120 A 
HETATM    7  C11 UNL     1      23.805  -0.127  53.643  1.00  0.00     0.048 A 
ENDROOT
BRANCH   1   8
HETATM    8  C3  UNL     1      22.200   1.634  52.606  1.00  0.00     0.124 C 
BRANCH   8   9
HETATM    9  C2  UNL     1      21.481   0.951  51.528  1.00  0.00     0.042 C 
HETATM   10  C1  UNL     1      21.790   1.272  50.277  1.00  0.00     0.046 C 
BRANCH   9  11
HETATM   11  O1  UNL     1      20.495  -0.009  51.424  1.00  0.00    -0.354 OA
BRANCH  11  12
HETATM   12  C12 UNL     1      19.284   0.200  52.113  1.00  0.00     0.194 C 
BRANCH  12  13
HETATM   13  C13 UNL     1      19.140  -0.727  53.298  1.00  0.00     0.142 C 
BRANCH  13  14
HETATM   14  N4  UNL     1      17.856  -1.317  53.405  1.00  0.00    -0.419 N 
HETATM   15  C14 UNL     1      16.798  -0.740  52.667  1.00  0.00     0.142 C 
HETATM   16  C15 UNL     1      17.790  -2.707  53.677  1.00  0.00     0.142 C 
ENDBRANCH  13  14
ENDBRANCH  12  13
ENDBRANCH  11  12
ENDBRANCH   9  11
ENDBRANCH   8   9
ENDBRANCH   1   8
BRANCH   5  17
HETATM   17  C6  UNL     1      27.507  -0.344  53.523  1.00  0.00     0.037 A 
HETATM   18  C7  UNL     1      28.289   0.183  54.395  1.00  0.00     0.037 A 
HETATM   19  C8  UNL     1      29.412  -0.682  54.066  1.00  0.00     0.200 A 
HETATM   20  F1  UNL     1      30.516  -0.024  53.523  1.00  0.00    -0.245 F 
HETATM   21  C9  UNL     1      28.503  -1.294  53.053  1.00  0.00     0.100 A 
ENDBRANCH   5  17
TORSDOF 7
ENDMDL
MODEL 5
REMARK VINA RESULT:      -5.7      3.766      6.778
REMARK  7 active torsions:
REMARK  status: ('A' for Active; 'I' for Inactive)
REMARK    1  A    between atoms: C2_2  and  C3_3 
REMARK    2  A    between atoms: C2_2  and  O1_16 
REMARK    3  A    between atoms: C3_3  and  C4_4 
REMARK    4  A    between atoms: N3_8  and  C6_9 
REMARK    5  A    between atoms: O1_16  and  C12_17 
REMARK    6  A    between atoms: C12_17  and  C13_18 
REMARK    7  A    between atoms: C13_18  and  N4_19 
ROOT
HETATM    1  C4  UNL     1      24.031   1.022  52.460  1.00  0.00     0.063 A 
HETATM    2  N1  UNL     1      25.014   1.543  51.803  1.00  0.00    -0.161 NA
HETATM    3  N2  UNL     1      25.057   2.805  51.260  1.00  0.00    -0.209 N 
HETATM    4  C5  UNL     1      26.239   3.281  50.530  1.00  0.00     0.203 C 
HETATM    5  N3  UNL     1      23.924   3.635  51.423  1.00  0.00    -0.254 N 
HETATM    6  C10 UNL     1      22.821   3.105  52.137  1.00  0.00     0.120 A 
HETATM    7  C11 UNL     1      22.861   1.874  52.630  1.00  0.00     0.048 A 
ENDROOT
BRANCH   1   8
HETATM    8  C3  UNL     1      24.118  -0.371  53.001  1.00  0.00     0.124 C 
BRANCH   8   9
HETATM    9  C2  UNL     1      25.457  -0.753  53.453  1.00  0.00     0.042 C 
HETATM   10  C1  UNL     1      26.283  -1.286  52.560  1.00  0.00     0.046 C 
BRANCH   9  11
HETATM   11  O1  UNL     1      26.172  -0.717  54.633  1.00  0.00    -0.354 OA
BRANCH  11  12
HETATM   12  C12 UNL     1      26.881   0.459  54.948  1.00  0.00     0.194 C 
BRANCH  12  13
HETATM   13  C13 UNL     1      28.358   0.197  55.135  1.00  0.00     0.142 C 
BRANCH  13  14
HETATM   14  N4  UNL     1      29.162   0.692  54.079  1.00  0.00    -0.419 N 
HETATM   15  C14 UNL     1      30.024  -0.215  53.421  1.00  0.00     0.142 C 
HETATM   16  C15 UNL     1      28.668   1.793  53.334  1.00  0.00     0.142 C 
ENDBRANCH  13  14
ENDBRANCH  12  13
ENDBRANCH  11  12
ENDBRANCH   9  11
ENDBRANCH   8   9
ENDBRANCH   1   8
BRANCH   5  17
HETATM   17  C6  UNL     1      23.948   4.953  50.869  1.00  0.00     0.037 A 
HETATM   18  C7  UNL     1      24.069   6.005  51.596  1.00  0.00     0.037 A 
HETATM   19  C8  UNL     1      24.022   6.920  50.466  1.00  0.00     0.200 A 
HETATM   20  F1  UNL     1      22.910   7.764  50.445  1.00  0.00    -0.245 F 
HETATM   21  C9  UNL     1      23.881   5.698  49.622  1.00  0.00     0.100 A 
ENDBRANCH   5  17
TORSDOF 7
ENDMDL
MODEL 6
REMARK VINA RESULT:      -5.6      3.190      5.261
REMARK  7 active torsions:
REMARK  status: ('A' for Active; 'I' for Inactive)
REMARK    1  A    between atoms: C2_2  and  C3_3 
REMARK    2  A    between atoms: C2_2  and  O1_16 
REMARK    3  A    between atoms: C3_3  and  C4_4 
REMARK    4  A    between atoms: N3_8  and  C6_9 
REMARK    5  A    between atoms: O1_16  and  C12_17 
REMARK    6  A    between atoms: C12_17  and  C13_18 
REMARK    7  A    between atoms: C13_18  and  N4_19 
ROOT
HETATM    1  C4  UNL     1      24.371   2.229  51.280  1.00  0.00     0.063 A 
HETATM    2  N1  UNL     1      24.219   1.265  52.126  1.00  0.00    -0.161 NA
HETATM    3  N2  UNL     1      25.220   0.539  52.728  1.00  0.00    -0.209 N 
HETATM    4  C5  UNL     1      24.913  -0.540  53.676  1.00  0.00     0.203 C 
HETATM    5  N3  UNL     1      26.557   0.860  52.404  1.00  0.00    -0.254 N 
HETATM    6  C10 UNL     1      26.774   1.911  51.479  1.00  0.00     0.120 A 
HETATM    7  C11 UNL     1      25.749   2.563  50.943  1.00  0.00     0.048 A 
ENDROOT
BRANCH   1   8
HETATM    8  C3  UNL     1      23.189   2.939  50.700  1.00  0.00     0.124 C 
BRANCH   8   9
HETATM    9  C2  UNL     1      22.977   4.283  51.240  1.00  0.00     0.042 C 
HETATM   10  C1  UNL     1      22.105   4.420  52.233  1.00  0.00     0.046 C 
BRANCH   9  11
HETATM   11  O1  UNL     1      23.457   5.554  51.000  1.00  0.00    -0.354 OA
BRANCH  11  12
HETATM   12  C12 UNL     1      24.050   5.819  49.750  1.00  0.00     0.194 C 
BRANCH  12  13
HETATM   13  C13 UNL     1      25.552   5.948  49.851  1.00  0.00     0.142 C 
BRANCH  13  14
HETATM   14  N4  UNL     1      26.126   6.733  48.820  1.00  0.00    -0.419 N 
HETATM   15  C14 UNL     1      27.440   6.420  48.403  1.00  0.00     0.142 C 
HETATM   16  C15 UNL     1      25.252   7.313  47.866  1.00  0.00     0.142 C 
ENDBRANCH  13  14
ENDBRANCH  12  13
ENDBRANCH  11  12
ENDBRANCH   9  11
ENDBRANCH   8   9
ENDBRANCH   1   8
BRANCH   5  17
HETATM   17  C6  UNL     1      27.614   0.120  53.021  1.00  0.00     0.037 A 
HETATM   18  C7  UNL     1      28.414   0.642  53.879  1.00  0.00     0.037 A 
HETATM   19  C8  UNL     1      29.174  -0.582  54.075  1.00  0.00     0.200 A 
HETATM   20  F1  UNL     1      30.504  -0.516  53.655  1.00  0.00    -0.245 F 
HETATM   21  C9  UNL     1      28.245  -1.189  53.077  1.00  0.00     0.100 A 
ENDBRANCH   5  17
TORSDOF 7
ENDMDL
MODEL 7
REMARK VINA RESULT:      -5.6      1.585      3.580
REMARK  7 active torsions:
REMARK  status: ('A' for Active; 'I' for Inactive)
REMARK    1  A    between atoms: C2_2  and  C3_3 
REMARK    2  A    between atoms: C2_2  and  O1_16 
REMARK    3  A    between atoms: C3_3  and  C4_4 
REMARK    4  A    between atoms: N3_8  and  C6_9 
REMARK    5  A    between atoms: O1_16  and  C12_17 
REMARK    6  A    between atoms: C12_17  and  C13_18 
REMARK    7  A    between atoms: C13_18  and  N4_19 
ROOT
HETATM    1  C4  UNL     1      22.205   0.352  53.683  1.00  0.00     0.063 A 
HETATM    2  N1  UNL     1      23.002   1.184  53.100  1.00  0.00    -0.161 NA
HETATM    3  N2  UNL     1      24.375   1.119  53.071  1.00  0.00    -0.209 N 
HETATM    4  C5  UNL     1      25.172   2.135  52.371  1.00  0.00     0.203 C 
HETATM    5  N3  UNL     1      25.001   0.042  53.740  1.00  0.00    -0.254 N 
HETATM    6  C10 UNL     1      24.167  -0.896  54.395  1.00  0.00     0.120 A 
HETATM    7  C11 UNL     1      22.846  -0.759  54.375  1.00  0.00     0.048 A 
ENDROOT
BRANCH   1   8
HETATM    8  C3  UNL     1      20.722   0.542  53.635  1.00  0.00     0.124 C 
BRANCH   8   9
HETATM    9  C2  UNL     1      20.209   0.899  52.311  1.00  0.00     0.042 C 
HETATM   10  C1  UNL     1      19.493   2.013  52.205  1.00  0.00     0.046 C 
BRANCH   9  11
HETATM   11  O1  UNL     1      20.256   0.375  51.036  1.00  0.00    -0.354 OA
BRANCH  11  12
HETATM   12  C12 UNL     1      20.547   1.245  49.967  1.00  0.00     0.194 C 
BRANCH  12  13
HETATM   13  C13 UNL     1      22.029   1.311  49.677  1.00  0.00     0.142 C 
BRANCH  13  14
HETATM   14  N4  UNL     1      22.497   2.620  49.403  1.00  0.00    -0.419 N 
HETATM   15  C14 UNL     1      22.520   3.046  48.055  1.00  0.00     0.142 C 
HETATM   16  C15 UNL     1      22.321   3.608  50.404  1.00  0.00     0.142 C 
ENDBRANCH  13  14
ENDBRANCH  12  13
ENDBRANCH  11  12
ENDBRANCH   9  11
ENDBRANCH   8   9
ENDBRANCH   1   8
BRANCH   5  17
HETATM   17  C6  UNL     1      26.428  -0.047  53.719  1.00  0.00     0.037 A 
HETATM   18  C7  UNL     1      27.065  -0.708  52.822  1.00  0.00     0.037 A 
HETATM   19  C8  UNL     1      28.376  -0.394  53.369  1.00  0.00     0.200 A 
HETATM   20  F1  UNL     1      29.082  -1.493  53.859  1.00  0.00    -0.245 F 
HETATM   21  C9  UNL     1      27.635   0.374  54.413  1.00  0.00     0.100 A 
ENDBRANCH   5  17
TORSDOF 7
ENDMDL
MODEL 8
REMARK VINA RESULT:      -5.6      2.099      2.887
REMARK  7 active torsions:
REMARK  status: ('A' for Active; 'I' for Inactive)
REMARK    1  A    between atoms: C2_2  and  C3_3 
REMARK    2  A    between atoms: C2_2  and  O1_16 
REMARK    3  A    between atoms: C3_3  and  C4_4 
REMARK    4  A    between atoms: N3_8  and  C6_9 
REMARK    5  A    between atoms: O1_16  and  C12_17 
REMARK    6  A    between atoms: C12_17  and  C13_18 
REMARK    7  A    between atoms: C13_18  and  N4_19 
ROOT
HETATM    1  C4  UNL     1      24.263   2.246  51.398  1.00  0.00     0.063 A 
HETATM    2  N1  UNL     1      24.147   1.295  52.265  1.00  0.00    -0.161 NA
HETATM    3  N2  UNL     1      25.172   0.578  52.836  1.00  0.00    -0.209 N 
HETATM    4  C5  UNL     1      24.906  -0.485  53.812  1.00  0.00     0.203 C 
HETATM    5  N3  UNL     1      26.495   0.895  52.451  1.00  0.00    -0.254 N 
HETATM    6  C10 UNL     1      26.671   1.931  51.502  1.00  0.00     0.120 A 
HETATM    7  C11 UNL     1      25.625   2.575  50.999  1.00  0.00     0.048 A 
ENDROOT
BRANCH   1   8
HETATM    8  C3  UNL     1      23.057   2.947  50.857  1.00  0.00     0.124 C 
BRANCH   8   9
HETATM    9  C2  UNL     1      22.401   3.834  51.819  1.00  0.00     0.042 C 
HETATM   10  C1  UNL     1      23.026   4.959  52.150  1.00  0.00     0.046 C 
BRANCH   9  11
HETATM   11  O1  UNL     1      21.225   3.846  52.542  1.00  0.00    -0.354 OA
BRANCH  11  12
HETATM   12  C12 UNL     1      20.421   2.690  52.527  1.00  0.00     0.194 C 
BRANCH  12  13
HETATM   13  C13 UNL     1      19.243   2.831  51.591  1.00  0.00     0.142 C 
BRANCH  13  14
HETATM   14  N4  UNL     1      19.446   2.227  50.325  1.00  0.00    -0.419 N 
HETATM   15  C14 UNL     1      18.836   0.975  50.084  1.00  0.00     0.142 C 
HETATM   16  C15 UNL     1      19.666   3.080  49.214  1.00  0.00     0.142 C 
ENDBRANCH  13  14
ENDBRANCH  12  13
ENDBRANCH  11  12
ENDBRANCH   9  11
ENDBRANCH   8   9
ENDBRANCH   1   8
BRANCH   5  17
HETATM   17  C6  UNL     1      27.577   0.164  53.035  1.00  0.00     0.037 A 
HETATM   18  C7  UNL     1      28.413   0.701  53.847  1.00  0.00     0.037 A 
HETATM   19  C8  UNL     1      29.181  -0.521  54.032  1.00  0.00     0.200 A 
HETATM   20  F1  UNL     1      30.491  -0.464  53.554  1.00  0.00    -0.245 F 
HETATM   21  C9  UNL     1      28.209  -1.145  53.087  1.00  0.00     0.100 A 
ENDBRANCH   5  17
TORSDOF 7
ENDMDL
MODEL 9
REMARK VINA RESULT:      -5.6      3.697      5.854
REMARK  7 active torsions:
REMARK  status: ('A' for Active; 'I' for Inactive)
REMARK    1  A    between atoms: C2_2  and  C3_3 
REMARK    2  A    between atoms: C2_2  and  O1_16 
REMARK    3  A    between atoms: C3_3  and  C4_4 
REMARK    4  A    between atoms: N3_8  and  C6_9 
REMARK    5  A    between atoms: O1_16  and  C12_17 
REMARK    6  A    between atoms: C12_17  and  C13_18 
REMARK    7  A    between atoms: C13_18  and  N4_19 
ROOT
HETATM    1  C4  UNL     1      25.043   2.556  50.992  1.00  0.00     0.063 A 
HETATM    2  N1  UNL     1      23.911   2.072  50.602  1.00  0.00    -0.161 NA
HETATM    3  N2  UNL     1      23.018   1.359  51.368  1.00  0.00    -0.209 N 
HETATM    4  C5  UNL     1      21.759   0.858  50.803  1.00  0.00     0.203 C 
HETATM    5  N3  UNL     1      23.351   1.119  52.721  1.00  0.00    -0.254 N 
HETATM    6  C10 UNL     1      24.584   1.630  53.193  1.00  0.00     0.120 A 
HETATM    7  C11 UNL     1      25.390   2.310  52.386  1.00  0.00     0.048 A 
ENDROOT
BRANCH   1   8
HETATM    8  C3  UNL     1      25.920   3.317  50.050  1.00  0.00     0.124 C 
BRANCH   8   9
HETATM    9  C2  UNL     1      25.623   4.749  49.982  1.00  0.00     0.042 C 
HETATM   10  C1  UNL     1      26.196   5.454  49.013  1.00  0.00     0.046 C 
BRANCH   9  11
HETATM   11  O1  UNL     1      24.859   5.655  50.689  1.00  0.00    -0.354 OA
BRANCH  11  12
HETATM   12  C12 UNL     1      23.856   6.363  49.999  1.00  0.00     0.194 C 
BRANCH  12  13
HETATM   13  C13 UNL     1      22.520   6.281  50.701  1.00  0.00     0.142 C 
BRANCH  13  14
HETATM   14  N4  UNL     1      21.992   4.968  50.766  1.00  0.00    -0.419 N 
HETATM   15  C14 UNL     1      21.557   4.491  52.024  1.00  0.00     0.142 C 
HETATM   16  C15 UNL     1      21.354   4.454  49.609  1.00  0.00     0.142 C 
ENDBRANCH  13  14
ENDBRANCH  12  13
ENDBRANCH  11  12
ENDBRANCH   9  11
ENDBRANCH   8   9
ENDBRANCH   1   8
BRANCH   5  17
HETATM   17  C6  UNL     1      22.436   0.382  53.537  1.00  0.00     0.037 A 
HETATM   18  C7  UNL     1      22.698  -0.794  53.979  1.00  0.00     0.037 A 
HETATM   19  C8  UNL     1      21.430  -0.929  54.679  1.00  0.00     0.200 A 
HETATM   20  F1  UNL     1      20.593  -1.930  54.181  1.00  0.00    -0.245 F 
HETATM   21  C9  UNL     1      21.125   0.438  54.164  1.00  0.00     0.100 A 
ENDBRANCH   5  17
TORSDOF 7
ENDMDL
