MODEL 1
REMARK VINA RESULT:      -7.9      0.000      0.000
REMARK  5 active torsions:
REMARK  status: ('A' for Active; 'I' for Inactive)
REMARK    1  A    between atoms: O1_1  and  C1_2 
REMARK    2  A    between atoms: C1_2  and  C2_3 
REMARK    3  A    between atoms: C2_3  and  N1_4 
REMARK    4  A    between atoms: C2_3  and  C11_16 
REMARK    5  A    between atoms: N1_4  and  C3_5 
ROOT
HETATM    1  N1  UNL     1      25.957   1.380  51.992  1.00  0.00    -0.363 N 
HETATM    2  H5  UNL     1      26.306   0.990  51.076  1.00  0.00     0.162 HD
ENDROOT
BRANCH   1   3
HETATM    3  C2  UNL     1      26.794   1.111  53.120  1.00  0.00     0.140 C 
BRANCH   3   4
HETATM    4  C1  UNL     1      27.787   2.241  53.268  1.00  0.00     0.194 C 
BRANCH   4   5
HETATM    5  O1  UNL     1      27.948   2.948  52.080  1.00  0.00    -0.399 OA
HETATM    6  H1  UNL     1      28.656   2.472  51.549  1.00  0.00     0.209 HD
ENDBRANCH   4   5
ENDBRANCH   3   4
BRANCH   3   7
HETATM    7  C11 UNL     1      27.431  -0.207  53.082  1.00  0.00    -0.034 A 
HETATM    8  C12 UNL     1      28.758  -0.206  53.508  1.00  0.00     0.009 A 
HETATM    9  C13 UNL     1      29.504  -1.386  53.530  1.00  0.00     0.001 A 
HETATM   10  C14 UNL     1      28.937  -2.584  53.130  1.00  0.00     0.000 A 
HETATM   11  C15 UNL     1      27.621  -2.568  52.711  1.00  0.00     0.001 A 
HETATM   12  C16 UNL     1      26.880  -1.407  52.686  1.00  0.00     0.009 A 
ENDBRANCH   3   7
ENDBRANCH   1   3
BRANCH   1  13
HETATM   13  C3  UNL     1      24.738   2.096  51.954  1.00  0.00     0.139 A 
HETATM   14  N2  UNL     1      24.744   3.335  51.487  1.00  0.00    -0.224 NA
HETATM   15  C4  UNL     1      23.686   4.126  51.393  1.00  0.00     0.236 A 
HETATM   16  N3  UNL     1      22.491   3.621  51.813  1.00  0.00    -0.234 NA
HETATM   17  C5  UNL     1      22.443   2.368  52.294  1.00  0.00     0.104 A 
HETATM   18  C6  UNL     1      23.534   1.531  52.398  1.00  0.00     0.057 A 
HETATM   19  S1  UNL     1      21.379   1.172  52.948  1.00  0.00    -0.135 SA
HETATM   20  C7  UNL     1      22.905   0.292  52.985  1.00  0.00    -0.009 A 
HETATM   21  C10 UNL     1      22.574  -1.014  53.539  1.00  0.00     0.047 C 
HETATM   22  C9  UNL     1      21.526  -0.774  54.579  1.00  0.00     0.015 C 
HETATM   23  C8  UNL     1      20.361  -0.131  53.916  1.00  0.00     0.075 C 
ENDBRANCH   1  13
TORSDOF 5
ENDMDL
MODEL 2
REMARK VINA RESULT:      -7.6      1.739      2.486
REMARK  5 active torsions:
REMARK  status: ('A' for Active; 'I' for Inactive)
REMARK    1  A    between atoms: O1_1  and  C1_2 
REMARK    2  A    between atoms: C1_2  and  C2_3 
REMARK    3  A    between atoms: C2_3  and  N1_4 
REMARK    4  A    between atoms: C2_3  and  C11_16 
REMARK    5  A    between atoms: N1_4  and  C3_5 
ROOT
HETATM    1  N1  UNL     1      24.058   2.698  50.858  1.00  0.00    -0.363 N 
HETATM    2  H5  UNL     1      24.087   2.435  49.836  1.00  0.00     0.162 HD
ENDROOT
BRANCH   1   3
HETATM    3  C2  UNL     1      25.335   2.934  51.456  1.00  0.00     0.140 C 
BRANCH   3   4
HETATM    4  C1  UNL     1      26.283   3.443  50.394  1.00  0.00     0.194 C 
BRANCH   4   5
HETATM    5  O1  UNL     1      26.231   4.829  50.275  1.00  0.00    -0.399 OA
HETATM    6  H1  UNL     1      26.712   5.069  49.425  1.00  0.00     0.209 HD
ENDBRANCH   4   5
ENDBRANCH   3   4
BRANCH   3   7
HETATM    7  C11 UNL     1      25.865   1.784  52.191  1.00  0.00    -0.034 A 
HETATM    8  C12 UNL     1      25.843   1.938  53.576  1.00  0.00     0.009 A 
HETATM    9  C13 UNL     1      26.315   0.929  54.417  1.00  0.00     0.001 A 
HETATM   10  C14 UNL     1      26.815  -0.250  53.889  1.00  0.00     0.000 A 
HETATM   11  C15 UNL     1      26.831  -0.387  52.515  1.00  0.00     0.001 A 
HETATM   12  C16 UNL     1      26.367   0.606  51.679  1.00  0.00     0.009 A 
ENDBRANCH   3   7
ENDBRANCH   1   3
BRANCH   1  13
HETATM   13  C3  UNL     1      22.780   2.774  51.457  1.00  0.00     0.139 A 
HETATM   14  N2  UNL     1      22.041   3.853  51.242  1.00  0.00    -0.224 NA
HETATM   15  C4  UNL     1      20.831   4.067  51.735  1.00  0.00     0.236 A 
HETATM   16  N3  UNL     1      20.303   3.095  52.532  1.00  0.00    -0.234 NA
HETATM   17  C5  UNL     1      21.020   1.985  52.775  1.00  0.00     0.104 A 
HETATM   18  C6  UNL     1      22.281   1.746  52.269  1.00  0.00     0.057 A 
HETATM   19  S1  UNL     1      20.996   0.472  53.612  1.00  0.00    -0.135 SA
HETATM   20  C7  UNL     1      22.585   0.390  52.854  1.00  0.00    -0.009 A 
HETATM   21  C10 UNL     1      23.137  -0.891  53.274  1.00  0.00     0.047 C 
HETATM   22  C9  UNL     1      22.682  -1.102  54.684  1.00  0.00     0.015 C 
HETATM   23  C8  UNL     1      21.196  -1.098  54.691  1.00  0.00     0.075 C 
ENDBRANCH   1  13
TORSDOF 5
ENDMDL
MODEL 3
REMARK VINA RESULT:      -7.5      3.335      6.403
REMARK  5 active torsions:
REMARK  status: ('A' for Active; 'I' for Inactive)
REMARK    1  A    between atoms: O1_1  and  C1_2 
REMARK    2  A    between atoms: C1_2  and  C2_3 
REMARK    3  A    between atoms: C2_3  and  N1_4 
REMARK    4  A    between atoms: C2_3  and  C11_16 
REMARK    5  A    between atoms: N1_4  and  C3_5 
ROOT
HETATM    1  N1  UNL     1      22.325  -0.044  52.601  1.00  0.00    -0.363 N 
HETATM    2  H5  UNL     1      21.872  -0.825  52.053  1.00  0.00     0.162 HD
ENDROOT
BRANCH   1   3
HETATM    3  C2  UNL     1      21.920   1.273  52.219  1.00  0.00     0.140 C 
BRANCH   3   4
HETATM    4  C1  UNL     1      20.516   1.516  52.726  1.00  0.00     0.194 C 
BRANCH   4   5
HETATM    5  O1  UNL     1      20.220   2.874  52.800  1.00  0.00    -0.399 OA
HETATM    6  H1  UNL     1      19.336   3.007  52.341  1.00  0.00     0.209 HD
ENDBRANCH   4   5
ENDBRANCH   3   4
BRANCH   3   7
HETATM    7  C11 UNL     1      22.064   1.545  50.788  1.00  0.00    -0.034 A 
HETATM    8  C12 UNL     1      23.055   2.478  50.487  1.00  0.00     0.009 A 
HETATM    9  C13 UNL     1      23.315   2.845  49.165  1.00  0.00     0.001 A 
HETATM   10  C14 UNL     1      22.593   2.286  48.125  1.00  0.00     0.000 A 
HETATM   11  C15 UNL     1      21.615   1.363  48.439  1.00  0.00     0.001 A 
HETATM   12  C16 UNL     1      21.352   0.997  49.742  1.00  0.00     0.009 A 
ENDBRANCH   3   7
ENDBRANCH   1   3
BRANCH   1  13
HETATM   13  C3  UNL     1      23.242  -0.424  53.608  1.00  0.00     0.139 A 
HETATM   14  N2  UNL     1      22.793  -1.109  54.650  1.00  0.00    -0.224 NA
HETATM   15  C4  UNL     1      23.528  -1.529  55.667  1.00  0.00     0.236 A 
HETATM   16  N3  UNL     1      24.859  -1.232  55.639  1.00  0.00    -0.234 NA
HETATM   17  C5  UNL     1      25.353  -0.539  54.600  1.00  0.00     0.104 A 
HETATM   18  C6  UNL     1      24.602  -0.093  53.533  1.00  0.00     0.057 A 
HETATM   19  S1  UNL     1      26.804   0.138  53.948  1.00  0.00    -0.135 SA
HETATM   20  C7  UNL     1      25.650   0.600  52.699  1.00  0.00    -0.009 A 
HETATM   21  C10 UNL     1      26.435   1.326  51.710  1.00  0.00     0.047 C 
HETATM   22  C9  UNL     1      27.456   2.107  52.476  1.00  0.00     0.015 C 
HETATM   23  C8  UNL     1      28.279   1.145  53.255  1.00  0.00     0.075 C 
ENDBRANCH   1  13
TORSDOF 5
ENDMDL
MODEL 4
REMARK VINA RESULT:      -7.4      2.169      3.163
REMARK  5 active torsions:
REMARK  status: ('A' for Active; 'I' for Inactive)
REMARK    1  A    between atoms: O1_1  and  C1_2 
REMARK    2  A    between atoms: C1_2  and  C2_3 
REMARK    3  A    between atoms: C2_3  and  N1_4 
REMARK    4  A    between atoms: C2_3  and  C11_16 
REMARK    5  A    between atoms: N1_4  and  C3_5 
ROOT
HETATM    1  N1  UNL     1      24.807   0.200  52.563  1.00  0.00    -0.363 N 
HETATM    2  H5  UNL     1      24.729  -0.106  51.556  1.00  0.00     0.162 HD
ENDROOT
BRANCH   1   3
HETATM    3  C2  UNL     1      25.924   1.046  52.851  1.00  0.00     0.140 C 
BRANCH   3   4
HETATM    4  C1  UNL     1      26.040   2.086  51.759  1.00  0.00     0.194 C 
BRANCH   4   5
HETATM    5  O1  UNL     1      25.482   3.302  52.141  1.00  0.00    -0.399 OA
HETATM    6  H1  UNL     1      24.995   3.143  53.006  1.00  0.00     0.209 HD
ENDBRANCH   4   5
ENDBRANCH   3   4
BRANCH   3   7
HETATM    7  C11 UNL     1      27.173   0.319  53.082  1.00  0.00    -0.034 A 
HETATM    8  C12 UNL     1      28.208   1.115  53.571  1.00  0.00     0.009 A 
HETATM    9  C13 UNL     1      29.465   0.569  53.842  1.00  0.00     0.001 A 
HETATM   10  C14 UNL     1      29.706  -0.778  53.632  1.00  0.00     0.000 A 
HETATM   11  C15 UNL     1      28.671  -1.553  53.147  1.00  0.00     0.001 A 
HETATM   12  C16 UNL     1      27.429  -1.020  52.877  1.00  0.00     0.009 A 
ENDBRANCH   3   7
ENDBRANCH   1   3
BRANCH   1  13
HETATM   13  C3  UNL     1      23.810  -0.269  53.448  1.00  0.00     0.139 A 
HETATM   14  N2  UNL     1      24.185  -0.903  54.549  1.00  0.00    -0.224 NA
HETATM   15  C4  UNL     1      23.369  -1.399  55.466  1.00  0.00     0.236 A 
HETATM   16  N3  UNL     1      22.031  -1.245  55.258  1.00  0.00    -0.234 NA
HETATM   17  C5  UNL     1      21.609  -0.608  54.153  1.00  0.00     0.104 A 
HETATM   18  C6  UNL     1      22.444  -0.085  53.188  1.00  0.00     0.057 A 
HETATM   19  S1  UNL     1      20.194  -0.090  53.305  1.00  0.00    -0.135 SA
HETATM   20  C7  UNL     1      21.449   0.494  52.214  1.00  0.00    -0.009 A 
HETATM   21  C10 UNL     1      20.731   1.132  51.119  1.00  0.00     0.047 C 
HETATM   22  C9  UNL     1      19.501   0.313  50.891  1.00  0.00     0.015 C 
HETATM   23  C8  UNL     1      18.715   0.304  52.152  1.00  0.00     0.075 C 
ENDBRANCH   1  13
TORSDOF 5
ENDMDL
MODEL 5
REMARK VINA RESULT:      -7.2      2.232      5.430
REMARK  5 active torsions:
REMARK  status: ('A' for Active; 'I' for Inactive)
REMARK    1  A    between atoms: O1_1  and  C1_2 
REMARK    2  A    between atoms: C1_2  and  C2_3 
REMARK    3  A    between atoms: C2_3  and  N1_4 
REMARK    4  A    between atoms: C2_3  and  C11_16 
REMARK    5  A    between atoms: N1_4  and  C3_5 
ROOT
HETATM    1  N1  UNL     1      26.759   3.201  51.482  1.00  0.00    -0.363 N 
HETATM    2  H5  UNL     1      27.114   4.139  51.811  1.00  0.00     0.162 HD
ENDROOT
BRANCH   1   3
HETATM    3  C2  UNL     1      26.109   3.216  50.208  1.00  0.00     0.140 C 
BRANCH   3   4
HETATM    4  C1  UNL     1      26.937   4.041  49.250  1.00  0.00     0.194 C 
BRANCH   4   5
HETATM    5  O1  UNL     1      27.015   5.373  49.648  1.00  0.00    -0.399 OA
HETATM    6  H1  UNL     1      27.792   5.445  50.282  1.00  0.00     0.209 HD
ENDBRANCH   4   5
ENDBRANCH   3   4
BRANCH   3   7
HETATM    7  C11 UNL     1      24.709   3.639  50.263  1.00  0.00    -0.034 A 
HETATM    8  C12 UNL     1      23.920   3.118  49.239  1.00  0.00     0.009 A 
HETATM    9  C13 UNL     1      22.561   3.429  49.152  1.00  0.00     0.001 A 
HETATM   10  C14 UNL     1      21.969   4.262  50.086  1.00  0.00     0.000 A 
HETATM   11  C15 UNL     1      22.764   4.770  51.095  1.00  0.00     0.001 A 
HETATM   12  C16 UNL     1      24.106   4.468  51.186  1.00  0.00     0.009 A 
ENDBRANCH   3   7
ENDBRANCH   1   3
BRANCH   1  13
HETATM   13  C3  UNL     1      26.981   2.102  52.342  1.00  0.00     0.139 A 
HETATM   14  N2  UNL     1      28.226   1.805  52.685  1.00  0.00    -0.224 NA
HETATM   15  C4  UNL     1      28.588   0.808  53.476  1.00  0.00     0.236 A 
HETATM   16  N3  UNL     1      27.596   0.020  53.980  1.00  0.00    -0.234 NA
HETATM   17  C5  UNL     1      26.320   0.287  53.657  1.00  0.00     0.104 A 
HETATM   18  C6  UNL     1      25.925   1.321  52.834  1.00  0.00     0.057 A 
HETATM   19  S1  UNL     1      24.689  -0.234  53.897  1.00  0.00    -0.135 SA
HETATM   20  C7  UNL     1      24.427   1.143  52.828  1.00  0.00    -0.009 A 
HETATM   21  C10 UNL     1      22.984   1.207  52.643  1.00  0.00     0.047 C 
HETATM   22  C9  UNL     1      22.504  -0.209  52.595  1.00  0.00     0.015 C 
HETATM   23  C8  UNL     1      22.879  -0.863  53.876  1.00  0.00     0.075 C 
ENDBRANCH   1  13
TORSDOF 5
ENDMDL
MODEL 6
REMARK VINA RESULT:      -7.2      2.868      5.985
REMARK  5 active torsions:
REMARK  status: ('A' for Active; 'I' for Inactive)
REMARK    1  A    between atoms: O1_1  and  C1_2 
REMARK    2  A    between atoms: C1_2  and  C2_3 
REMARK    3  A    between atoms: C2_3  and  N1_4 
REMARK    4  A    between atoms: C2_3  and  C11_16 
REMARK    5  A    between atoms: N1_4  and  C3_5 
ROOT
HETATM    1  N1  UNL     1      23.920   2.557  51.091  1.00  0.00    -0.363 N 
HETATM    2  H5  UNL     1      23.518   2.345  50.139  1.00  0.00     0.162 HD
ENDROOT
BRANCH   1   3
HETATM    3  C2  UNL     1      24.288   3.924  51.298  1.00  0.00     0.140 C 
BRANCH   3   4
HETATM    4  C1  UNL     1      23.035   4.771  51.291  1.00  0.00     0.194 C 
BRANCH   4   5
HETATM    5  O1  UNL     1      22.756   5.290  52.552  1.00  0.00    -0.399 OA
HETATM    6  H1  UNL     1      21.758   5.399  52.610  1.00  0.00     0.209 HD
ENDBRANCH   4   5
ENDBRANCH   3   4
BRANCH   3   7
HETATM    7  C11 UNL     1      25.309   4.409  50.367  1.00  0.00    -0.034 A 
HETATM    8  C12 UNL     1      25.171   5.754  50.027  1.00  0.00     0.009 A 
HETATM    9  C13 UNL     1      26.066   6.366  49.148  1.00  0.00     0.001 A 
HETATM   10  C14 UNL     1      27.114   5.647  48.598  1.00  0.00     0.000 A 
HETATM   11  C15 UNL     1      27.238   4.316  48.945  1.00  0.00     0.001 A 
HETATM   12  C16 UNL     1      26.357   3.706  49.811  1.00  0.00     0.009 A 
ENDBRANCH   3   7
ENDBRANCH   1   3
BRANCH   1  13
HETATM   13  C3  UNL     1      24.026   1.473  51.992  1.00  0.00     0.139 A 
HETATM   14  N2  UNL     1      22.947   0.744  52.237  1.00  0.00    -0.224 NA
HETATM   15  C4  UNL     1      22.893  -0.295  53.055  1.00  0.00     0.236 A 
HETATM   16  N3  UNL     1      24.043  -0.643  53.699  1.00  0.00    -0.234 NA
HETATM   17  C5  UNL     1      25.159   0.071  53.478  1.00  0.00     0.104 A 
HETATM   18  C6  UNL     1      25.234   1.156  52.629  1.00  0.00     0.057 A 
HETATM   19  S1  UNL     1      26.830   0.202  53.901  1.00  0.00    -0.135 SA
HETATM   20  C7  UNL     1      26.684   1.547  52.772  1.00  0.00    -0.009 A 
HETATM   21  C10 UNL     1      28.013   2.140  52.717  1.00  0.00     0.047 C 
HETATM   22  C9  UNL     1      28.573   2.044  54.100  1.00  0.00     0.015 C 
HETATM   23  C8  UNL     1      28.611   0.608  54.482  1.00  0.00     0.075 C 
ENDBRANCH   1  13
TORSDOF 5
ENDMDL
MODEL 7
REMARK VINA RESULT:      -7.2      1.767      2.106
REMARK  5 active torsions:
REMARK  status: ('A' for Active; 'I' for Inactive)
REMARK    1  A    between atoms: O1_1  and  C1_2 
REMARK    2  A    between atoms: C1_2  and  C2_3 
REMARK    3  A    between atoms: C2_3  and  N1_4 
REMARK    4  A    between atoms: C2_3  and  C11_16 
REMARK    5  A    between atoms: N1_4  and  C3_5 
ROOT
HETATM    1  N1  UNL     1      25.409   0.971  53.040  1.00  0.00    -0.363 N 
HETATM    2  H5  UNL     1      25.847   1.688  53.678  1.00  0.00     0.162 HD
ENDROOT
BRANCH   1   3
HETATM    3  C2  UNL     1      25.822  -0.378  53.277  1.00  0.00     0.140 C 
BRANCH   3   4
HETATM    4  C1  UNL     1      25.136  -0.884  54.525  1.00  0.00     0.194 C 
BRANCH   4   5
HETATM    5  O1  UNL     1      25.875  -0.608  55.671  1.00  0.00    -0.399 OA
HETATM    6  H1  UNL     1      26.434   0.203  55.471  1.00  0.00     0.209 HD
ENDBRANCH   4   5
ENDBRANCH   3   4
BRANCH   3   7
HETATM    7  C11 UNL     1      27.275  -0.553  53.314  1.00  0.00    -0.034 A 
HETATM    8  C12 UNL     1      27.979   0.617  53.592  1.00  0.00     0.009 A 
HETATM    9  C13 UNL     1      29.374   0.615  53.662  1.00  0.00     0.001 A 
HETATM   10  C14 UNL     1      30.086  -0.554  53.458  1.00  0.00     0.000 A 
HETATM   11  C15 UNL     1      29.375  -1.705  53.183  1.00  0.00     0.001 A 
HETATM   12  C16 UNL     1      27.998  -1.710  53.112  1.00  0.00     0.009 A 
ENDBRANCH   3   7
ENDBRANCH   1   3
BRANCH   1  13
HETATM   13  C3  UNL     1      24.500   1.453  52.072  1.00  0.00     0.139 A 
HETATM   14  N2  UNL     1      24.924   2.349  51.192  1.00  0.00    -0.224 NA
HETATM   15  C4  UNL     1      24.191   2.891  50.233  1.00  0.00     0.236 A 
HETATM   16  N3  UNL     1      22.889   2.496  50.144  1.00  0.00    -0.234 NA
HETATM   17  C5  UNL     1      22.419   1.590  51.017  1.00  0.00     0.104 A 
HETATM   18  C6  UNL     1      23.169   1.014  52.022  1.00  0.00     0.057 A 
HETATM   19  S1  UNL     1      21.008   0.699  51.469  1.00  0.00    -0.135 SA
HETATM   20  C7  UNL     1      22.155   0.103  52.667  1.00  0.00    -0.009 A 
HETATM   21  C10 UNL     1      21.400  -0.848  53.472  1.00  0.00     0.047 C 
HETATM   22  C9  UNL     1      20.017  -0.290  53.593  1.00  0.00     0.015 C 
HETATM   23  C8  UNL     1      19.461  -0.143  52.222  1.00  0.00     0.075 C 
ENDBRANCH   1  13
TORSDOF 5
ENDMDL
MODEL 8
REMARK VINA RESULT:      -7.0      2.673      5.530
REMARK  5 active torsions:
REMARK  status: ('A' for Active; 'I' for Inactive)
REMARK    1  A    between atoms: O1_1  and  C1_2 
REMARK    2  A    between atoms: C1_2  and  C2_3 
REMARK    3  A    between atoms: C2_3  and  N1_4 
REMARK    4  A    between atoms: C2_3  and  C11_16 
REMARK    5  A    between atoms: N1_4  and  C3_5 
ROOT
HETATM    1  N1  UNL     1      23.172   2.176  51.701  1.00  0.00    -0.363 N 
HETATM    2  H5  UNL     1      22.728   2.796  52.431  1.00  0.00     0.162 HD
ENDROOT
BRANCH   1   3
HETATM    3  C2  UNL     1      22.354   1.090  51.256  1.00  0.00     0.140 C 
BRANCH   3   4
HETATM    4  C1  UNL     1      21.258   1.639  50.371  1.00  0.00     0.194 C 
BRANCH   4   5
HETATM    5  O1  UNL     1      21.445   2.989  50.091  1.00  0.00    -0.399 OA
HETATM    6  H1  UNL     1      20.894   3.506  50.755  1.00  0.00     0.209 HD
ENDBRANCH   4   5
ENDBRANCH   3   4
BRANCH   3   7
HETATM    7  C11 UNL     1      21.845   0.250  52.341  1.00  0.00    -0.034 A 
HETATM    8  C12 UNL     1      22.841  -0.287  53.155  1.00  0.00     0.009 A 
HETATM    9  C13 UNL     1      22.517  -1.111  54.235  1.00  0.00     0.001 A 
HETATM   10  C14 UNL     1      21.195  -1.411  54.519  1.00  0.00     0.000 A 
HETATM   11  C15 UNL     1      20.220  -0.871  53.702  1.00  0.00     0.001 A 
HETATM   12  C16 UNL     1      20.533  -0.058  52.635  1.00  0.00     0.009 A 
ENDBRANCH   3   7
ENDBRANCH   1   3
BRANCH   1  13
HETATM   13  C3  UNL     1      24.480   2.517  51.289  1.00  0.00     0.139 A 
HETATM   14  N2  UNL     1      24.636   3.169  50.146  1.00  0.00    -0.224 NA
HETATM   15  C4  UNL     1      25.794   3.551  49.632  1.00  0.00     0.236 A 
HETATM   16  N3  UNL     1      26.921   3.247  50.337  1.00  0.00    -0.234 NA
HETATM   17  C5  UNL     1      26.806   2.586  51.501  1.00  0.00     0.104 A 
HETATM   18  C6  UNL     1      25.607   2.180  52.052  1.00  0.00     0.057 A 
HETATM   19  S1  UNL     1      27.711   1.922  52.816  1.00  0.00    -0.135 SA
HETATM   20  C7  UNL     1      26.074   1.508  53.319  1.00  0.00    -0.009 A 
HETATM   21  C10 UNL     1      26.233   0.810  54.587  1.00  0.00     0.047 C 
HETATM   22  C9  UNL     1      27.483  -0.002  54.464  1.00  0.00     0.015 C 
HETATM   23  C8  UNL     1      28.609   0.928  54.186  1.00  0.00     0.075 C 
ENDBRANCH   1  13
TORSDOF 5
ENDMDL
MODEL 9
REMARK VINA RESULT:      -7.0      2.852      5.632
REMARK  5 active torsions:
REMARK  status: ('A' for Active; 'I' for Inactive)
REMARK    1  A    between atoms: O1_1  and  C1_2 
REMARK    2  A    between atoms: C1_2  and  C2_3 
REMARK    3  A    between atoms: C2_3  and  N1_4 
REMARK    4  A    between atoms: C2_3  and  C11_16 
REMARK    5  A    between atoms: N1_4  and  C3_5 
ROOT
HETATM    1  N1  UNL     1      23.327   3.599  50.673  1.00  0.00    -0.363 N 
HETATM    2  H5  UNL     1      23.088   3.451  49.656  1.00  0.00     0.162 HD
ENDROOT
BRANCH   1   3
HETATM    3  C2  UNL     1      24.074   4.787  50.950  1.00  0.00     0.140 C 
BRANCH   3   4
HETATM    4  C1  UNL     1      23.144   5.976  50.863  1.00  0.00     0.194 C 
BRANCH   4   5
HETATM    5  O1  UNL     1      22.185   5.958  51.872  1.00  0.00    -0.399 OA
HETATM    6  H1  UNL     1      22.649   5.659  52.713  1.00  0.00     0.209 HD
ENDBRANCH   4   5
ENDBRANCH   3   4
BRANCH   3   7
HETATM    7  C11 UNL     1      25.272   4.939  50.123  1.00  0.00    -0.034 A 
HETATM    8  C12 UNL     1      25.493   6.242  49.681  1.00  0.00     0.009 A 
HETATM    9  C13 UNL     1      26.596   6.551  48.882  1.00  0.00     0.001 A 
HETATM   10  C14 UNL     1      27.495   5.565  48.514  1.00  0.00     0.000 A 
HETATM   11  C15 UNL     1      27.262   4.279  48.959  1.00  0.00     0.001 A 
HETATM   12  C16 UNL     1      26.176   3.967  49.748  1.00  0.00     0.009 A 
ENDBRANCH   3   7
ENDBRANCH   1   3
BRANCH   1  13
HETATM   13  C3  UNL     1      22.876   2.614  51.580  1.00  0.00     0.139 A 
HETATM   14  N2  UNL     1      21.608   2.637  51.964  1.00  0.00    -0.224 NA
HETATM   15  C4  UNL     1      21.045   1.786  52.807  1.00  0.00     0.236 A 
HETATM   16  N3  UNL     1      21.837   0.803  53.323  1.00  0.00    -0.234 NA
HETATM   17  C5  UNL     1      23.129   0.745  52.959  1.00  0.00     0.104 A 
HETATM   18  C6  UNL     1      23.732   1.623  52.083  1.00  0.00     0.057 A 
HETATM   19  S1  UNL     1      24.596  -0.141  53.186  1.00  0.00    -0.135 SA
HETATM   20  C7  UNL     1      25.143   1.091  52.051  1.00  0.00    -0.009 A 
HETATM   21  C10 UNL     1      26.553   0.802  51.830  1.00  0.00     0.047 C 
HETATM   22  C9  UNL     1      27.095   0.332  53.143  1.00  0.00     0.015 C 
HETATM   23  C8  UNL     1      26.328  -0.875  53.550  1.00  0.00     0.075 C 
ENDBRANCH   1  13
TORSDOF 5
ENDMDL
