MODEL 1
REMARK VINA RESULT:     -10.1      0.000      0.000
REMARK  2 active torsions:
REMARK  status: ('A' for Active; 'I' for Inactive)
REMARK    1  A    between atoms: N1_1  and  C1_2 
REMARK    2  A    between atoms: C14_18  and  S1_19 
ROOT
HETATM    1  C1  UNL     1      21.043  -1.115  53.726  1.00  0.00     0.250 C 
HETATM    2  C2  UNL     1      21.907  -1.022  54.980  1.00  0.00     0.067 C 
HETATM    3  C3  UNL     1      23.357  -0.954  54.591  1.00  0.00    -0.016 C 
HETATM    4  C4  UNL     1      23.424  -0.119  53.604  1.00  0.00    -0.047 C 
HETATM    5  C5  UNL     1      22.366   0.580  52.857  1.00  0.00     0.075 C 
HETATM    6  C6  UNL     1      20.995   0.156  53.010  1.00  0.00    -0.039 C 
HETATM    7  C7  UNL     1      20.243   1.075  52.375  1.00  0.00     0.061 C 
HETATM    8  C8  UNL     1      20.182   2.312  51.682  1.00  0.00     0.185 C 
HETATM    9  O1  UNL     1      19.061   2.655  51.246  1.00  0.00    -0.287 OA
HETATM   10  C9  UNL     1      21.094   3.233  51.386  1.00  0.00     0.042 A 
HETATM   11  C10 UNL     1      22.400   3.649  51.082  1.00  0.00     0.146 A 
HETATM   12  C11 UNL     1      23.573   4.063  50.806  1.00  0.00     0.028 A 
HETATM   13  C12 UNL     1      24.848   3.808  50.578  1.00  0.00     0.136 A 
HETATM   14  N2  UNL     1      25.482   4.961  50.375  1.00  0.00    -0.224 NA
HETATM   15  C13 UNL     1      24.949   6.196  50.393  1.00  0.00     0.231 A 
HETATM   16  N3  UNL     1      23.644   6.434  50.630  1.00  0.00    -0.255 NA
HETATM   17  C14 UNL     1      22.908   5.321  50.850  1.00  0.00     0.147 A 
HETATM   18  S1  UNL     1      21.231   5.094  51.218  1.00  0.00    -0.132 SA
HETATM   19  N4  UNL     1      25.723   2.724  50.508  1.00  0.00    -0.341 N 
HETATM   20  C15 UNL     1      26.034   1.735  51.450  1.00  0.00     0.036 A 
HETATM   21  C16 UNL     1      27.163   1.091  51.905  1.00  0.00     0.053 A 
HETATM   22  C17 UNL     1      27.134   0.103  52.864  1.00  0.00     0.037 A 
HETATM   23 CL1  UNL     1      28.669  -0.611  53.329  1.00  0.00    -0.084 Cl
HETATM   24  C18 UNL     1      25.967  -0.355  53.481  1.00  0.00     0.036 A 
HETATM   25  C19 UNL     1      24.781   0.217  53.105  1.00  0.00    -0.026 A 
HETATM   26  C20 UNL     1      25.002   1.172  52.150  1.00  0.00     0.041 A 
HETATM   27  H12 UNL     1      26.336   2.446  49.716  1.00  0.00     0.167 HD
ENDROOT
BRANCH   1  28
HETATM   28  N1  UNL     1      19.749  -1.618  54.134  1.00  0.00     0.087 N 
HETATM   29  H1  UNL     1      19.390  -1.145  54.995  1.00  0.00     0.313 HD
HETATM   30  H2  UNL     1      19.079  -1.349  53.358  1.00  0.00     0.313 HD
ENDBRANCH   1  28
TORSDOF 2
ENDMDL
MODEL 2
REMARK VINA RESULT:     -10.0      2.989      5.012
REMARK  2 active torsions:
REMARK  status: ('A' for Active; 'I' for Inactive)
REMARK    1  A    between atoms: N1_1  and  C1_2 
REMARK    2  A    between atoms: C14_18  and  S1_19 
ROOT
HETATM    1  C1  UNL     1      27.041  -0.206  52.949  1.00  0.00     0.250 C 
HETATM    2  C2  UNL     1      27.687   1.110  53.375  1.00  0.00     0.067 C 
HETATM    3  C3  UNL     1      27.536   2.125  52.277  1.00  0.00    -0.016 C 
HETATM    4  C4  UNL     1      26.315   2.022  51.858  1.00  0.00    -0.047 C 
HETATM    5  C5  UNL     1      25.250   1.072  52.215  1.00  0.00     0.075 C 
HETATM    6  C6  UNL     1      25.584  -0.118  52.961  1.00  0.00    -0.039 C 
HETATM    7  C7  UNL     1      24.414  -0.689  53.303  1.00  0.00     0.061 C 
HETATM    8  C8  UNL     1      22.997  -0.614  53.326  1.00  0.00     0.185 C 
HETATM    9  O1  UNL     1      22.391  -1.599  53.803  1.00  0.00    -0.287 OA
HETATM   10  C9  UNL     1      22.131   0.318  52.940  1.00  0.00     0.042 A 
HETATM   11  C10 UNL     1      21.720   1.382  52.122  1.00  0.00     0.146 A 
HETATM   12  C11 UNL     1      21.314   2.351  51.401  1.00  0.00     0.028 A 
HETATM   13  C12 UNL     1      21.508   3.183  50.395  1.00  0.00     0.136 A 
HETATM   14  N2  UNL     1      20.473   4.018  50.327  1.00  0.00    -0.224 NA
HETATM   15  C13 UNL     1      19.394   4.041  51.132  1.00  0.00     0.231 A 
HETATM   16  N3  UNL     1      19.216   3.183  52.155  1.00  0.00    -0.255 NA
HETATM   17  C14 UNL     1      20.219   2.289  52.309  1.00  0.00     0.147 A 
HETATM   18  S1  UNL     1      20.476   1.023  53.463  1.00  0.00    -0.132 SA
HETATM   19  N4  UNL     1      22.458   3.467  49.412  1.00  0.00    -0.341 N 
HETATM   20  C15 UNL     1      23.815   3.799  49.519  1.00  0.00     0.036 A 
HETATM   21  C16 UNL     1      24.686   4.690  48.934  1.00  0.00     0.053 A 
HETATM   22  C17 UNL     1      26.024   4.755  49.251  1.00  0.00     0.037 A 
HETATM   23 CL1  UNL     1      26.992   5.955  48.408  1.00  0.00    -0.084 Cl
HETATM   24  C18 UNL     1      26.647   3.935  50.194  1.00  0.00     0.036 A 
HETATM   25  C19 UNL     1      25.874   3.008  50.841  1.00  0.00    -0.026 A 
HETATM   26  C20 UNL     1      24.580   3.087  50.401  1.00  0.00     0.041 A 
HETATM   27  H12 UNL     1      22.325   3.493  48.383  1.00  0.00     0.167 HD
ENDROOT
BRANCH   1  28
HETATM   28  N1  UNL     1      27.582  -1.243  53.801  1.00  0.00     0.087 N 
HETATM   29  H1  UNL     1      27.409  -1.058  54.815  1.00  0.00     0.313 HD
HETATM   30  H2  UNL     1      27.032  -2.119  53.570  1.00  0.00     0.313 HD
ENDBRANCH   1  28
TORSDOF 2
ENDMDL
MODEL 3
REMARK VINA RESULT:      -9.9      3.376      5.403
REMARK  2 active torsions:
REMARK  status: ('A' for Active; 'I' for Inactive)
REMARK    1  A    between atoms: N1_1  and  C1_2 
REMARK    2  A    between atoms: C14_18  and  S1_19 
ROOT
HETATM    1  C1  UNL     1      18.403  -0.633  53.213  1.00  0.00     0.250 C 
HETATM    2  C2  UNL     1      18.099  -0.781  51.726  1.00  0.00     0.067 C 
HETATM    3  C3  UNL     1      18.393   0.512  51.018  1.00  0.00    -0.016 C 
HETATM    4  C4  UNL     1      19.528   0.925  51.485  1.00  0.00    -0.047 C 
HETATM    5  C5  UNL     1      20.378   0.397  52.563  1.00  0.00     0.075 C 
HETATM    6  C6  UNL     1      19.840  -0.593  53.466  1.00  0.00    -0.039 C 
HETATM    7  C7  UNL     1      20.875  -1.025  54.212  1.00  0.00     0.061 C 
HETATM    8  C8  UNL     1      22.271  -1.000  54.466  1.00  0.00     0.185 C 
HETATM    9  O1  UNL     1      22.675  -1.664  55.446  1.00  0.00    -0.287 OA
HETATM   10  C9  UNL     1      23.294  -0.405  53.858  1.00  0.00     0.042 A 
HETATM   11  C10 UNL     1      23.873   0.631  53.108  1.00  0.00     0.146 A 
HETATM   12  C11 UNL     1      24.432   1.551  52.427  1.00  0.00     0.028 A 
HETATM   13  C12 UNL     1      24.358   2.708  51.795  1.00  0.00     0.136 A 
HETATM   14  N2  UNL     1      25.545   2.975  51.256  1.00  0.00    -0.224 NA
HETATM   15  C13 UNL     1      26.657   2.218  51.321  1.00  0.00     0.231 A 
HETATM   16  N3  UNL     1      26.711   1.039  51.970  1.00  0.00    -0.255 NA
HETATM   17  C14 UNL     1      25.547   0.675  52.556  1.00  0.00     0.147 A 
HETATM   18  S1  UNL     1      25.097  -0.728  53.466  1.00  0.00    -0.132 SA
HETATM   19  N4  UNL     1      23.428   3.707  51.505  1.00  0.00    -0.341 N 
HETATM   20  C15 UNL     1      22.190   3.644  50.852  1.00  0.00     0.036 A 
HETATM   21  C16 UNL     1      21.500   4.388  49.920  1.00  0.00     0.053 A 
HETATM   22  C17 UNL     1      20.236   4.063  49.483  1.00  0.00     0.037 A 
HETATM   23 CL1  UNL     1      19.503   5.122  48.289  1.00  0.00    -0.084 Cl
HETATM   24  C18 UNL     1      19.514   2.953  49.927  1.00  0.00     0.036 A 
HETATM   25  C19 UNL     1      20.105   2.139  50.857  1.00  0.00    -0.026 A 
HETATM   26  C20 UNL     1      21.350   2.614  51.172  1.00  0.00     0.041 A 
HETATM   27  H12 UNL     1      23.491   4.721  51.720  1.00  0.00     0.167 HD
ENDROOT
BRANCH   1  28
HETATM   28  N1  UNL     1      17.707  -1.698  53.901  1.00  0.00     0.087 N 
HETATM   29  H1  UNL     1      17.854  -2.629  53.449  1.00  0.00     0.313 HD
HETATM   30  H2  UNL     1      18.160  -1.767  54.856  1.00  0.00     0.313 HD
ENDBRANCH   1  28
TORSDOF 2
ENDMDL
MODEL 4
REMARK VINA RESULT:      -9.6      1.529      5.442
REMARK  2 active torsions:
REMARK  status: ('A' for Active; 'I' for Inactive)
REMARK    1  A    between atoms: N1_1  and  C1_2 
REMARK    2  A    between atoms: C14_18  and  S1_19 
ROOT
HETATM    1  C1  UNL     1      25.045   4.748  50.300  1.00  0.00     0.250 C 
HETATM    2  C2  UNL     1      25.773   3.739  49.417  1.00  0.00     0.067 C 
HETATM    3  C3  UNL     1      26.367   2.655  50.272  1.00  0.00    -0.016 C 
HETATM    4  C4  UNL     1      25.453   2.335  51.132  1.00  0.00    -0.047 C 
HETATM    5  C5  UNL     1      24.128   2.919  51.394  1.00  0.00     0.075 C 
HETATM    6  C6  UNL     1      23.796   4.203  50.822  1.00  0.00    -0.039 C 
HETATM    7  C7  UNL     1      22.485   4.394  51.064  1.00  0.00     0.061 C 
HETATM    8  C8  UNL     1      21.262   3.875  51.563  1.00  0.00     0.185 C 
HETATM    9  O1  UNL     1      20.278   4.646  51.550  1.00  0.00    -0.287 OA
HETATM   10  C9  UNL     1      20.915   2.691  52.059  1.00  0.00     0.042 A 
HETATM   11  C10 UNL     1      21.177   1.497  52.749  1.00  0.00     0.146 A 
HETATM   12  C11 UNL     1      21.380   0.402  53.368  1.00  0.00     0.028 A 
HETATM   13  C12 UNL     1      22.187  -0.393  54.045  1.00  0.00     0.136 A 
HETATM   14  N2  UNL     1      21.533  -1.516  54.336  1.00  0.00    -0.224 NA
HETATM   15  C13 UNL     1      20.265  -1.826  54.009  1.00  0.00     0.231 A 
HETATM   16  N3  UNL     1      19.458  -1.000  53.316  1.00  0.00    -0.255 NA
HETATM   17  C14 UNL     1      20.031   0.175  52.970  1.00  0.00     0.147 A 
HETATM   18  S1  UNL     1      19.441   1.534  52.073  1.00  0.00    -0.132 SA
HETATM   19  N4  UNL     1      23.498  -0.427  54.522  1.00  0.00    -0.341 N 
HETATM   20  C15 UNL     1      24.721  -0.302  53.850  1.00  0.00     0.036 A 
HETATM   21  C16 UNL     1      25.957  -0.909  53.879  1.00  0.00     0.053 A 
HETATM   22  C17 UNL     1      27.006  -0.523  53.075  1.00  0.00     0.037 A 
HETATM   23 CL1  UNL     1      28.513  -1.407  53.242  1.00  0.00    -0.084 Cl
HETATM   24  C18 UNL     1      26.938   0.517  52.144  1.00  0.00     0.036 A 
HETATM   25  C19 UNL     1      25.752   1.192  52.029  1.00  0.00    -0.026 A 
HETATM   26  C20 UNL     1      24.831   0.675  52.900  1.00  0.00     0.041 A 
HETATM   27  H12 UNL     1      23.819  -0.566  55.500  1.00  0.00     0.167 HD
ENDROOT
BRANCH   1  28
HETATM   28  N1  UNL     1      24.888   5.960  49.526  1.00  0.00     0.087 N 
HETATM   29  H1  UNL     1      25.508   6.732  49.861  1.00  0.00     0.313 HD
HETATM   30  H2  UNL     1      25.227   5.723  48.550  1.00  0.00     0.313 HD
ENDBRANCH   1  28
TORSDOF 2
ENDMDL
MODEL 5
REMARK VINA RESULT:      -9.6      3.547      7.299
REMARK  2 active torsions:
REMARK  status: ('A' for Active; 'I' for Inactive)
REMARK    1  A    between atoms: N1_1  and  C1_2 
REMARK    2  A    between atoms: C14_18  and  S1_19 
ROOT
HETATM    1  C1  UNL     1      26.226   4.116  49.617  1.00  0.00     0.250 C 
HETATM    2  C2  UNL     1      25.311   5.275  49.999  1.00  0.00     0.067 C 
HETATM    3  C3  UNL     1      23.881   4.901  49.728  1.00  0.00    -0.016 C 
HETATM    4  C4  UNL     1      23.737   3.692  50.169  1.00  0.00    -0.047 C 
HETATM    5  C5  UNL     1      24.717   2.744  50.723  1.00  0.00     0.075 C 
HETATM    6  C6  UNL     1      26.127   3.016  50.572  1.00  0.00    -0.039 C 
HETATM    7  C7  UNL     1      26.770   2.103  51.324  1.00  0.00     0.061 C 
HETATM    8  C8  UNL     1      26.688   1.036  52.256  1.00  0.00     0.185 C 
HETATM    9  O1  UNL     1      27.768   0.499  52.590  1.00  0.00    -0.287 OA
HETATM   10  C9  UNL     1      25.671   0.459  52.888  1.00  0.00     0.042 A 
HETATM   11  C10 UNL     1      24.332   0.046  52.990  1.00  0.00     0.146 A 
HETATM   12  C11 UNL     1      23.125  -0.340  53.119  1.00  0.00     0.028 A 
HETATM   13  C12 UNL     1      21.907  -0.457  52.625  1.00  0.00     0.136 A 
HETATM   14  N2  UNL     1      21.129  -1.028  53.543  1.00  0.00    -0.224 NA
HETATM   15  C13 UNL     1      21.488  -1.429  54.777  1.00  0.00     0.231 A 
HETATM   16  N3  UNL     1      22.738  -1.299  55.262  1.00  0.00    -0.255 NA
HETATM   17  C14 UNL     1      23.610  -0.726  54.401  1.00  0.00     0.147 A 
HETATM   18  S1  UNL     1      25.287  -0.320  54.548  1.00  0.00    -0.132 SA
HETATM   19  N4  UNL     1      21.190  -0.153  51.467  1.00  0.00    -0.341 N 
HETATM   20  C15 UNL     1      20.983   1.069  50.814  1.00  0.00     0.036 A 
HETATM   21  C16 UNL     1      19.936   1.724  50.205  1.00  0.00     0.053 A 
HETATM   22  C17 UNL     1      20.063   2.958  49.606  1.00  0.00     0.037 A 
HETATM   23 CL1  UNL     1      18.623   3.650  48.878  1.00  0.00    -0.084 Cl
HETATM   24  C18 UNL     1      21.257   3.681  49.549  1.00  0.00     0.036 A 
HETATM   25  C19 UNL     1      22.367   3.123  50.125  1.00  0.00    -0.026 A 
HETATM   26  C20 UNL     1      22.054   1.906  50.667  1.00  0.00     0.041 A 
HETATM   27  H12 UNL     1      20.652  -0.800  50.859  1.00  0.00     0.167 HD
ENDROOT
BRANCH   1  28
HETATM   28  N1  UNL     1      27.560   4.656  49.467  1.00  0.00     0.087 N 
HETATM   29  H1  UNL     1      27.886   4.645  48.473  1.00  0.00     0.313 HD
HETATM   30  H2  UNL     1      27.488   5.679  49.734  1.00  0.00     0.313 HD
ENDBRANCH   1  28
TORSDOF 2
ENDMDL
MODEL 6
REMARK VINA RESULT:      -9.5      3.569      6.447
REMARK  2 active torsions:
REMARK  status: ('A' for Active; 'I' for Inactive)
REMARK    1  A    between atoms: N1_1  and  C1_2 
REMARK    2  A    between atoms: C14_18  and  S1_19 
ROOT
HETATM    1  C1  UNL     1      22.329   3.759  48.652  1.00  0.00     0.250 C 
HETATM    2  C2  UNL     1      21.259   4.297  49.597  1.00  0.00     0.067 C 
HETATM    3  C3  UNL     1      20.655   3.163  50.375  1.00  0.00    -0.016 C 
HETATM    4  C4  UNL     1      21.645   2.420  50.755  1.00  0.00    -0.047 C 
HETATM    5  C5  UNL     1      23.082   2.499  50.449  1.00  0.00     0.075 C 
HETATM    6  C6  UNL     1      23.531   3.355  49.376  1.00  0.00    -0.039 C 
HETATM    7  C7  UNL     1      24.875   3.375  49.448  1.00  0.00     0.061 C 
HETATM    8  C8  UNL     1      26.051   2.993  50.144  1.00  0.00     0.185 C 
HETATM    9  O1  UNL     1      27.142   3.318  49.624  1.00  0.00    -0.287 OA
HETATM   10  C9  UNL     1      26.260   2.343  51.284  1.00  0.00     0.042 A 
HETATM   11  C10 UNL     1      25.920   1.400  52.268  1.00  0.00     0.146 A 
HETATM   12  C11 UNL     1      25.641   0.557  53.182  1.00  0.00     0.028 A 
HETATM   13  C12 UNL     1      24.851  -0.385  53.662  1.00  0.00     0.136 A 
HETATM   14  N2  UNL     1      25.324  -0.775  54.844  1.00  0.00    -0.224 NA
HETATM   15  C13 UNL     1      26.418  -0.310  55.476  1.00  0.00     0.231 A 
HETATM   16  N3  UNL     1      27.210   0.654  54.969  1.00  0.00    -0.255 NA
HETATM   17  C14 UNL     1      26.813   1.121  53.762  1.00  0.00     0.147 A 
HETATM   18  S1  UNL     1      27.458   2.348  52.725  1.00  0.00    -0.132 SA
HETATM   19  N4  UNL     1      23.682  -1.070  53.328  1.00  0.00    -0.341 N 
HETATM   20  C15 UNL     1      22.396  -0.597  53.038  1.00  0.00     0.036 A 
HETATM   21  C16 UNL     1      21.098  -0.947  53.341  1.00  0.00     0.053 A 
HETATM   22  C17 UNL     1      20.002  -0.268  52.859  1.00  0.00     0.037 A 
HETATM   23 CL1  UNL     1      18.419  -0.850  53.348  1.00  0.00    -0.084 Cl
HETATM   24  C18 UNL     1      20.077   0.844  52.017  1.00  0.00     0.036 A 
HETATM   25  C19 UNL     1      21.321   1.282  51.650  1.00  0.00    -0.026 A 
HETATM   26  C20 UNL     1      22.284   0.492  52.219  1.00  0.00     0.041 A 
HETATM   27  H12 UNL     1      23.545  -2.095  53.238  1.00  0.00     0.167 HD
ENDROOT
BRANCH   1  28
HETATM   28  N1  UNL     1      22.554   4.768  47.641  1.00  0.00     0.087 N 
HETATM   29  H1  UNL     1      21.667   5.090  47.193  1.00  0.00     0.313 HD
HETATM   30  H2  UNL     1      22.938   5.611  48.157  1.00  0.00     0.313 HD
ENDBRANCH   1  28
TORSDOF 2
ENDMDL
MODEL 7
REMARK VINA RESULT:      -8.8      2.323      5.625
REMARK  2 active torsions:
REMARK  status: ('A' for Active; 'I' for Inactive)
REMARK    1  A    between atoms: N1_1  and  C1_2 
REMARK    2  A    between atoms: C14_18  and  S1_19 
ROOT
HETATM    1  C1  UNL     1      25.735   3.855  50.501  1.00  0.00     0.250 C 
HETATM    2  C2  UNL     1      26.421   2.495  50.422  1.00  0.00     0.067 C 
HETATM    3  C3  UNL     1      25.976   1.636  51.572  1.00  0.00    -0.016 C 
HETATM    4  C4  UNL     1      24.694   1.794  51.662  1.00  0.00    -0.047 C 
HETATM    5  C5  UNL     1      23.778   2.687  50.934  1.00  0.00     0.075 C 
HETATM    6  C6  UNL     1      24.322   3.767  50.145  1.00  0.00    -0.039 C 
HETATM    7  C7  UNL     1      23.289   4.286  49.455  1.00  0.00     0.061 C 
HETATM    8  C8  UNL     1      21.919   4.209  49.096  1.00  0.00     0.185 C 
HETATM    9  O1  UNL     1      21.479   5.120  48.361  1.00  0.00    -0.287 OA
HETATM   10  C9  UNL     1      20.955   3.336  49.376  1.00  0.00     0.042 A 
HETATM   11  C10 UNL     1      20.323   2.392  50.201  1.00  0.00     0.146 A 
HETATM   12  C11 UNL     1      19.723   1.528  50.921  1.00  0.00     0.028 A 
HETATM   13  C12 UNL     1      19.640   0.839  52.043  1.00  0.00     0.136 A 
HETATM   14  N2  UNL     1      18.593   0.021  51.964  1.00  0.00    -0.224 NA
HETATM   15  C13 UNL     1      17.741  -0.111  50.930  1.00  0.00     0.231 A 
HETATM   16  N3  UNL     1      17.845   0.602  49.791  1.00  0.00    -0.255 NA
HETATM   17  C14 UNL     1      18.884   1.468  49.772  1.00  0.00     0.147 A 
HETATM   18  S1  UNL     1      19.454   2.567  48.561  1.00  0.00    -0.132 SA
HETATM   19  N4  UNL     1      20.313   0.690  53.256  1.00  0.00    -0.341 N 
HETATM   20  C15 UNL     1      21.644   0.347  53.529  1.00  0.00     0.036 A 
HETATM   21  C16 UNL     1      22.318  -0.457  54.421  1.00  0.00     0.053 A 
HETATM   22  C17 UNL     1      23.690  -0.564  54.452  1.00  0.00     0.037 A 
HETATM   23 CL1  UNL     1      24.385  -1.639  55.655  1.00  0.00    -0.084 Cl
HETATM   24  C18 UNL     1      24.550   0.123  53.592  1.00  0.00     0.036 A 
HETATM   25  C19 UNL     1      23.987   0.954  52.660  1.00  0.00    -0.026 A 
HETATM   26  C20 UNL     1      22.623   0.935  52.776  1.00  0.00     0.041 A 
HETATM   27  H12 UNL     1      19.934   0.803  54.216  1.00  0.00     0.167 HD
ENDROOT
BRANCH   1  28
HETATM   28  N1  UNL     1      26.500   4.769  49.680  1.00  0.00     0.087 N 
HETATM   29  H1  UNL     1      27.530   4.678  49.834  1.00  0.00     0.313 HD
HETATM   30  H2  UNL     1      26.331   4.465  48.679  1.00  0.00     0.313 HD
ENDBRANCH   1  28
TORSDOF 2
ENDMDL
MODEL 8
REMARK VINA RESULT:      -8.6      2.143      2.751
REMARK  2 active torsions:
REMARK  status: ('A' for Active; 'I' for Inactive)
REMARK    1  A    between atoms: N1_1  and  C1_2 
REMARK    2  A    between atoms: C14_18  and  S1_19 
ROOT
HETATM    1  C1  UNL     1      19.339   0.234  50.862  1.00  0.00     0.250 C 
HETATM    2  C2  UNL     1      19.380   0.565  52.351  1.00  0.00     0.067 C 
HETATM    3  C3  UNL     1      20.775   0.368  52.874  1.00  0.00    -0.016 C 
HETATM    4  C4  UNL     1      21.566   0.895  51.994  1.00  0.00    -0.047 C 
HETATM    5  C5  UNL     1      21.287   1.480  50.673  1.00  0.00     0.075 C 
HETATM    6  C6  UNL     1      19.996   1.264  50.064  1.00  0.00    -0.039 C 
HETATM    7  C7  UNL     1      19.957   2.055  48.975  1.00  0.00     0.061 C 
HETATM    8  C8  UNL     1      20.582   3.060  48.192  1.00  0.00     0.185 C 
HETATM    9  O1  UNL     1      19.998   3.394  47.138  1.00  0.00    -0.287 OA
HETATM   10  C9  UNL     1      21.700   3.763  48.342  1.00  0.00     0.042 A 
HETATM   11  C10 UNL     1      23.018   3.937  48.795  1.00  0.00     0.146 A 
HETATM   12  C11 UNL     1      24.213   4.132  49.193  1.00  0.00     0.028 A 
HETATM   13  C12 UNL     1      25.301   3.688  49.793  1.00  0.00     0.136 A 
HETATM   14  N2  UNL     1      26.203   4.667  49.819  1.00  0.00    -0.224 NA
HETATM   15  C13 UNL     1      26.063   5.913  49.329  1.00  0.00     0.231 A 
HETATM   16  N3  UNL     1      24.942   6.347  48.721  1.00  0.00    -0.255 NA
HETATM   17  C14 UNL     1      23.959   5.420  48.643  1.00  0.00     0.147 A 
HETATM   18  S1  UNL     1      22.354   5.484  47.996  1.00  0.00    -0.132 SA
HETATM   19  N4  UNL     1      25.781   2.535  50.417  1.00  0.00    -0.341 N 
HETATM   20  C15 UNL     1      25.282   1.808  51.505  1.00  0.00     0.036 A 
HETATM   21  C16 UNL     1      25.789   1.190  52.626  1.00  0.00     0.053 A 
HETATM   22  C17 UNL     1      25.008   0.504  53.529  1.00  0.00     0.037 A 
HETATM   23 CL1  UNL     1      25.821  -0.222  54.906  1.00  0.00    -0.084 Cl
HETATM   24  C18 UNL     1      23.624   0.359  53.414  1.00  0.00     0.036 A 
HETATM   25  C19 UNL     1      23.010   0.935  52.334  1.00  0.00    -0.026 A 
HETATM   26  C20 UNL     1      23.936   1.569  51.550  1.00  0.00     0.041 A 
HETATM   27  H12 UNL     1      26.635   1.991  50.185  1.00  0.00     0.167 HD
ENDROOT
BRANCH   1  28
HETATM   28  N1  UNL     1      17.954   0.003  50.513  1.00  0.00     0.087 N 
HETATM   29  H1  UNL     1      17.640   0.595  49.711  1.00  0.00     0.313 HD
HETATM   30  H2  UNL     1      17.908  -0.998  50.168  1.00  0.00     0.313 HD
ENDBRANCH   1  28
TORSDOF 2
ENDMDL
MODEL 9
REMARK VINA RESULT:      -8.5      3.493      5.455
REMARK  2 active torsions:
REMARK  status: ('A' for Active; 'I' for Inactive)
REMARK    1  A    between atoms: N1_1  and  C1_2 
REMARK    2  A    between atoms: C14_18  and  S1_19 
ROOT
HETATM    1  C1  UNL     1      25.190   1.391  53.804  1.00  0.00     0.250 C 
HETATM    2  C2  UNL     1      25.074  -0.103  53.517  1.00  0.00     0.067 C 
HETATM    3  C3  UNL     1      23.637  -0.528  53.620  1.00  0.00    -0.016 C 
HETATM    4  C4  UNL     1      22.949   0.381  53.005  1.00  0.00    -0.047 C 
HETATM    5  C5  UNL     1      23.360   1.660  52.404  1.00  0.00     0.075 C 
HETATM    6  C6  UNL     1      24.669   2.193  52.702  1.00  0.00    -0.039 C 
HETATM    7  C7  UNL     1      24.841   3.248  51.883  1.00  0.00     0.061 C 
HETATM    8  C8  UNL     1      24.349   4.033  50.808  1.00  0.00     0.185 C 
HETATM    9  O1  UNL     1      25.026   5.035  50.489  1.00  0.00    -0.287 OA
HETATM   10  C9  UNL     1      23.280   3.930  50.024  1.00  0.00     0.042 A 
HETATM   11  C10 UNL     1      21.952   3.557  49.761  1.00  0.00     0.146 A 
HETATM   12  C11 UNL     1      20.751   3.230  49.486  1.00  0.00     0.028 A 
HETATM   13  C12 UNL     1      19.594   2.718  49.861  1.00  0.00     0.136 A 
HETATM   14  N2  UNL     1      18.771   2.715  48.814  1.00  0.00    -0.224 NA
HETATM   15  C13 UNL     1      19.038   3.150  47.569  1.00  0.00     0.231 A 
HETATM   16  N3  UNL     1      20.227   3.669  47.206  1.00  0.00    -0.255 NA
HETATM   17  C14 UNL     1      21.139   3.716  48.205  1.00  0.00     0.147 A 
HETATM   18  S1  UNL     1      22.784   4.256  48.247  1.00  0.00    -0.132 SA
HETATM   19  N4  UNL     1      18.987   2.168  50.990  1.00  0.00    -0.341 N 
HETATM   20  C15 UNL     1      19.355   1.077  51.788  1.00  0.00     0.036 A 
HETATM   21  C16 UNL     1      18.728   0.013  52.398  1.00  0.00     0.053 A 
HETATM   22  C17 UNL     1      19.392  -0.913  53.170  1.00  0.00     0.037 A 
HETATM   23 CL1  UNL     1      18.436  -2.208  53.872  1.00  0.00    -0.084 Cl
HETATM   24  C18 UNL     1      20.766  -0.883  53.421  1.00  0.00     0.036 A 
HETATM   25  C19 UNL     1      21.493   0.134  52.862  1.00  0.00    -0.026 A 
HETATM   26  C20 UNL     1      20.673   0.953  52.134  1.00  0.00     0.041 A 
HETATM   27  H12 UNL     1      18.112   2.473  51.458  1.00  0.00     0.167 HD
ENDROOT
BRANCH   1  28
HETATM   28  N1  UNL     1      26.574   1.658  54.132  1.00  0.00     0.087 N 
HETATM   29  H1  UNL     1      26.723   1.788  55.159  1.00  0.00     0.313 HD
HETATM   30  H2  UNL     1      27.105   0.777  53.875  1.00  0.00     0.313 HD
ENDBRANCH   1  28
TORSDOF 2
ENDMDL
