MODEL 1
REMARK VINA RESULT:      -8.7      0.000      0.000
REMARK  2 active torsions:
REMARK  status: ('A' for Active; 'I' for Inactive)
REMARK    1  A    between atoms: C2_3  and  C3_4 
REMARK    2  A    between atoms: C13_18  and  O3_19 
ROOT
HETATM    1  C3  UNL     1      26.992   1.104  53.831  1.00  0.00     0.024 C 
HETATM    2  C4  UNL     1      25.689   0.815  53.653  1.00  0.00    -0.049 C 
HETATM    3  C5  UNL     1      25.638  -0.392  54.481  1.00  0.00     0.158 C 
HETATM    4  N2  UNL     1      24.335  -0.990  54.624  1.00  0.00    -0.352 N 
HETATM    5  C6  UNL     1      22.982  -0.610  54.425  1.00  0.00     0.273 C 
HETATM    6  O1  UNL     1      22.187  -1.198  55.231  1.00  0.00    -0.266 OA
HETATM    7  C7  UNL     1      22.282   0.281  53.534  1.00  0.00     0.160 A 
HETATM    8  N3  UNL     1      20.929   0.132  53.443  1.00  0.00    -0.228 NA
HETATM    9  C8  UNL     1      20.531   1.073  52.557  1.00  0.00     0.259 A 
HETATM   10  O2  UNL     1      21.586   1.741  52.147  1.00  0.00    -0.301 OA
HETATM   11  C9  UNL     1      22.675   1.306  52.704  1.00  0.00     0.118 A 
HETATM   12  C10 UNL     1      23.930   1.951  52.347  1.00  0.00    -0.010 C 
HETATM   13  C11 UNL     1      23.367   2.670  51.391  1.00  0.00     0.014 C 
HETATM   14  C12 UNL     1      24.008   3.650  50.487  1.00  0.00     0.037 C 
HETATM   15  C13 UNL     1      25.296   3.648  50.105  1.00  0.00     0.068 C 
HETATM   16  C15 UNL     1      26.344   2.680  50.496  1.00  0.00     0.034 C 
HETATM   17  C16 UNL     1      26.297   1.998  51.629  1.00  0.00    -0.010 C 
HETATM   18  C17 UNL     1      25.335   1.945  52.758  1.00  0.00     0.074 C 
HETATM   19  H8  UNL     1      24.416  -1.971  54.968  1.00  0.00     0.163 HD
ENDROOT
BRANCH   1  20
HETATM   20  C2  UNL     1      27.765   0.226  54.671  1.00  0.00     0.273 C 
HETATM   21  N1  UNL     1      28.808  -0.496  54.741  1.00  0.00    -0.425 NA
HETATM   22  C1  UNL     1      29.793  -0.712  53.728  1.00  0.00     0.132 C 
ENDBRANCH   1  20
BRANCH  15  23
HETATM   23  O3  UNL     1      25.696   4.654  49.254  1.00  0.00    -0.356 OA
HETATM   24  C14 UNL     1      27.067   4.727  48.909  1.00  0.00     0.210 C 
ENDBRANCH  15  23
TORSDOF 2
ENDMDL
MODEL 2
REMARK VINA RESULT:      -8.6      1.041      1.090
REMARK  2 active torsions:
REMARK  status: ('A' for Active; 'I' for Inactive)
REMARK    1  A    between atoms: C2_3  and  C3_4 
REMARK    2  A    between atoms: C13_18  and  O3_19 
ROOT
HETATM    1  C3  UNL     1      26.882   0.662  52.862  1.00  0.00     0.024 C 
HETATM    2  C4  UNL     1      25.543   0.792  52.797  1.00  0.00    -0.049 C 
HETATM    3  C5  UNL     1      25.189  -0.511  53.366  1.00  0.00     0.158 C 
HETATM    4  N2  UNL     1      23.780  -0.744  53.551  1.00  0.00    -0.352 N 
HETATM    5  C6  UNL     1      22.591   0.029  53.608  1.00  0.00     0.273 C 
HETATM    6  O1  UNL     1      21.710  -0.487  54.374  1.00  0.00    -0.266 OA
HETATM    7  C7  UNL     1      22.130   1.257  53.011  1.00  0.00     0.160 A 
HETATM    8  N3  UNL     1      20.791   1.511  53.066  1.00  0.00    -0.228 NA
HETATM    9  C8  UNL     1      20.634   2.703  52.446  1.00  0.00     0.259 A 
HETATM   10  O2  UNL     1      21.811   3.130  52.047  1.00  0.00    -0.301 OA
HETATM   11  C9  UNL     1      22.755   2.297  52.362  1.00  0.00     0.118 A 
HETATM   12  C10 UNL     1      24.120   2.636  51.984  1.00  0.00    -0.010 C 
HETATM   13  C11 UNL     1      23.735   3.681  51.271  1.00  0.00     0.014 C 
HETATM   14  C12 UNL     1      24.578   4.627  50.509  1.00  0.00     0.037 C 
HETATM   15  C13 UNL     1      25.780   4.359  49.972  1.00  0.00     0.068 C 
HETATM   16  C15 UNL     1      26.518   3.077  50.023  1.00  0.00     0.034 C 
HETATM   17  C16 UNL     1      26.343   2.193  50.993  1.00  0.00    -0.010 C 
HETATM   18  C17 UNL     1      25.483   2.149  52.201  1.00  0.00     0.074 C 
HETATM   19  H8  UNL     1      23.588  -1.762  53.678  1.00  0.00     0.163 HD
ENDROOT
BRANCH   1  20
HETATM   20  C2  UNL     1      27.412  -0.563  53.402  1.00  0.00     0.273 C 
HETATM   21  N1  UNL     1      28.471  -1.192  53.713  1.00  0.00    -0.425 NA
HETATM   22  C1  UNL     1      29.823  -0.746  53.582  1.00  0.00     0.132 C 
ENDBRANCH   1  20
BRANCH  15  23
HETATM   23  O3  UNL     1      26.406   5.384  49.297  1.00  0.00    -0.356 OA
HETATM   24  C14 UNL     1      27.598   5.087  48.594  1.00  0.00     0.210 C 
ENDBRANCH  15  23
TORSDOF 2
ENDMDL
MODEL 3
REMARK VINA RESULT:      -8.6      2.625      4.939
REMARK  2 active torsions:
REMARK  status: ('A' for Active; 'I' for Inactive)
REMARK    1  A    between atoms: C2_3  and  C3_4 
REMARK    2  A    between atoms: C13_18  and  O3_19 
ROOT
HETATM    1  C3  UNL     1      26.092   3.072  50.397  1.00  0.00     0.024 C 
HETATM    2  C4  UNL     1      25.009   2.716  51.113  1.00  0.00    -0.049 C 
HETATM    3  C5  UNL     1      24.156   3.854  50.764  1.00  0.00     0.158 C 
HETATM    4  N2  UNL     1      22.816   3.808  51.289  1.00  0.00    -0.352 N 
HETATM    5  C6  UNL     1      21.941   2.835  51.839  1.00  0.00     0.273 C 
HETATM    6  O1  UNL     1      20.714   3.087  51.593  1.00  0.00    -0.266 OA
HETATM    7  C7  UNL     1      22.096   1.628  52.612  1.00  0.00     0.160 A 
HETATM    8  N3  UNL     1      20.983   1.136  53.226  1.00  0.00    -0.228 NA
HETATM    9  C8  UNL     1      21.400   0.021  53.869  1.00  0.00     0.259 A 
HETATM   10  O2  UNL     1      22.686  -0.137  53.649  1.00  0.00    -0.301 OA
HETATM   11  C9  UNL     1      23.163   0.805  52.893  1.00  0.00     0.118 A 
HETATM   12  C10 UNL     1      24.579   0.763  52.560  1.00  0.00    -0.010 C 
HETATM   13  C11 UNL     1      24.815  -0.236  53.392  1.00  0.00     0.014 C 
HETATM   14  C12 UNL     1      26.101  -0.916  53.663  1.00  0.00     0.037 C 
HETATM   15  C13 UNL     1      27.323  -0.374  53.535  1.00  0.00     0.068 C 
HETATM   16  C15 UNL     1      27.651   1.002  53.101  1.00  0.00     0.034 C 
HETATM   17  C16 UNL     1      26.851   1.714  52.323  1.00  0.00    -0.010 C 
HETATM   18  C17 UNL     1      25.534   1.454  51.691  1.00  0.00     0.074 C 
HETATM   19  H8  UNL     1      22.371   4.752  51.251  1.00  0.00     0.163 HD
ENDROOT
BRANCH   1  20
HETATM   20  C2  UNL     1      26.024   4.295  49.641  1.00  0.00     0.273 C 
HETATM   21  N1  UNL     1      26.674   5.106  48.911  1.00  0.00    -0.425 NA
HETATM   22  C1  UNL     1      28.046   5.021  48.516  1.00  0.00     0.132 C 
ENDBRANCH   1  20
BRANCH  15  23
HETATM   23  O3  UNL     1      28.398  -1.179  53.838  1.00  0.00    -0.356 OA
HETATM   24  C14 UNL     1      29.693  -0.711  53.509  1.00  0.00     0.210 C 
ENDBRANCH  15  23
TORSDOF 2
ENDMDL
MODEL 4
REMARK VINA RESULT:      -8.6      2.671      5.970
REMARK  2 active torsions:
REMARK  status: ('A' for Active; 'I' for Inactive)
REMARK    1  A    between atoms: C2_3  and  C3_4 
REMARK    2  A    between atoms: C13_18  and  O3_19 
ROOT
HETATM    1  C3  UNL     1      22.754   0.641  53.318  1.00  0.00     0.024 C 
HETATM    2  C4  UNL     1      23.359   1.337  52.337  1.00  0.00    -0.049 C 
HETATM    3  C5  UNL     1      22.161   1.679  51.567  1.00  0.00     0.158 C 
HETATM    4  N2  UNL     1      22.380   2.530  50.426  1.00  0.00    -0.352 N 
HETATM    5  C6  UNL     1      23.396   3.398  49.948  1.00  0.00     0.273 C 
HETATM    6  O1  UNL     1      22.928   4.369  49.265  1.00  0.00    -0.266 OA
HETATM    7  C7  UNL     1      24.834   3.452  50.043  1.00  0.00     0.160 A 
HETATM    8  N3  UNL     1      25.484   4.276  49.171  1.00  0.00    -0.228 NA
HETATM    9  C8  UNL     1      26.795   4.140  49.471  1.00  0.00     0.259 A 
HETATM   10  O2  UNL     1      26.916   3.286  50.462  1.00  0.00    -0.301 OA
HETATM   11  C9  UNL     1      25.762   2.837  50.852  1.00  0.00     0.118 A 
HETATM   12  C10 UNL     1      25.735   1.879  51.947  1.00  0.00    -0.010 C 
HETATM   13  C11 UNL     1      27.051   1.755  51.962  1.00  0.00     0.014 C 
HETATM   14  C12 UNL     1      27.880   0.909  52.848  1.00  0.00     0.037 C 
HETATM   15  C13 UNL     1      27.493  -0.233  53.437  1.00  0.00     0.068 C 
HETATM   16  C15 UNL     1      26.172  -0.891  53.334  1.00  0.00     0.034 C 
HETATM   17  C16 UNL     1      25.061  -0.222  53.067  1.00  0.00    -0.010 C 
HETATM   18  C17 UNL     1      24.760   1.208  52.809  1.00  0.00     0.074 C 
HETATM   19  H8  UNL     1      21.563   2.496  49.778  1.00  0.00     0.163 HD
ENDROOT
BRANCH   1  20
HETATM   20  C2  UNL     1      21.322   0.503  53.258  1.00  0.00     0.273 C 
HETATM   21  N1  UNL     1      20.336  -0.251  53.529  1.00  0.00    -0.425 NA
HETATM   22  C1  UNL     1      20.364  -1.542  54.142  1.00  0.00     0.132 C 
ENDBRANCH   1  20
BRANCH  15  23
HETATM   23  O3  UNL     1      28.421  -0.873  54.229  1.00  0.00    -0.356 OA
HETATM   24  C14 UNL     1      29.760  -0.927  53.773  1.00  0.00     0.210 C 
ENDBRANCH  15  23
TORSDOF 2
ENDMDL
MODEL 5
REMARK VINA RESULT:      -8.5      1.688      4.866
REMARK  2 active torsions:
REMARK  status: ('A' for Active; 'I' for Inactive)
REMARK    1  A    between atoms: C2_3  and  C3_4 
REMARK    2  A    between atoms: C13_18  and  O3_19 
ROOT
HETATM    1  C3  UNL     1      22.172   0.822  51.541  1.00  0.00     0.024 C 
HETATM    2  C4  UNL     1      23.255   0.678  52.328  1.00  0.00    -0.049 C 
HETATM    3  C5  UNL     1      22.615  -0.071  53.412  1.00  0.00     0.158 C 
HETATM    4  N2  UNL     1      23.495  -0.509  54.465  1.00  0.00    -0.352 N 
HETATM    5  C6  UNL     1      24.890  -0.682  54.658  1.00  0.00     0.273 C 
HETATM    6  O1  UNL     1      25.157  -1.631  55.468  1.00  0.00    -0.266 OA
HETATM    7  C7  UNL     1      26.086  -0.047  54.163  1.00  0.00     0.160 A 
HETATM    8  N3  UNL     1      27.246  -0.295  54.837  1.00  0.00    -0.228 NA
HETATM    9  C8  UNL     1      28.193   0.409  54.176  1.00  0.00     0.259 A 
HETATM   10  O2  UNL     1      27.628   1.038  53.170  1.00  0.00    -0.301 OA
HETATM   11  C9  UNL     1      26.353   0.800  53.112  1.00  0.00     0.118 A 
HETATM   12  C10 UNL     1      25.588   1.430  52.045  1.00  0.00    -0.010 C 
HETATM   13  C11 UNL     1      26.611   2.172  51.658  1.00  0.00     0.014 C 
HETATM   14  C12 UNL     1      26.660   3.156  50.554  1.00  0.00     0.037 C 
HETATM   15  C13 UNL     1      25.619   3.853  50.070  1.00  0.00     0.068 C 
HETATM   16  C15 UNL     1      24.212   3.794  50.526  1.00  0.00     0.034 C 
HETATM   17  C16 UNL     1      23.698   2.723  51.111  1.00  0.00    -0.010 C 
HETATM   18  C17 UNL     1      24.239   1.392  51.477  1.00  0.00     0.074 C 
HETATM   19  H8  UNL     1      22.951  -0.769  55.317  1.00  0.00     0.163 HD
ENDROOT
BRANCH   1  20
HETATM   20  C2  UNL     1      20.930   0.255  51.999  1.00  0.00     0.273 C 
HETATM   21  N1  UNL     1      19.687   0.141  51.762  1.00  0.00    -0.425 NA
HETATM   22  C1  UNL     1      18.950   0.696  50.670  1.00  0.00     0.132 C 
ENDBRANCH   1  20
BRANCH  15  23
HETATM   23  O3  UNL     1      25.877   4.723  49.034  1.00  0.00    -0.356 OA
HETATM   24  C14 UNL     1      27.228   5.028  48.744  1.00  0.00     0.210 C 
ENDBRANCH  15  23
TORSDOF 2
ENDMDL
MODEL 6
REMARK VINA RESULT:      -8.5      2.491      6.629
REMARK  2 active torsions:
REMARK  status: ('A' for Active; 'I' for Inactive)
REMARK    1  A    between atoms: C2_3  and  C3_4 
REMARK    2  A    between atoms: C13_18  and  O3_19 
ROOT
HETATM    1  C3  UNL     1      23.275   2.795  51.692  1.00  0.00     0.024 C 
HETATM    2  C4  UNL     1      24.416   2.250  52.157  1.00  0.00    -0.049 C 
HETATM    3  C5  UNL     1      25.352   3.010  51.326  1.00  0.00     0.158 C 
HETATM    4  N2  UNL     1      26.748   2.769  51.587  1.00  0.00    -0.352 N 
HETATM    5  C6  UNL     1      27.536   2.203  52.623  1.00  0.00     0.273 C 
HETATM    6  O1  UNL     1      28.690   2.741  52.708  1.00  0.00    -0.266 OA
HETATM    7  C7  UNL     1      27.354   1.165  53.607  1.00  0.00     0.160 A 
HETATM    8  N3  UNL     1      28.473   0.693  54.227  1.00  0.00    -0.228 NA
HETATM    9  C8  UNL     1      28.027  -0.253  55.084  1.00  0.00     0.259 A 
HETATM   10  O2  UNL     1      26.720  -0.337  54.978  1.00  0.00    -0.301 OA
HETATM   11  C9  UNL     1      26.256   0.498  54.099  1.00  0.00     0.118 A 
HETATM   12  C10 UNL     1      24.818   0.521  53.871  1.00  0.00    -0.010 C 
HETATM   13  C11 UNL     1      24.612  -0.543  54.628  1.00  0.00     0.014 C 
HETATM   14  C12 UNL     1      23.329  -1.213  54.934  1.00  0.00     0.037 C 
HETATM   15  C13 UNL     1      22.234  -1.215  54.156  1.00  0.00     0.068 C 
HETATM   16  C15 UNL     1      22.070  -0.561  52.839  1.00  0.00     0.034 C 
HETATM   17  C16 UNL     1      22.773   0.502  52.479  1.00  0.00    -0.010 C 
HETATM   18  C17 UNL     1      23.824   1.312  53.143  1.00  0.00     0.074 C 
HETATM   19  H8  UNL     1      27.336   3.105  50.793  1.00  0.00     0.163 HD
ENDROOT
BRANCH   1  20
HETATM   20  C2  UNL     1      23.381   3.803  50.670  1.00  0.00     0.273 C 
HETATM   21  N1  UNL     1      22.794   4.776  50.102  1.00  0.00    -0.425 NA
HETATM   22  C1  UNL     1      21.496   5.303  50.389  1.00  0.00     0.132 C 
ENDBRANCH   1  20
BRANCH  15  23
HETATM   23  O3  UNL     1      21.136  -1.902  54.626  1.00  0.00    -0.356 OA
HETATM   24  C14 UNL     1      19.881  -1.636  54.028  1.00  0.00     0.210 C 
ENDBRANCH  15  23
TORSDOF 2
ENDMDL
MODEL 7
REMARK VINA RESULT:      -8.2      2.161      5.041
REMARK  2 active torsions:
REMARK  status: ('A' for Active; 'I' for Inactive)
REMARK    1  A    between atoms: C2_3  and  C3_4 
REMARK    2  A    between atoms: C13_18  and  O3_19 
ROOT
HETATM    1  C3  UNL     1      26.632  -0.258  53.229  1.00  0.00     0.024 C 
HETATM    2  C4  UNL     1      26.085   0.759  52.536  1.00  0.00    -0.049 C 
HETATM    3  C5  UNL     1      27.288   1.583  52.407  1.00  0.00     0.158 C 
HETATM    4  N2  UNL     1      27.138   2.781  51.622  1.00  0.00    -0.352 N 
HETATM    5  C6  UNL     1      26.221   3.299  50.670  1.00  0.00     0.273 C 
HETATM    6  O1  UNL     1      26.782   4.068  49.820  1.00  0.00    -0.266 OA
HETATM    7  C7  UNL     1      24.806   3.172  50.426  1.00  0.00     0.160 A 
HETATM    8  N3  UNL     1      24.234   4.089  49.594  1.00  0.00    -0.228 NA
HETATM    9  C8  UNL     1      22.927   3.746  49.539  1.00  0.00     0.259 A 
HETATM   10  O2  UNL     1      22.735   2.688  50.295  1.00  0.00    -0.301 OA
HETATM   11  C9  UNL     1      23.837   2.295  50.857  1.00  0.00     0.118 A 
HETATM   12  C10 UNL     1      23.783   1.129  51.727  1.00  0.00    -0.010 C 
HETATM   13  C11 UNL     1      22.463   1.071  51.680  1.00  0.00     0.014 C 
HETATM   14  C12 UNL     1      21.566   0.101  52.346  1.00  0.00     0.037 C 
HETATM   15  C13 UNL     1      21.829  -0.566  53.482  1.00  0.00     0.068 C 
HETATM   16  C15 UNL     1      23.053  -0.481  54.309  1.00  0.00     0.034 C 
HETATM   17  C16 UNL     1      24.228  -0.134  53.807  1.00  0.00    -0.010 C 
HETATM   18  C17 UNL     1      24.696   0.242  52.451  1.00  0.00     0.074 C 
HETATM   19  H8  UNL     1      27.920   3.446  51.808  1.00  0.00     0.163 HD
ENDROOT
BRANCH   1  20
HETATM   20  C2  UNL     1      28.033  -0.172  53.552  1.00  0.00     0.273 C 
HETATM   21  N1  UNL     1      29.128  -0.812  53.616  1.00  0.00    -0.425 NA
HETATM   22  C1  UNL     1      29.357  -2.188  53.300  1.00  0.00     0.132 C 
ENDBRANCH   1  20
BRANCH  15  23
HETATM   23  O3  UNL     1      20.856  -1.429  53.938  1.00  0.00    -0.356 OA
HETATM   24  C14 UNL     1      19.514  -1.172  53.569  1.00  0.00     0.210 C 
ENDBRANCH  15  23
TORSDOF 2
ENDMDL
MODEL 8
REMARK VINA RESULT:      -8.2      2.494      5.452
REMARK  2 active torsions:
REMARK  status: ('A' for Active; 'I' for Inactive)
REMARK    1  A    between atoms: C2_3  and  C3_4 
REMARK    2  A    between atoms: C13_18  and  O3_19 
ROOT
HETATM    1  C3  UNL     1      24.567  -0.202  53.442  1.00  0.00     0.024 C 
HETATM    2  C4  UNL     1      23.896   0.921  53.124  1.00  0.00    -0.049 C 
HETATM    3  C5  UNL     1      25.008   1.864  53.262  1.00  0.00     0.158 C 
HETATM    4  N2  UNL     1      24.710   3.229  52.913  1.00  0.00    -0.352 N 
HETATM    5  C6  UNL     1      23.709   3.929  52.190  1.00  0.00     0.273 C 
HETATM    6  O1  UNL     1      24.158   4.986  51.633  1.00  0.00    -0.266 OA
HETATM    7  C7  UNL     1      22.304   3.741  51.930  1.00  0.00     0.160 A 
HETATM    8  N3  UNL     1      21.612   4.813  51.447  1.00  0.00    -0.228 NA
HETATM    9  C8  UNL     1      20.342   4.371  51.294  1.00  0.00     0.259 A 
HETATM   10  O2  UNL     1      20.285   3.112  51.664  1.00  0.00    -0.301 OA
HETATM   11  C9  UNL     1      21.443   2.675  52.058  1.00  0.00     0.118 A 
HETATM   12  C10 UNL     1      21.537   1.291  52.499  1.00  0.00    -0.010 C 
HETATM   13  C11 UNL     1      20.228   1.114  52.447  1.00  0.00     0.014 C 
HETATM   14  C12 UNL     1      19.458  -0.108  52.766  1.00  0.00     0.037 C 
HETATM   15  C13 UNL     1      19.830  -1.076  53.619  1.00  0.00     0.068 C 
HETATM   16  C15 UNL     1      21.074  -1.136  54.419  1.00  0.00     0.034 C 
HETATM   17  C16 UNL     1      22.188  -0.525  54.048  1.00  0.00    -0.010 C 
HETATM   18  C17 UNL     1      22.561   0.318  52.886  1.00  0.00     0.074 C 
HETATM   19  H8  UNL     1      25.432   3.875  53.300  1.00  0.00     0.163 HD
ENDROOT
BRANCH   1  20
HETATM   20  C2  UNL     1      25.965  -0.079  53.764  1.00  0.00     0.273 C 
HETATM   21  N1  UNL     1      27.120  -0.582  53.598  1.00  0.00    -0.425 NA
HETATM   22  C1  UNL     1      27.469  -1.738  52.833  1.00  0.00     0.132 C 
ENDBRANCH   1  20
BRANCH  15  23
HETATM   23  O3  UNL     1      18.965  -2.137  53.776  1.00  0.00    -0.356 OA
HETATM   24  C14 UNL     1      17.631  -1.977  53.333  1.00  0.00     0.210 C 
ENDBRANCH  15  23
TORSDOF 2
ENDMDL
MODEL 9
REMARK VINA RESULT:      -8.2      2.105      4.892
REMARK  2 active torsions:
REMARK  status: ('A' for Active; 'I' for Inactive)
REMARK    1  A    between atoms: C2_3  and  C3_4 
REMARK    2  A    between atoms: C13_18  and  O3_19 
ROOT
HETATM    1  C3  UNL     1      22.966  -0.286  52.696  1.00  0.00     0.024 C 
HETATM    2  C4  UNL     1      24.159   0.199  53.088  1.00  0.00    -0.049 C 
HETATM    3  C5  UNL     1      24.261  -0.524  54.358  1.00  0.00     0.158 C 
HETATM    4  N2  UNL     1      25.491  -0.333  55.083  1.00  0.00    -0.352 N 
HETATM    5  C6  UNL     1      26.800   0.144  54.813  1.00  0.00     0.273 C 
HETATM    6  O1  UNL     1      27.685  -0.425  55.536  1.00  0.00    -0.266 OA
HETATM    7  C7  UNL     1      27.380   1.117  53.922  1.00  0.00     0.160 A 
HETATM    8  N3  UNL     1      28.656   1.521  54.187  1.00  0.00    -0.228 NA
HETATM    9  C8  UNL     1      28.949   2.418  53.218  1.00  0.00     0.259 A 
HETATM   10  O2  UNL     1      27.908   2.539  52.425  1.00  0.00    -0.301 OA
HETATM   11  C9  UNL     1      26.927   1.775  52.801  1.00  0.00     0.118 A 
HETATM   12  C10 UNL     1      25.701   1.801  52.017  1.00  0.00    -0.010 C 
HETATM   13  C11 UNL     1      26.114   2.816  51.278  1.00  0.00     0.014 C 
HETATM   14  C12 UNL     1      25.400   3.493  50.174  1.00  0.00     0.037 C 
HETATM   15  C13 UNL     1      24.068   3.573  50.026  1.00  0.00     0.068 C 
HETATM   16  C15 UNL     1      23.032   3.011  50.922  1.00  0.00     0.034 C 
HETATM   17  C16 UNL     1      23.254   1.960  51.695  1.00  0.00    -0.010 C 
HETATM   18  C17 UNL     1      24.428   1.083  51.927  1.00  0.00     0.074 C 
HETATM   19  H8  UNL     1      25.383  -0.629  56.077  1.00  0.00     0.163 HD
ENDROOT
BRANCH   1  20
HETATM   20  C2  UNL     1      22.306  -1.226  53.564  1.00  0.00     0.273 C 
HETATM   21  N1  UNL     1      21.186  -1.608  54.026  1.00  0.00    -0.425 NA
HETATM   22  C1  UNL     1      19.893  -1.068  53.743  1.00  0.00     0.132 C 
ENDBRANCH   1  20
BRANCH  15  23
HETATM   23  O3  UNL     1      23.601   4.251  48.922  1.00  0.00    -0.356 OA
HETATM   24  C14 UNL     1      22.274   3.999  48.499  1.00  0.00     0.210 C 
ENDBRANCH  15  23
TORSDOF 2
ENDMDL
