MODEL 1
REMARK VINA RESULT:      -8.1      0.000      0.000
REMARK  6 active torsions:
REMARK  status: ('A' for Active; 'I' for Inactive)
REMARK    1  A    between atoms: N1_2  and  C3_4 
REMARK    2  A    between atoms: C3_4  and  C4_5 
REMARK    3  A    between atoms: C5_6  and  C6_7 
REMARK       I    between atoms: C6_7  and  N2_9 
REMARK    4  A    between atoms: N2_9  and  C7_10 
REMARK    5  A    between atoms: C10_13  and  N3_14 
REMARK    6  A    between atoms: N3_14  and  C11_15 
ROOT
HETATM    1  C7  UNL     1      26.578   2.378  51.955  1.00  0.00     0.049 C 
HETATM    2  C8  UNL     1      27.126   1.170  51.878  1.00  0.00     0.037 C 
HETATM    3  C9  UNL     1      25.956   0.336  52.325  1.00  0.00    -0.027 C 
HETATM    4  C10 UNL     1      24.885   1.043  52.584  1.00  0.00     0.052 C 
HETATM    5  C17 UNL     1      25.813   2.005  53.233  1.00  0.00     0.227 C 
HETATM    6  O2  UNL     1      26.679   1.477  54.182  1.00  0.00    -0.346 OA
HETATM    7  C18 UNL     1      27.108   0.234  54.621  1.00  0.00     0.132 C 
HETATM    8  C19 UNL     1      27.079  -0.917  53.912  1.00  0.00     0.002 C 
HETATM    9  C20 UNL     1      26.427  -1.101  52.518  1.00  0.00     0.070 C 
ENDROOT
BRANCH   1  10
HETATM   10  N2  UNL     1      26.708   3.553  51.124  1.00  0.00    -0.317 N 
HETATM   11  C6  UNL     1      25.612   3.893  50.267  1.00  0.00     0.300 C 
HETATM   12  O1  UNL     1      24.549   3.219  50.206  1.00  0.00    -0.258 OA
HETATM   13  H9  UNL     1      27.511   4.192  51.066  1.00  0.00     0.169 HD
BRANCH  11  14
HETATM   14  C5  UNL     1      25.641   5.047  49.396  1.00  0.00    -0.004 C 
HETATM   15  C4  UNL     1      25.675   6.029  48.678  1.00  0.00    -0.066 C 
BRANCH  15  16
HETATM   16  C3  UNL     1      25.708   7.224  47.821  1.00  0.00     0.365 C 
BRANCH  16  17
HETATM   17  N1  UNL     1      26.861   8.022  48.118  1.00  0.00     0.090 N 
HETATM   18  C1  UNL     1      27.004   8.388  49.499  1.00  0.00     0.310 C 
HETATM   19  C2  UNL     1      28.034   7.274  47.720  1.00  0.00     0.310 C 
ENDBRANCH  16  17
ENDBRANCH  15  16
ENDBRANCH  11  14
ENDBRANCH   1  10
BRANCH   4  20
HETATM   20  N3  UNL     1      23.497   1.359  52.575  1.00  0.00    -0.357 N 
HETATM   21  H11 UNL     1      23.234   2.272  52.143  1.00  0.00     0.166 HD
BRANCH  20  22
HETATM   22  C11 UNL     1      22.604   0.410  53.151  1.00  0.00     0.033 A 
HETATM   23  C12 UNL     1      23.076  -0.444  54.114  1.00  0.00     0.029 A 
HETATM   24  C13 UNL     1      22.137  -1.335  54.619  1.00  0.00     0.004 A 
HETATM   25  C14 UNL     1      20.817  -1.332  54.156  1.00  0.00     0.019 A 
HETATM   26  C15 UNL     1      20.404  -0.439  53.177  1.00  0.00     0.013 A 
HETATM   27 BR1  UNL     1      18.605  -0.447  52.558  1.00  0.00    -0.051 Br
HETATM   28  C16 UNL     1      21.332   0.457  52.662  1.00  0.00     0.048 A 
ENDBRANCH  20  22
ENDBRANCH   4  20
TORSDOF 6
ENDMDL
MODEL 2
REMARK VINA RESULT:      -7.9      2.357      2.749
REMARK  6 active torsions:
REMARK  status: ('A' for Active; 'I' for Inactive)
REMARK    1  A    between atoms: N1_2  and  C3_4 
REMARK    2  A    between atoms: C3_4  and  C4_5 
REMARK    3  A    between atoms: C5_6  and  C6_7 
REMARK       I    between atoms: C6_7  and  N2_9 
REMARK    4  A    between atoms: N2_9  and  C7_10 
REMARK    5  A    between atoms: C10_13  and  N3_14 
REMARK    6  A    between atoms: N3_14  and  C11_15 
ROOT
HETATM    1  C7  UNL     1      25.745   1.822  53.544  1.00  0.00     0.049 C 
HETATM    2  C8  UNL     1      26.639   1.238  52.754  1.00  0.00     0.037 C 
HETATM    3  C9  UNL     1      26.384  -0.202  53.108  1.00  0.00    -0.027 C 
HETATM    4  C10 UNL     1      25.423  -0.356  53.984  1.00  0.00     0.052 C 
HETATM    5  C17 UNL     1      26.013   0.819  54.674  1.00  0.00     0.227 C 
HETATM    6  O2  UNL     1      27.374   0.748  54.949  1.00  0.00    -0.346 OA
HETATM    7  C18 UNL     1      28.463  -0.037  54.609  1.00  0.00     0.132 C 
HETATM    8  C19 UNL     1      28.582  -0.801  53.500  1.00  0.00     0.002 C 
HETATM    9  C20 UNL     1      27.462  -1.062  52.462  1.00  0.00     0.070 C 
ENDROOT
BRANCH   1  10
HETATM   10  N2  UNL     1      24.889   2.972  53.352  1.00  0.00    -0.317 N 
HETATM   11  C6  UNL     1      24.366   3.207  52.040  1.00  0.00     0.300 C 
HETATM   12  O1  UNL     1      24.617   2.463  51.053  1.00  0.00    -0.258 OA
HETATM   13  H9  UNL     1      24.604   3.662  54.057  1.00  0.00     0.169 HD
BRANCH  11  14
HETATM   14  C5  UNL     1      23.503   4.327  51.742  1.00  0.00    -0.004 C 
HETATM   15  C4  UNL     1      22.772   5.262  51.472  1.00  0.00    -0.066 C 
BRANCH  15  16
HETATM   16  C3  UNL     1      21.898   6.396  51.133  1.00  0.00     0.365 C 
BRANCH  16  17
HETATM   17  N1  UNL     1      22.598   7.341  50.314  1.00  0.00     0.090 N 
HETATM   18  C1  UNL     1      23.849   7.797  50.851  1.00  0.00     0.310 C 
HETATM   19  C2  UNL     1      22.850   6.719  49.032  1.00  0.00     0.310 C 
ENDBRANCH  16  17
ENDBRANCH  15  16
ENDBRANCH  11  14
ENDBRANCH   1  10
BRANCH   4  20
HETATM   20  N3  UNL     1      24.263  -0.951  54.556  1.00  0.00    -0.357 N 
HETATM   21  H11 UNL     1      24.429  -1.681  55.283  1.00  0.00     0.166 HD
BRANCH  20  22
HETATM   22  C11 UNL     1      22.995  -0.500  54.089  1.00  0.00     0.033 A 
HETATM   23  C12 UNL     1      21.949  -0.436  54.974  1.00  0.00     0.029 A 
HETATM   24  C13 UNL     1      20.750   0.014  54.433  1.00  0.00     0.004 A 
HETATM   25  C14 UNL     1      20.655   0.367  53.083  1.00  0.00     0.019 A 
HETATM   26  C15 UNL     1      21.755   0.279  52.241  1.00  0.00     0.013 A 
HETATM   27 BR1  UNL     1      21.610   0.764  50.407  1.00  0.00    -0.051 Br
HETATM   28  C16 UNL     1      22.959  -0.170  52.767  1.00  0.00     0.048 A 
ENDBRANCH  20  22
ENDBRANCH   4  20
TORSDOF 6
ENDMDL
MODEL 3
REMARK VINA RESULT:      -7.6      2.746      7.228
REMARK  6 active torsions:
REMARK  status: ('A' for Active; 'I' for Inactive)
REMARK    1  A    between atoms: N1_2  and  C3_4 
REMARK    2  A    between atoms: C3_4  and  C4_5 
REMARK    3  A    between atoms: C5_6  and  C6_7 
REMARK       I    between atoms: C6_7  and  N2_9 
REMARK    4  A    between atoms: N2_9  and  C7_10 
REMARK    5  A    between atoms: C10_13  and  N3_14 
REMARK    6  A    between atoms: N3_14  and  C11_15 
ROOT
HETATM    1  C7  UNL     1      25.909  -0.060  53.804  1.00  0.00     0.049 C 
HETATM    2  C8  UNL     1      26.702   0.751  54.494  1.00  0.00     0.037 C 
HETATM    3  C9  UNL     1      27.289   1.550  53.362  1.00  0.00    -0.027 C 
HETATM    4  C10 UNL     1      26.822   1.206  52.188  1.00  0.00     0.052 C 
HETATM    5  C17 UNL     1      26.941  -0.193  52.675  1.00  0.00     0.227 C 
HETATM    6  O2  UNL     1      28.179  -0.559  53.189  1.00  0.00    -0.346 OA
HETATM    7  C18 UNL     1      29.361   0.046  53.583  1.00  0.00     0.132 C 
HETATM    8  C19 UNL     1      29.509   1.333  53.970  1.00  0.00     0.002 C 
HETATM    9  C20 UNL     1      28.411   2.423  53.911  1.00  0.00     0.070 C 
ENDROOT
BRANCH   1  10
HETATM   10  N2  UNL     1      24.591  -0.587  54.077  1.00  0.00    -0.317 N 
HETATM   11  C6  UNL     1      23.509  -0.153  53.245  1.00  0.00     0.300 C 
HETATM   12  O1  UNL     1      23.654   0.661  52.293  1.00  0.00    -0.258 OA
HETATM   13  H9  UNL     1      24.324  -1.249  54.816  1.00  0.00     0.169 HD
BRANCH  11  14
HETATM   14  C5  UNL     1      22.153  -0.618  53.434  1.00  0.00    -0.004 C 
HETATM   15  C4  UNL     1      21.017  -1.014  53.613  1.00  0.00    -0.066 C 
BRANCH  15  16
HETATM   16  C3  UNL     1      19.649  -1.508  53.834  1.00  0.00     0.365 C 
BRANCH  16  17
HETATM   17  N1  UNL     1      18.693  -0.612  53.254  1.00  0.00     0.090 N 
HETATM   18  C1  UNL     1      19.041  -0.114  51.954  1.00  0.00     0.310 C 
HETATM   19  C2  UNL     1      17.430  -1.312  53.153  1.00  0.00     0.310 C 
ENDBRANCH  16  17
ENDBRANCH  15  16
ENDBRANCH  11  14
ENDBRANCH   1  10
BRANCH   4  20
HETATM   20  N3  UNL     1      26.316   1.412  50.874  1.00  0.00    -0.357 N 
HETATM   21  H11 UNL     1      26.190   0.558  50.288  1.00  0.00     0.166 HD
BRANCH  20  22
HETATM   22  C11 UNL     1      26.030   2.752  50.483  1.00  0.00     0.033 A 
HETATM   23  C12 UNL     1      26.815   3.344  49.526  1.00  0.00     0.029 A 
HETATM   24  C13 UNL     1      26.465   4.650  49.207  1.00  0.00     0.004 A 
HETATM   25  C14 UNL     1      25.387   5.283  49.835  1.00  0.00     0.019 A 
HETATM   26  C15 UNL     1      24.632   4.626  50.797  1.00  0.00     0.013 A 
HETATM   27 BR1  UNL     1      23.169   5.500  51.641  1.00  0.00    -0.051 Br
HETATM   28  C16 UNL     1      24.971   3.319  51.127  1.00  0.00     0.048 A 
ENDBRANCH  20  22
ENDBRANCH   4  20
TORSDOF 6
ENDMDL
MODEL 4
REMARK VINA RESULT:      -7.5      3.351      7.436
REMARK  6 active torsions:
REMARK  status: ('A' for Active; 'I' for Inactive)
REMARK    1  A    between atoms: N1_2  and  C3_4 
REMARK    2  A    between atoms: C3_4  and  C4_5 
REMARK    3  A    between atoms: C5_6  and  C6_7 
REMARK       I    between atoms: C6_7  and  N2_9 
REMARK    4  A    between atoms: N2_9  and  C7_10 
REMARK    5  A    between atoms: C10_13  and  N3_14 
REMARK    6  A    between atoms: N3_14  and  C11_15 
ROOT
HETATM    1  C7  UNL     1      23.485   3.063  50.335  1.00  0.00     0.049 C 
HETATM    2  C8  UNL     1      24.354   3.250  49.348  1.00  0.00     0.037 C 
HETATM    3  C9  UNL     1      25.630   3.304  50.144  1.00  0.00    -0.027 C 
HETATM    4  C10 UNL     1      25.445   3.131  51.429  1.00  0.00     0.052 C 
HETATM    5  C17 UNL     1      24.258   4.009  51.264  1.00  0.00     0.227 C 
HETATM    6  O2  UNL     1      24.481   5.230  50.638  1.00  0.00    -0.346 OA
HETATM    7  C18 UNL     1      25.481   5.859  49.914  1.00  0.00     0.132 C 
HETATM    8  C19 UNL     1      26.470   5.250  49.222  1.00  0.00     0.002 C 
HETATM    9  C20 UNL     1      26.764   3.729  49.221  1.00  0.00     0.070 C 
ENDROOT
BRANCH   1  10
HETATM   10  N2  UNL     1      22.282   2.266  50.427  1.00  0.00    -0.317 N 
HETATM   11  C6  UNL     1      21.897   1.778  51.716  1.00  0.00     0.300 C 
HETATM   12  O1  UNL     1      22.555   2.010  52.767  1.00  0.00    -0.258 OA
HETATM   13  H9  UNL     1      21.652   1.996  49.661  1.00  0.00     0.169 HD
BRANCH  11  14
HETATM   14  C5  UNL     1      20.714   0.972  51.916  1.00  0.00    -0.004 C 
HETATM   15  C4  UNL     1      19.724   0.290  52.104  1.00  0.00    -0.066 C 
BRANCH  15  16
HETATM   16  C3  UNL     1      18.537  -0.548  52.333  1.00  0.00     0.365 C 
BRANCH  16  17
HETATM   17  N1  UNL     1      17.370   0.074  51.781  1.00  0.00     0.090 N 
HETATM   18  C1  UNL     1      17.126  -0.218  50.397  1.00  0.00     0.310 C 
HETATM   19  C2  UNL     1      16.225  -0.366  52.550  1.00  0.00     0.310 C 
ENDBRANCH  16  17
ENDBRANCH  15  16
ENDBRANCH  11  14
ENDBRANCH   1  10
BRANCH   4  20
HETATM   20  N3  UNL     1      25.718   2.618  52.729  1.00  0.00    -0.357 N 
HETATM   21  H11 UNL     1      25.522   3.259  53.529  1.00  0.00     0.166 HD
BRANCH  20  22
HETATM   22  C11 UNL     1      26.228   1.291  52.817  1.00  0.00     0.033 A 
HETATM   23  C12 UNL     1      25.375   0.239  52.604  1.00  0.00     0.029 A 
HETATM   24  C13 UNL     1      25.957  -1.019  52.709  1.00  0.00     0.004 A 
HETATM   25  C14 UNL     1      27.314  -1.163  53.013  1.00  0.00     0.019 A 
HETATM   26  C15 UNL     1      28.124  -0.054  53.218  1.00  0.00     0.013 A 
HETATM   27 BR1  UNL     1      29.969  -0.266  53.629  1.00  0.00    -0.051 Br
HETATM   28  C16 UNL     1      27.556   1.210  53.115  1.00  0.00     0.048 A 
ENDBRANCH  20  22
ENDBRANCH   4  20
TORSDOF 6
ENDMDL
MODEL 5
REMARK VINA RESULT:      -7.5      3.277      5.012
REMARK  6 active torsions:
REMARK  status: ('A' for Active; 'I' for Inactive)
REMARK    1  A    between atoms: N1_2  and  C3_4 
REMARK    2  A    between atoms: C3_4  and  C4_5 
REMARK    3  A    between atoms: C5_6  and  C6_7 
REMARK       I    between atoms: C6_7  and  N2_9 
REMARK    4  A    between atoms: N2_9  and  C7_10 
REMARK    5  A    between atoms: C10_13  and  N3_14 
REMARK    6  A    between atoms: N3_14  and  C11_15 
ROOT
HETATM    1  C7  UNL     1      24.737   4.406  50.593  1.00  0.00     0.049 C 
HETATM    2  C8  UNL     1      23.460   4.731  50.757  1.00  0.00     0.037 C 
HETATM    3  C9  UNL     1      23.184   4.020  52.053  1.00  0.00    -0.027 C 
HETATM    4  C10 UNL     1      24.231   3.402  52.537  1.00  0.00     0.052 C 
HETATM    5  C17 UNL     1      24.498   2.990  51.136  1.00  0.00     0.227 C 
HETATM    6  O2  UNL     1      23.444   2.383  50.464  1.00  0.00    -0.346 OA
HETATM    7  C18 UNL     1      22.082   2.185  50.630  1.00  0.00     0.132 C 
HETATM    8  C19 UNL     1      21.252   2.937  51.388  1.00  0.00     0.002 C 
HETATM    9  C20 UNL     1      21.688   4.082  52.335  1.00  0.00     0.070 C 
ENDROOT
BRANCH   1  10
HETATM   10  N2  UNL     1      25.867   5.149  50.081  1.00  0.00    -0.317 N 
HETATM   11  C6  UNL     1      26.831   4.444  49.292  1.00  0.00     0.300 C 
HETATM   12  O1  UNL     1      26.739   3.215  49.025  1.00  0.00    -0.258 OA
HETATM   13  H9  UNL     1      26.073   6.146  50.219  1.00  0.00     0.169 HD
BRANCH  11  14
HETATM   14  C5  UNL     1      27.996   5.093  48.734  1.00  0.00    -0.004 C 
HETATM   15  C4  UNL     1      28.974   5.628  48.247  1.00  0.00    -0.066 C 
BRANCH  15  16
HETATM   16  C3  UNL     1      30.163   6.261  47.655  1.00  0.00     0.365 C 
BRANCH  16  17
HETATM   17  N1  UNL     1      31.336   5.488  47.939  1.00  0.00     0.090 N 
HETATM   18  C1  UNL     1      32.403   5.635  46.989  1.00  0.00     0.310 C 
HETATM   19  C2  UNL     1      31.826   5.884  49.242  1.00  0.00     0.310 C 
ENDBRANCH  16  17
ENDBRANCH  15  16
ENDBRANCH  11  14
ENDBRANCH   1  10
BRANCH   4  20
HETATM   20  N3  UNL     1      25.144   2.974  53.543  1.00  0.00    -0.357 N 
HETATM   21  H11 UNL     1      25.413   3.687  54.256  1.00  0.00     0.166 HD
BRANCH  20  22
HETATM   22  C11 UNL     1      25.603   1.627  53.483  1.00  0.00     0.033 A 
HETATM   23  C12 UNL     1      24.684   0.622  53.322  1.00  0.00     0.029 A 
HETATM   24  C13 UNL     1      25.219  -0.660  53.274  1.00  0.00     0.004 A 
HETATM   25  C14 UNL     1      26.597  -0.871  53.386  1.00  0.00     0.019 A 
HETATM   26  C15 UNL     1      27.474   0.192  53.548  1.00  0.00     0.013 A 
HETATM   27 BR1  UNL     1      29.346  -0.112  53.699  1.00  0.00    -0.051 Br
HETATM   28  C16 UNL     1      26.953   1.479  53.598  1.00  0.00     0.048 A 
ENDBRANCH  20  22
ENDBRANCH   4  20
TORSDOF 6
ENDMDL
MODEL 6
REMARK VINA RESULT:      -7.3      2.732      4.274
REMARK  6 active torsions:
REMARK  status: ('A' for Active; 'I' for Inactive)
REMARK    1  A    between atoms: N1_2  and  C3_4 
REMARK    2  A    between atoms: C3_4  and  C4_5 
REMARK    3  A    between atoms: C5_6  and  C6_7 
REMARK       I    between atoms: C6_7  and  N2_9 
REMARK    4  A    between atoms: N2_9  and  C7_10 
REMARK    5  A    between atoms: C10_13  and  N3_14 
REMARK    6  A    between atoms: N3_14  and  C11_15 
ROOT
HETATM    1  C7  UNL     1      24.992   4.284  50.392  1.00  0.00     0.049 C 
HETATM    2  C8  UNL     1      24.187   5.036  51.134  1.00  0.00     0.037 C 
HETATM    3  C9  UNL     1      23.395   3.956  51.819  1.00  0.00    -0.027 C 
HETATM    4  C10 UNL     1      23.772   2.747  51.485  1.00  0.00     0.052 C 
HETATM    5  C17 UNL     1      23.868   3.279  50.102  1.00  0.00     0.227 C 
HETATM    6  O2  UNL     1      22.743   3.934  49.618  1.00  0.00    -0.346 OA
HETATM    7  C18 UNL     1      21.546   4.440  50.100  1.00  0.00     0.132 C 
HETATM    8  C19 UNL     1      21.291   4.808  51.376  1.00  0.00     0.002 C 
HETATM    9  C20 UNL     1      22.244   4.602  52.580  1.00  0.00     0.070 C 
ENDROOT
BRANCH   1  10
HETATM   10  N2  UNL     1      26.383   4.426  50.028  1.00  0.00    -0.317 N 
HETATM   11  C6  UNL     1      26.709   5.311  48.950  1.00  0.00     0.300 C 
HETATM   12  O1  UNL     1      25.842   5.967  48.311  1.00  0.00    -0.258 OA
HETATM   13  H9  UNL     1      27.191   3.955  50.454  1.00  0.00     0.169 HD
BRANCH  11  14
HETATM   14  C5  UNL     1      28.068   5.522  48.507  1.00  0.00    -0.004 C 
HETATM   15  C4  UNL     1      29.215   5.713  48.150  1.00  0.00    -0.066 C 
BRANCH  15  16
HETATM   16  C3  UNL     1      30.600   5.960  47.717  1.00  0.00     0.365 C 
BRANCH  16  17
HETATM   17  N1  UNL     1      31.526   5.391  48.651  1.00  0.00     0.090 N 
HETATM   18  C1  UNL     1      32.626   4.684  48.058  1.00  0.00     0.310 C 
HETATM   19  C2  UNL     1      32.056   6.465  49.464  1.00  0.00     0.310 C 
ENDBRANCH  16  17
ENDBRANCH  15  16
ENDBRANCH  11  14
ENDBRANCH   1  10
BRANCH   4  20
HETATM   20  N3  UNL     1      24.110   1.381  51.699  1.00  0.00    -0.357 N 
HETATM   21  H11 UNL     1      25.006   1.055  51.275  1.00  0.00     0.166 HD
BRANCH  20  22
HETATM   22  C11 UNL     1      23.203   0.592  52.463  1.00  0.00     0.033 A 
HETATM   23  C12 UNL     1      23.690  -0.148  53.510  1.00  0.00     0.029 A 
HETATM   24  C13 UNL     1      22.736  -0.886  54.200  1.00  0.00     0.004 A 
HETATM   25  C14 UNL     1      21.389  -0.854  53.825  1.00  0.00     0.019 A 
HETATM   26  C15 UNL     1      20.962  -0.083  52.753  1.00  0.00     0.013 A 
HETATM   27 BR1  UNL     1      19.126  -0.049  52.256  1.00  0.00    -0.051 Br
HETATM   28  C16 UNL     1      21.904   0.661  52.054  1.00  0.00     0.048 A 
ENDBRANCH  20  22
ENDBRANCH   4  20
TORSDOF 6
ENDMDL
MODEL 7
REMARK VINA RESULT:      -7.3      3.596      5.761
REMARK  6 active torsions:
REMARK  status: ('A' for Active; 'I' for Inactive)
REMARK    1  A    between atoms: N1_2  and  C3_4 
REMARK    2  A    between atoms: C3_4  and  C4_5 
REMARK    3  A    between atoms: C5_6  and  C6_7 
REMARK       I    between atoms: C6_7  and  N2_9 
REMARK    4  A    between atoms: N2_9  and  C7_10 
REMARK    5  A    between atoms: C10_13  and  N3_14 
REMARK    6  A    between atoms: N3_14  and  C11_15 
ROOT
HETATM    1  C7  UNL     1      25.131   3.151  51.229  1.00  0.00     0.049 C 
HETATM    2  C8  UNL     1      24.245   2.295  50.733  1.00  0.00     0.037 C 
HETATM    3  C9  UNL     1      22.978   2.908  51.266  1.00  0.00    -0.027 C 
HETATM    4  C10 UNL     1      23.184   4.002  51.955  1.00  0.00     0.052 C 
HETATM    5  C17 UNL     1      24.344   3.284  52.541  1.00  0.00     0.227 C 
HETATM    6  O2  UNL     1      24.081   2.030  53.079  1.00  0.00    -0.346 OA
HETATM    7  C18 UNL     1      23.056   1.098  53.089  1.00  0.00     0.132 C 
HETATM    8  C19 UNL     1      22.075   0.979  52.166  1.00  0.00     0.002 C 
HETATM    9  C20 UNL     1      21.822   1.956  50.990  1.00  0.00     0.070 C 
ENDROOT
BRANCH   1  10
HETATM   10  N2  UNL     1      26.356   3.698  50.689  1.00  0.00    -0.317 N 
HETATM   11  C6  UNL     1      26.275   4.454  49.476  1.00  0.00     0.300 C 
HETATM   12  O1  UNL     1      25.193   4.663  48.863  1.00  0.00    -0.258 OA
HETATM   13  H9  UNL     1      27.303   3.606  51.075  1.00  0.00     0.169 HD
BRANCH  11  14
HETATM   14  C5  UNL     1      27.440   5.042  48.852  1.00  0.00    -0.004 C 
HETATM   15  C4  UNL     1      28.424   5.547  48.345  1.00  0.00    -0.066 C 
BRANCH  15  16
HETATM   16  C3  UNL     1      29.607   6.172  47.735  1.00  0.00     0.365 C 
BRANCH  16  17
HETATM   17  N1  UNL     1      30.426   6.781  48.741  1.00  0.00     0.090 N 
HETATM   18  C1  UNL     1      31.485   5.952  49.243  1.00  0.00     0.310 C 
HETATM   19  C2  UNL     1      31.012   7.978  48.174  1.00  0.00     0.310 C 
ENDBRANCH  16  17
ENDBRANCH  15  16
ENDBRANCH  11  14
ENDBRANCH   1  10
BRANCH   4  20
HETATM   20  N3  UNL     1      22.940   5.338  52.385  1.00  0.00    -0.357 N 
HETATM   21  H11 UNL     1      22.695   5.461  53.392  1.00  0.00     0.166 HD
BRANCH  20  22
HETATM   22  C11 UNL     1      23.054   6.372  51.413  1.00  0.00     0.033 A 
HETATM   23  C12 UNL     1      21.925   6.785  50.752  1.00  0.00     0.029 A 
HETATM   24  C13 UNL     1      22.128   7.797  49.822  1.00  0.00     0.004 A 
HETATM   25  C14 UNL     1      23.402   8.331  49.602  1.00  0.00     0.019 A 
HETATM   26  C15 UNL     1      24.504   7.867  50.307  1.00  0.00     0.013 A 
HETATM   27 BR1  UNL     1      26.230   8.605  49.998  1.00  0.00    -0.051 Br
HETATM   28  C16 UNL     1      24.317   6.855  51.240  1.00  0.00     0.048 A 
ENDBRANCH  20  22
ENDBRANCH   4  20
TORSDOF 6
ENDMDL
MODEL 8
REMARK VINA RESULT:      -7.3      5.469     10.562
REMARK  6 active torsions:
REMARK  status: ('A' for Active; 'I' for Inactive)
REMARK    1  A    between atoms: N1_2  and  C3_4 
REMARK    2  A    between atoms: C3_4  and  C4_5 
REMARK    3  A    between atoms: C5_6  and  C6_7 
REMARK       I    between atoms: C6_7  and  N2_9 
REMARK    4  A    between atoms: N2_9  and  C7_10 
REMARK    5  A    between atoms: C10_13  and  N3_14 
REMARK    6  A    between atoms: N3_14  and  C11_15 
ROOT
HETATM    1  C7  UNL     1      29.658   7.558  48.235  1.00  0.00     0.049 C 
HETATM    2  C8  UNL     1      29.961   8.118  47.069  1.00  0.00     0.037 C 
HETATM    3  C9  UNL     1      31.414   7.736  46.977  1.00  0.00    -0.027 C 
HETATM    4  C10 UNL     1      31.824   7.017  47.991  1.00  0.00     0.052 C 
HETATM    5  C17 UNL     1      31.020   7.942  48.831  1.00  0.00     0.227 C 
HETATM    6  O2  UNL     1      31.264   9.298  48.654  1.00  0.00    -0.346 OA
HETATM    7  C18 UNL     1      31.930  10.127  47.766  1.00  0.00     0.132 C 
HETATM    8  C19 UNL     1      32.239   9.838  46.481  1.00  0.00     0.002 C 
HETATM    9  C20 UNL     1      32.037   8.465  45.793  1.00  0.00     0.070 C 
ENDROOT
BRANCH   1  10
HETATM   10  N2  UNL     1      28.473   6.875  48.700  1.00  0.00    -0.317 N 
HETATM   11  C6  UNL     1      28.412   5.453  48.544  1.00  0.00     0.300 C 
HETATM   12  O1  UNL     1      29.340   4.776  48.023  1.00  0.00    -0.258 OA
HETATM   13  H9  UNL     1      27.643   7.293  49.138  1.00  0.00     0.169 HD
BRANCH  11  14
HETATM   14  C5  UNL     1      27.273   4.675  48.975  1.00  0.00    -0.004 C 
HETATM   15  C4  UNL     1      26.303   4.038  49.342  1.00  0.00    -0.066 C 
BRANCH  15  16
HETATM   16  C3  UNL     1      25.132   3.275  49.802  1.00  0.00     0.365 C 
BRANCH  16  17
HETATM   17  N1  UNL     1      25.240   2.986  51.201  1.00  0.00     0.090 N 
HETATM   18  C1  UNL     1      24.055   2.438  51.799  1.00  0.00     0.310 C 
HETATM   19  C2  UNL     1      26.321   2.041  51.380  1.00  0.00     0.310 C 
ENDBRANCH  16  17
ENDBRANCH  15  16
ENDBRANCH  11  14
ENDBRANCH   1  10
BRANCH   4  20
HETATM   20  N3  UNL     1      32.521   5.961  48.644  1.00  0.00    -0.357 N 
HETATM   21  H11 UNL     1      32.511   5.977  49.688  1.00  0.00     0.166 HD
BRANCH  20  22
HETATM   22  C11 UNL     1      33.161   4.989  47.822  1.00  0.00     0.033 A 
HETATM   23  C12 UNL     1      34.325   5.328  47.182  1.00  0.00     0.029 A 
HETATM   24  C13 UNL     1      34.880   4.319  46.402  1.00  0.00     0.004 A 
HETATM   25  C14 UNL     1      34.268   3.066  46.301  1.00  0.00     0.019 A 
HETATM   26  C15 UNL     1      33.088   2.788  46.977  1.00  0.00     0.013 A 
HETATM   27 BR1  UNL     1      32.269   1.078  46.830  1.00  0.00    -0.051 Br
HETATM   28  C16 UNL     1      32.522   3.786  47.760  1.00  0.00     0.048 A 
ENDBRANCH  20  22
ENDBRANCH   4  20
TORSDOF 6
ENDMDL
MODEL 9
REMARK VINA RESULT:      -7.2      1.920      2.323
REMARK  6 active torsions:
REMARK  status: ('A' for Active; 'I' for Inactive)
REMARK    1  A    between atoms: N1_2  and  C3_4 
REMARK    2  A    between atoms: C3_4  and  C4_5 
REMARK    3  A    between atoms: C5_6  and  C6_7 
REMARK       I    between atoms: C6_7  and  N2_9 
REMARK    4  A    between atoms: N2_9  and  C7_10 
REMARK    5  A    between atoms: C10_13  and  N3_14 
REMARK    6  A    between atoms: N3_14  and  C11_15 
ROOT
HETATM    1  C7  UNL     1      25.930   2.599  52.011  1.00  0.00     0.049 C 
HETATM    2  C8  UNL     1      26.648   1.519  51.725  1.00  0.00     0.037 C 
HETATM    3  C9  UNL     1      25.814   0.474  52.415  1.00  0.00    -0.027 C 
HETATM    4  C10 UNL     1      24.742   0.962  52.986  1.00  0.00     0.052 C 
HETATM    5  C17 UNL     1      25.617   2.080  53.422  1.00  0.00     0.227 C 
HETATM    6  O2  UNL     1      26.788   1.722  54.078  1.00  0.00    -0.346 OA
HETATM    7  C18 UNL     1      27.539   0.582  54.318  1.00  0.00     0.132 C 
HETATM    8  C19 UNL     1      27.531  -0.549  53.577  1.00  0.00     0.002 C 
HETATM    9  C20 UNL     1      26.574  -0.847  52.396  1.00  0.00     0.070 C 
ENDROOT
BRANCH   1  10
HETATM   10  N2  UNL     1      25.614   3.783  51.243  1.00  0.00    -0.317 N 
HETATM   11  C6  UNL     1      24.778   3.631  50.090  1.00  0.00     0.300 C 
HETATM   12  O1  UNL     1      24.309   2.521  49.719  1.00  0.00    -0.258 OA
HETATM   13  H9  UNL     1      25.925   4.745  51.423  1.00  0.00     0.169 HD
BRANCH  11  14
HETATM   14  C5  UNL     1      24.404   4.750  49.254  1.00  0.00    -0.004 C 
HETATM   15  C4  UNL     1      24.081   5.701  48.567  1.00  0.00    -0.066 C 
BRANCH  15  16
HETATM   16  C3  UNL     1      23.675   6.848  47.741  1.00  0.00     0.365 C 
BRANCH  16  17
HETATM   17  N1  UNL     1      24.506   7.983  48.016  1.00  0.00     0.090 N 
HETATM   18  C1  UNL     1      24.530   8.396  49.391  1.00  0.00     0.310 C 
HETATM   19  C2  UNL     1      25.857   7.654  47.613  1.00  0.00     0.310 C 
ENDBRANCH  16  17
ENDBRANCH  15  16
ENDBRANCH  11  14
ENDBRANCH   1  10
BRANCH   4  20
HETATM   20  N3  UNL     1      23.369   1.006  53.360  1.00  0.00    -0.357 N 
HETATM   21  H11 UNL     1      23.159   0.838  54.369  1.00  0.00     0.166 HD
BRANCH  20  22
HETATM   22  C11 UNL     1      22.417   1.273  52.334  1.00  0.00     0.033 A 
HETATM   23  C12 UNL     1      21.935   0.226  51.591  1.00  0.00     0.029 A 
HETATM   24  C13 UNL     1      21.011   0.578  50.614  1.00  0.00     0.004 A 
HETATM   25  C14 UNL     1      20.627   1.909  50.430  1.00  0.00     0.019 A 
HETATM   26  C15 UNL     1      21.154   2.923  51.218  1.00  0.00     0.013 A 
HETATM   27 BR1  UNL     1      20.620   4.730  50.956  1.00  0.00    -0.051 Br
HETATM   28  C16 UNL     1      22.079   2.586  52.199  1.00  0.00     0.048 A 
ENDBRANCH  20  22
ENDBRANCH   4  20
TORSDOF 6
ENDMDL
