MODEL 1
REMARK VINA RESULT:      -8.2      0.000      0.000
REMARK  5 active torsions:
REMARK  status: ('A' for Active; 'I' for Inactive)
REMARK    1  A    between atoms: C2_2  and  C3_3 
REMARK    2  A    between atoms: C2_2  and  N1_11 
REMARK    3  A    between atoms: C3_3  and  C4_4 
REMARK    4  A    between atoms: N1_11  and  S1_12 
REMARK    5  A    between atoms: S1_12  and  C10_15 
ROOT
HETATM    1  N1  UNL     1      25.608   2.398  53.406  1.00  0.00    -0.288 N 
HETATM    2  H9  UNL     1      25.195   2.518  54.381  1.00  0.00     0.178 HD
ENDROOT
BRANCH   1   3
HETATM    3  C2  UNL     1      24.459   2.546  52.629  1.00  0.00     0.002 C 
HETATM    4  C1  UNL     1      23.837   3.729  52.755  1.00  0.00     0.059 C 
BRANCH   3   5
HETATM    5  C3  UNL     1      23.986   1.474  51.750  1.00  0.00     0.091 C 
BRANCH   5   6
HETATM    6  C4  UNL     1      22.763   0.802  52.310  1.00  0.00    -0.053 A 
HETATM    7  C5  UNL     1      21.709   0.911  51.426  1.00  0.00     0.009 A 
HETATM    8  C6  UNL     1      20.463   0.365  51.722  1.00  0.00     0.024 A 
HETATM    9  C7  UNL     1      20.324  -0.290  52.936  1.00  0.00     0.034 A 
HETATM   10 CL1  UNL     1      18.781  -1.000  53.369  1.00  0.00    -0.084 Cl
HETATM   11  C8  UNL     1      21.383  -0.393  53.814  1.00  0.00     0.024 A 
HETATM   12  C9  UNL     1      22.613   0.151  53.511  1.00  0.00     0.009 A 
ENDBRANCH   5   6
ENDBRANCH   3   5
ENDBRANCH   1   3
BRANCH   1  13
HETATM   13  S1  UNL     1      27.248   2.109  53.073  1.00  0.00     0.262 S 
HETATM   14  O1  UNL     1      27.736   2.707  51.803  1.00  0.00    -0.200 OA
HETATM   15  O2  UNL     1      28.032   2.767  54.180  1.00  0.00    -0.200 OA
BRANCH  13  16
HETATM   16  C10 UNL     1      27.673   0.411  53.079  1.00  0.00     0.080 A 
HETATM   17  C11 UNL     1      26.822  -0.601  52.664  1.00  0.00     0.028 A 
HETATM   18  C12 UNL     1      27.185  -1.933  52.681  1.00  0.00     0.044 A 
HETATM   19  C13 UNL     1      28.461  -2.240  53.137  1.00  0.00     0.116 A 
HETATM   20  F1  UNL     1      28.851  -3.549  53.166  1.00  0.00    -0.206 F 
HETATM   21  C14 UNL     1      29.349  -1.262  53.562  1.00  0.00     0.044 A 
HETATM   22  C15 UNL     1      28.946   0.057  53.529  1.00  0.00     0.028 A 
ENDBRANCH  13  16
ENDBRANCH   1  13
TORSDOF 5
ENDMDL
MODEL 2
REMARK VINA RESULT:      -7.8      3.935      5.849
REMARK  5 active torsions:
REMARK  status: ('A' for Active; 'I' for Inactive)
REMARK    1  A    between atoms: C2_2  and  C3_3 
REMARK    2  A    between atoms: C2_2  and  N1_11 
REMARK    3  A    between atoms: C3_3  and  C4_4 
REMARK    4  A    between atoms: N1_11  and  S1_12 
REMARK    5  A    between atoms: S1_12  and  C10_15 
ROOT
HETATM    1  N1  UNL     1      26.272   1.056  54.048  1.00  0.00    -0.288 N 
HETATM    2  H9  UNL     1      26.236   1.876  54.728  1.00  0.00     0.178 HD
ENDROOT
BRANCH   1   3
HETATM    3  C2  UNL     1      27.015   1.624  53.013  1.00  0.00     0.002 C 
HETATM    4  C1  UNL     1      28.080   2.341  53.404  1.00  0.00     0.059 C 
BRANCH   3   5
HETATM    5  C3  UNL     1      26.639   1.438  51.610  1.00  0.00     0.091 C 
BRANCH   5   6
HETATM    6  C4  UNL     1      25.925   2.644  51.066  1.00  0.00    -0.053 A 
HETATM    7  C5  UNL     1      26.628   3.182  50.008  1.00  0.00     0.009 A 
HETATM    8  C6  UNL     1      26.166   4.311  49.336  1.00  0.00     0.024 A 
HETATM    9  C7  UNL     1      24.974   4.871  49.771  1.00  0.00     0.034 A 
HETATM   10 CL1  UNL     1      24.338   6.292  48.968  1.00  0.00    -0.084 Cl
HETATM   11  C8  UNL     1      24.279   4.327  50.831  1.00  0.00     0.024 A 
HETATM   12  C9  UNL     1      24.745   3.208  51.489  1.00  0.00     0.009 A 
ENDBRANCH   5   6
ENDBRANCH   3   5
ENDBRANCH   1   3
BRANCH   1  13
HETATM   13  S1  UNL     1      25.559  -0.462  54.316  1.00  0.00     0.262 S 
HETATM   14  O1  UNL     1      26.221  -1.589  53.607  1.00  0.00    -0.200 OA
HETATM   15  O2  UNL     1      25.701  -0.748  55.789  1.00  0.00    -0.200 OA
BRANCH  13  16
HETATM   16  C10 UNL     1      23.851  -0.506  53.944  1.00  0.00     0.080 A 
HETATM   17  C11 UNL     1      23.291   0.054  52.806  1.00  0.00     0.028 A 
HETATM   18  C12 UNL     1      21.937   0.004  52.539  1.00  0.00     0.044 A 
HETATM   19  C13 UNL     1      21.129  -0.640  53.467  1.00  0.00     0.116 A 
HETATM   20  F1  UNL     1      19.785  -0.707  53.232  1.00  0.00    -0.206 F 
HETATM   21  C14 UNL     1      21.641  -1.216  54.620  1.00  0.00     0.044 A 
HETATM   22  C15 UNL     1      23.000  -1.144  54.848  1.00  0.00     0.028 A 
ENDBRANCH  13  16
ENDBRANCH   1  13
TORSDOF 5
ENDMDL
MODEL 3
REMARK VINA RESULT:      -7.7      3.932      5.255
REMARK  5 active torsions:
REMARK  status: ('A' for Active; 'I' for Inactive)
REMARK    1  A    between atoms: C2_2  and  C3_3 
REMARK    2  A    between atoms: C2_2  and  N1_11 
REMARK    3  A    between atoms: C3_3  and  C4_4 
REMARK    4  A    between atoms: N1_11  and  S1_12 
REMARK    5  A    between atoms: S1_12  and  C10_15 
ROOT
HETATM    1  N1  UNL     1      25.278   1.890  52.157  1.00  0.00    -0.288 N 
HETATM    2  H9  UNL     1      24.616   1.059  52.076  1.00  0.00     0.178 HD
ENDROOT
BRANCH   1   3
HETATM    3  C2  UNL     1      24.490   2.892  51.592  1.00  0.00     0.002 C 
HETATM    4  C1  UNL     1      23.889   3.707  52.472  1.00  0.00     0.059 C 
BRANCH   3   5
HETATM    5  C3  UNL     1      24.344   3.023  50.140  1.00  0.00     0.091 C 
BRANCH   5   6
HETATM    6  C4  UNL     1      25.378   3.949  49.563  1.00  0.00    -0.053 A 
HETATM    7  C5  UNL     1      24.811   5.168  49.255  1.00  0.00     0.009 A 
HETATM    8  C6  UNL     1      25.571   6.197  48.704  1.00  0.00     0.024 A 
HETATM    9  C7  UNL     1      26.917   5.947  48.480  1.00  0.00     0.034 A 
HETATM   10 CL1  UNL     1      27.929   7.200  47.789  1.00  0.00    -0.084 Cl
HETATM   11  C8  UNL     1      27.475   4.725  48.790  1.00  0.00     0.024 A 
HETATM   12  C9  UNL     1      26.712   3.713  49.335  1.00  0.00     0.009 A 
ENDBRANCH   5   6
ENDBRANCH   3   5
ENDBRANCH   1   3
BRANCH   1  13
HETATM   13  S1  UNL     1      26.839   1.829  52.824  1.00  0.00     0.262 S 
HETATM   14  O1  UNL     1      27.841   2.680  52.132  1.00  0.00    -0.200 OA
HETATM   15  O2  UNL     1      26.726   2.365  54.229  1.00  0.00    -0.200 OA
BRANCH  13  16
HETATM   16  C10 UNL     1      27.483   0.206  52.943  1.00  0.00     0.080 A 
HETATM   17  C11 UNL     1      28.743  -0.092  53.439  1.00  0.00     0.028 A 
HETATM   18  C12 UNL     1      29.225  -1.383  53.519  1.00  0.00     0.044 A 
HETATM   19  C13 UNL     1      28.391  -2.403  53.079  1.00  0.00     0.116 A 
HETATM   20  F1  UNL     1      28.839  -3.692  53.146  1.00  0.00    -0.206 F 
HETATM   21  C14 UNL     1      27.123  -2.155  52.575  1.00  0.00     0.044 A 
HETATM   22  C15 UNL     1      26.680  -0.851  52.512  1.00  0.00     0.028 A 
ENDBRANCH  13  16
ENDBRANCH   1  13
TORSDOF 5
ENDMDL
MODEL 4
REMARK VINA RESULT:      -7.6      4.318      6.302
REMARK  5 active torsions:
REMARK  status: ('A' for Active; 'I' for Inactive)
REMARK    1  A    between atoms: C2_2  and  C3_3 
REMARK    2  A    between atoms: C2_2  and  N1_11 
REMARK    3  A    between atoms: C3_3  and  C4_4 
REMARK    4  A    between atoms: N1_11  and  S1_12 
REMARK    5  A    between atoms: S1_12  and  C10_15 
ROOT
HETATM    1  N1  UNL     1      23.999   1.307  52.048  1.00  0.00    -0.288 N 
HETATM    2  H9  UNL     1      24.624   0.743  51.395  1.00  0.00     0.178 HD
ENDROOT
BRANCH   1   3
HETATM    3  C2  UNL     1      23.416   0.278  52.786  1.00  0.00     0.002 C 
HETATM    4  C1  UNL     1      22.217  -0.131  52.344  1.00  0.00     0.059 C 
BRANCH   3   5
HETATM    5  C3  UNL     1      24.084  -0.298  53.956  1.00  0.00     0.091 C 
BRANCH   5   6
HETATM    6  C4  UNL     1      25.558  -0.473  53.718  1.00  0.00    -0.053 A 
HETATM    7  C5  UNL     1      26.282   0.281  54.619  1.00  0.00     0.009 A 
HETATM    8  C6  UNL     1      27.674   0.285  54.600  1.00  0.00     0.024 A 
HETATM    9  C7  UNL     1      28.302  -0.496  53.641  1.00  0.00     0.034 A 
HETATM   10 CL1  UNL     1      30.052  -0.536  53.563  1.00  0.00    -0.084 Cl
HETATM   11  C8  UNL     1      27.570  -1.246  52.745  1.00  0.00     0.024 A 
HETATM   12  C9  UNL     1      26.192  -1.243  52.773  1.00  0.00     0.009 A 
ENDBRANCH   5   6
ENDBRANCH   3   5
ENDBRANCH   1   3
BRANCH   1  13
HETATM   13  S1  UNL     1      23.871   3.001  52.050  1.00  0.00     0.262 S 
HETATM   14  O1  UNL     1      22.491   3.516  51.855  1.00  0.00    -0.200 OA
HETATM   15  O2  UNL     1      24.306   3.462  53.418  1.00  0.00    -0.200 OA
BRANCH  13  16
HETATM   16  C10 UNL     1      24.919   3.781  50.886  1.00  0.00     0.080 A 
HETATM   17  C11 UNL     1      24.777   5.097  50.477  1.00  0.00     0.028 A 
HETATM   18  C12 UNL     1      25.619   5.686  49.555  1.00  0.00     0.044 A 
HETATM   19  C13 UNL     1      26.642   4.902  49.035  1.00  0.00     0.116 A 
HETATM   20  F1  UNL     1      27.493   5.456  48.121  1.00  0.00    -0.206 F 
HETATM   21  C14 UNL     1      26.825   3.581  49.414  1.00  0.00     0.044 A 
HETATM   22  C15 UNL     1      25.961   3.031  50.337  1.00  0.00     0.028 A 
ENDBRANCH  13  16
ENDBRANCH   1  13
TORSDOF 5
ENDMDL
MODEL 5
REMARK VINA RESULT:      -7.4      3.956      6.438
REMARK  5 active torsions:
REMARK  status: ('A' for Active; 'I' for Inactive)
REMARK    1  A    between atoms: C2_2  and  C3_3 
REMARK    2  A    between atoms: C2_2  and  N1_11 
REMARK    3  A    between atoms: C3_3  and  C4_4 
REMARK    4  A    between atoms: N1_11  and  S1_12 
REMARK    5  A    between atoms: S1_12  and  C10_15 
ROOT
HETATM    1  N1  UNL     1      24.091   2.495  50.839  1.00  0.00    -0.288 N 
HETATM    2  H9  UNL     1      24.339   2.252  49.831  1.00  0.00     0.178 HD
ENDROOT
BRANCH   1   3
HETATM    3  C2  UNL     1      25.364   2.730  51.358  1.00  0.00     0.002 C 
HETATM    4  C1  UNL     1      26.271   3.161  50.468  1.00  0.00     0.059 C 
BRANCH   3   5
HETATM    5  C3  UNL     1      25.664   2.512  52.775  1.00  0.00     0.091 C 
BRANCH   5   6
HETATM    6  C4  UNL     1      26.691   1.429  52.961  1.00  0.00    -0.053 A 
HETATM    7  C5  UNL     1      27.809   1.932  53.595  1.00  0.00     0.009 A 
HETATM    8  C6  UNL     1      28.902   1.118  53.879  1.00  0.00     0.024 A 
HETATM    9  C7  UNL     1      28.823  -0.214  53.500  1.00  0.00     0.034 A 
HETATM   10 CL1  UNL     1      30.165  -1.292  53.828  1.00  0.00    -0.084 Cl
HETATM   11  C8  UNL     1      27.703  -0.707  52.865  1.00  0.00     0.024 A 
HETATM   12  C9  UNL     1      26.625   0.108  52.589  1.00  0.00     0.009 A 
ENDBRANCH   5   6
ENDBRANCH   3   5
ENDBRANCH   1   3
BRANCH   1  13
HETATM   13  S1  UNL     1      22.515   2.535  51.470  1.00  0.00     0.262 S 
HETATM   14  O1  UNL     1      22.178   3.778  52.213  1.00  0.00    -0.200 OA
HETATM   15  O2  UNL     1      21.579   2.480  50.290  1.00  0.00    -0.200 OA
BRANCH  13  16
HETATM   16  C10 UNL     1      22.137   1.166  52.492  1.00  0.00     0.080 A 
HETATM   17  C11 UNL     1      22.973   0.073  52.662  1.00  0.00     0.028 A 
HETATM   18  C12 UNL     1      22.647  -0.995  53.475  1.00  0.00     0.044 A 
HETATM   19  C13 UNL     1      21.427  -0.942  54.137  1.00  0.00     0.116 A 
HETATM   20  F1  UNL     1      21.076  -1.983  54.949  1.00  0.00    -0.206 F 
HETATM   21  C14 UNL     1      20.557   0.129  53.999  1.00  0.00     0.044 A 
HETATM   22  C15 UNL     1      20.921   1.176  53.177  1.00  0.00     0.028 A 
ENDBRANCH  13  16
ENDBRANCH   1  13
TORSDOF 5
ENDMDL
MODEL 6
REMARK VINA RESULT:      -7.3      4.770      6.262
REMARK  5 active torsions:
REMARK  status: ('A' for Active; 'I' for Inactive)
REMARK    1  A    between atoms: C2_2  and  C3_3 
REMARK    2  A    between atoms: C2_2  and  N1_11 
REMARK    3  A    between atoms: C3_3  and  C4_4 
REMARK    4  A    between atoms: N1_11  and  S1_12 
REMARK    5  A    between atoms: S1_12  and  C10_15 
ROOT
HETATM    1  N1  UNL     1      23.773   5.123  51.868  1.00  0.00    -0.288 N 
HETATM    2  H9  UNL     1      23.547   5.482  52.846  1.00  0.00     0.178 HD
ENDROOT
BRANCH   1   3
HETATM    3  C2  UNL     1      23.747   3.748  52.096  1.00  0.00     0.002 C 
HETATM    4  C1  UNL     1      23.091   3.030  51.171  1.00  0.00     0.059 C 
BRANCH   3   5
HETATM    5  C3  UNL     1      24.394   3.154  53.269  1.00  0.00     0.091 C 
BRANCH   5   6
HETATM    6  C4  UNL     1      25.136   1.897  52.911  1.00  0.00    -0.053 A 
HETATM    7  C5  UNL     1      24.534   0.801  53.495  1.00  0.00     0.009 A 
HETATM    8  C6  UNL     1      25.041  -0.482  53.311  1.00  0.00     0.024 A 
HETATM    9  C7  UNL     1      26.172  -0.615  52.519  1.00  0.00     0.034 A 
HETATM   10 CL1  UNL     1      26.860  -2.203  52.246  1.00  0.00    -0.084 Cl
HETATM   11  C8  UNL     1      26.767   0.486  51.939  1.00  0.00     0.024 A 
HETATM   12  C9  UNL     1      26.256   1.753  52.128  1.00  0.00     0.009 A 
ENDBRANCH   5   6
ENDBRANCH   3   5
ENDBRANCH   1   3
BRANCH   1  13
HETATM   13  S1  UNL     1      24.058   6.106  50.513  1.00  0.00     0.262 S 
HETATM   14  O1  UNL     1      22.980   6.078  49.491  1.00  0.00    -0.200 OA
HETATM   15  O2  UNL     1      24.125   7.525  51.020  1.00  0.00    -0.200 OA
BRANCH  13  16
HETATM   16  C10 UNL     1      25.580   5.771  49.717  1.00  0.00     0.080 A 
HETATM   17  C11 UNL     1      26.145   4.509  49.627  1.00  0.00     0.028 A 
HETATM   18  C12 UNL     1      27.348   4.275  48.992  1.00  0.00     0.044 A 
HETATM   19  C13 UNL     1      27.994   5.368  48.429  1.00  0.00     0.116 A 
HETATM   20  F1  UNL     1      29.187   5.170  47.793  1.00  0.00    -0.206 F 
HETATM   21  C14 UNL     1      27.469   6.650  48.492  1.00  0.00     0.044 A 
HETATM   22  C15 UNL     1      26.264   6.841  49.136  1.00  0.00     0.028 A 
ENDBRANCH  13  16
ENDBRANCH   1  13
TORSDOF 5
ENDMDL
MODEL 7
REMARK VINA RESULT:      -7.3      4.064      5.906
REMARK  5 active torsions:
REMARK  status: ('A' for Active; 'I' for Inactive)
REMARK    1  A    between atoms: C2_2  and  C3_3 
REMARK    2  A    between atoms: C2_2  and  N1_11 
REMARK    3  A    between atoms: C3_3  and  C4_4 
REMARK    4  A    between atoms: N1_11  and  S1_12 
REMARK    5  A    between atoms: S1_12  and  C10_15 
ROOT
HETATM    1  N1  UNL     1      22.448   3.164  51.182  1.00  0.00    -0.288 N 
HETATM    2  H9  UNL     1      22.695   3.202  50.145  1.00  0.00     0.178 HD
ENDROOT
BRANCH   1   3
HETATM    3  C2  UNL     1      23.505   3.900  51.715  1.00  0.00     0.002 C 
HETATM    4  C1  UNL     1      23.870   4.974  50.997  1.00  0.00     0.059 C 
BRANCH   3   5
HETATM    5  C3  UNL     1      24.154   3.509  52.969  1.00  0.00     0.091 C 
BRANCH   5   6
HETATM    6  C4  UNL     1      25.027   2.300  52.783  1.00  0.00    -0.053 A 
HETATM    7  C5  UNL     1      25.248   1.677  53.994  1.00  0.00     0.009 A 
HETATM    8  C6  UNL     1      26.031   0.529  54.081  1.00  0.00     0.024 A 
HETATM    9  C7  UNL     1      26.579   0.038  52.905  1.00  0.00     0.034 A 
HETATM   10 CL1  UNL     1      27.575  -1.403  52.945  1.00  0.00    -0.084 Cl
HETATM   11  C8  UNL     1      26.354   0.668  51.699  1.00  0.00     0.024 A 
HETATM   12  C9  UNL     1      25.576   1.805  51.624  1.00  0.00     0.009 A 
ENDBRANCH   5   6
ENDBRANCH   3   5
ENDBRANCH   1   3
BRANCH   1  13
HETATM   13  S1  UNL     1      21.093   2.373  51.830  1.00  0.00     0.262 S 
HETATM   14  O1  UNL     1      20.203   3.240  52.646  1.00  0.00    -0.200 OA
HETATM   15  O2  UNL     1      20.268   1.905  50.658  1.00  0.00    -0.200 OA
BRANCH  13  16
HETATM   16  C10 UNL     1      21.497   0.957  52.775  1.00  0.00     0.080 A 
HETATM   17  C11 UNL     1      22.369  -0.033  52.350  1.00  0.00     0.028 A 
HETATM   18  C12 UNL     1      22.669  -1.142  53.118  1.00  0.00     0.044 A 
HETATM   19  C13 UNL     1      22.057  -1.239  54.361  1.00  0.00     0.116 A 
HETATM   20  F1  UNL     1      22.333  -2.323  55.145  1.00  0.00    -0.206 F 
HETATM   21  C14 UNL     1      21.178  -0.274  54.830  1.00  0.00     0.044 A 
HETATM   22  C15 UNL     1      20.906   0.817  54.032  1.00  0.00     0.028 A 
ENDBRANCH  13  16
ENDBRANCH   1  13
TORSDOF 5
ENDMDL
MODEL 8
REMARK VINA RESULT:      -7.2      4.388      5.677
REMARK  5 active torsions:
REMARK  status: ('A' for Active; 'I' for Inactive)
REMARK    1  A    between atoms: C2_2  and  C3_3 
REMARK    2  A    between atoms: C2_2  and  N1_11 
REMARK    3  A    between atoms: C3_3  and  C4_4 
REMARK    4  A    between atoms: N1_11  and  S1_12 
REMARK    5  A    between atoms: S1_12  and  C10_15 
ROOT
HETATM    1  N1  UNL     1      22.386   2.877  52.353  1.00  0.00    -0.288 N 
HETATM    2  H9  UNL     1      21.486   3.269  52.767  1.00  0.00     0.178 HD
ENDROOT
BRANCH   1   3
HETATM    3  C2  UNL     1      22.830   3.984  51.631  1.00  0.00     0.002 C 
HETATM    4  C1  UNL     1      23.086   5.078  52.366  1.00  0.00     0.059 C 
BRANCH   3   5
HETATM    5  C3  UNL     1      22.996   3.933  50.177  1.00  0.00     0.091 C 
BRANCH   5   6
HETATM    6  C4  UNL     1      24.437   4.101  49.780  1.00  0.00    -0.053 A 
HETATM    7  C5  UNL     1      24.640   5.350  49.230  1.00  0.00     0.009 A 
HETATM    8  C6  UNL     1      25.899   5.743  48.783  1.00  0.00     0.024 A 
HETATM    9  C7  UNL     1      26.937   4.833  48.914  1.00  0.00     0.034 A 
HETATM   10 CL1  UNL     1      28.546   5.266  48.372  1.00  0.00    -0.084 Cl
HETATM   11  C8  UNL     1      26.724   3.587  49.465  1.00  0.00     0.024 A 
HETATM   12  C9  UNL     1      25.473   3.207  49.904  1.00  0.00     0.009 A 
ENDBRANCH   5   6
ENDBRANCH   3   5
ENDBRANCH   1   3
BRANCH   1  13
HETATM   13  S1  UNL     1      22.969   1.303  52.610  1.00  0.00     0.262 S 
HETATM   14  O1  UNL     1      22.381   0.610  53.786  1.00  0.00    -0.200 OA
HETATM   15  O2  UNL     1      22.571   0.495  51.400  1.00  0.00    -0.200 OA
BRANCH  13  16
HETATM   16  C10 UNL     1      24.712   1.216  52.736  1.00  0.00     0.080 A 
HETATM   17  C11 UNL     1      25.478   0.200  52.188  1.00  0.00     0.028 A 
HETATM   18  C12 UNL     1      26.854   0.158  52.305  1.00  0.00     0.044 A 
HETATM   19  C13 UNL     1      27.465   1.190  53.004  1.00  0.00     0.116 A 
HETATM   20  F1  UNL     1      28.825   1.178  53.137  1.00  0.00    -0.206 F 
HETATM   21  C14 UNL     1      26.742   2.230  53.570  1.00  0.00     0.044 A 
HETATM   22  C15 UNL     1      25.369   2.234  53.431  1.00  0.00     0.028 A 
ENDBRANCH  13  16
ENDBRANCH   1  13
TORSDOF 5
ENDMDL
MODEL 9
REMARK VINA RESULT:      -7.1      4.547      6.519
REMARK  5 active torsions:
REMARK  status: ('A' for Active; 'I' for Inactive)
REMARK    1  A    between atoms: C2_2  and  C3_3 
REMARK    2  A    between atoms: C2_2  and  N1_11 
REMARK    3  A    between atoms: C3_3  and  C4_4 
REMARK    4  A    between atoms: N1_11  and  S1_12 
REMARK    5  A    between atoms: S1_12  and  C10_15 
ROOT
HETATM    1  N1  UNL     1      21.400   0.863  53.569  1.00  0.00    -0.288 N 
HETATM    2  H9  UNL     1      20.938   0.890  54.529  1.00  0.00     0.178 HD
ENDROOT
BRANCH   1   3
HETATM    3  C2  UNL     1      22.344  -0.142  53.776  1.00  0.00     0.002 C 
HETATM    4  C1  UNL     1      22.233  -0.795  54.943  1.00  0.00     0.059 C 
BRANCH   3   5
HETATM    5  C3  UNL     1      23.372  -0.443  52.777  1.00  0.00     0.091 C 
BRANCH   5   6
HETATM    6  C4  UNL     1      24.702   0.145  53.161  1.00  0.00    -0.053 A 
HETATM    7  C5  UNL     1      25.681  -0.827  53.139  1.00  0.00     0.009 A 
HETATM    8  C6  UNL     1      27.002  -0.525  53.460  1.00  0.00     0.024 A 
HETATM    9  C7  UNL     1      27.293   0.787  53.800  1.00  0.00     0.034 A 
HETATM   10 CL1  UNL     1      28.936   1.234  54.214  1.00  0.00    -0.084 Cl
HETATM   11  C8  UNL     1      26.307   1.752  53.820  1.00  0.00     0.024 A 
HETATM   12  C9  UNL     1      25.002   1.442  53.500  1.00  0.00     0.009 A 
ENDBRANCH   5   6
ENDBRANCH   3   5
ENDBRANCH   1   3
BRANCH   1  13
HETATM   13  S1  UNL     1      20.974   1.854  52.257  1.00  0.00     0.262 S 
HETATM   14  O1  UNL     1      20.308   1.141  51.136  1.00  0.00    -0.200 OA
HETATM   15  O2  UNL     1      19.971   2.851  52.780  1.00  0.00    -0.200 OA
BRANCH  13  16
HETATM   16  C10 UNL     1      22.318   2.767  51.607  1.00  0.00     0.080 A 
HETATM   17  C11 UNL     1      23.044   2.386  50.489  1.00  0.00     0.028 A 
HETATM   18  C12 UNL     1      24.101   3.127  49.999  1.00  0.00     0.044 A 
HETATM   19  C13 UNL     1      24.425   4.297  50.675  1.00  0.00     0.116 A 
HETATM   20  F1  UNL     1      25.466   5.053  50.214  1.00  0.00    -0.206 F 
HETATM   21  C14 UNL     1      23.728   4.720  51.797  1.00  0.00     0.044 A 
HETATM   22  C15 UNL     1      22.679   3.950  52.253  1.00  0.00     0.028 A 
ENDBRANCH  13  16
ENDBRANCH   1  13
TORSDOF 5
ENDMDL
