MODEL 1
REMARK VINA RESULT:      -6.2      0.000      0.000
REMARK  9 active torsions:
REMARK  status: ('A' for Active; 'I' for Inactive)
REMARK    1  A    between atoms: C2_2  and  C3_3 
REMARK    2  A    between atoms: C6_9  and  O1_10 
REMARK    3  A    between atoms: O1_10  and  C7_11 
REMARK    4  A    between atoms: C7_11  and  C8_12 
REMARK    5  A    between atoms: C8_12  and  C9_13 
REMARK    6  A    between atoms: C8_12  and  C10_15 
REMARK    7  A    between atoms: C10_15  and  N3_16 
REMARK    8  A    between atoms: N3_16  and  C11_17 
REMARK    9  A    between atoms: C11_17  and  C12_18 
ROOT
HETATM    1  C7  UNL     1      25.148   0.569  52.839  1.00  0.00     0.186 C 
ENDROOT
BRANCH   1   2
HETATM    2  O1  UNL     1      23.846   0.695  52.777  1.00  0.00    -0.333 OA
BRANCH   2   3
HETATM    3  C6  UNL     1      22.632   1.087  52.698  1.00  0.00     0.178 A 
HETATM    4  C3  UNL     1      21.616   0.208  53.096  1.00  0.00     0.031 A 
HETATM    5  C4  UNL     1      20.287   0.527  53.050  1.00  0.00     0.135 A 
HETATM    6  N1  UNL     1      20.005   1.755  52.593  1.00  0.00    -0.230 NA
HETATM    7  C5  UNL     1      20.922   2.654  52.193  1.00  0.00     0.225 A 
HETATM    8 CL1  UNL     1      20.434   4.232  51.612  1.00  0.00    -0.041 Cl
HETATM    9  N2  UNL     1      22.216   2.286  52.260  1.00  0.00    -0.193 NA
BRANCH   4  10
HETATM   10  C2  UNL     1      22.043  -1.098  53.574  1.00  0.00    -0.009 C 
HETATM   11  C1  UNL     1      22.017  -1.369  54.870  1.00  0.00     0.032 C 
ENDBRANCH   4  10
ENDBRANCH   2   3
ENDBRANCH   1   2
BRANCH   1  12
HETATM   12  C8  UNL     1      25.847   1.955  52.646  1.00  0.00     0.056 C 
BRANCH  12  13
HETATM   13  C9  UNL     1      26.670   1.748  51.403  1.00  0.00     0.230 C 
HETATM   14  F1  UNL     1      26.911   0.369  51.256  1.00  0.00    -0.255 F 
ENDBRANCH  12  13
BRANCH  12  15
HETATM   15  C10 UNL     1      26.619   2.277  53.876  1.00  0.00     0.123 C 
BRANCH  15  16
HETATM   16  N3  UNL     1      27.981   2.509  53.818  1.00  0.00    -0.414 N 
HETATM   17  H12 UNL     1      28.293   3.264  53.182  1.00  0.00     0.153 HD
BRANCH  16  18
HETATM   18  C11 UNL     1      29.008   1.722  54.285  1.00  0.00     0.192 C 
BRANCH  18  19
HETATM   19  C12 UNL     1      28.680   0.255  54.389  1.00  0.00     0.140 C 
HETATM   20  C13 UNL     1      29.388  -0.656  53.414  1.00  0.00     0.092 C 
HETATM   21  O2  UNL     1      27.928  -0.331  55.143  1.00  0.00    -0.297 OA
ENDBRANCH  18  19
ENDBRANCH  16  18
ENDBRANCH  15  16
ENDBRANCH  12  15
ENDBRANCH   1  12
TORSDOF 9
ENDMDL
MODEL 2
REMARK VINA RESULT:      -6.1      2.307      2.822
REMARK  9 active torsions:
REMARK  status: ('A' for Active; 'I' for Inactive)
REMARK    1  A    between atoms: C2_2  and  C3_3 
REMARK    2  A    between atoms: C6_9  and  O1_10 
REMARK    3  A    between atoms: O1_10  and  C7_11 
REMARK    4  A    between atoms: C7_11  and  C8_12 
REMARK    5  A    between atoms: C8_12  and  C9_13 
REMARK    6  A    between atoms: C8_12  and  C10_15 
REMARK    7  A    between atoms: C10_15  and  N3_16 
REMARK    8  A    between atoms: N3_16  and  C11_17 
REMARK    9  A    between atoms: C11_17  and  C12_18 
ROOT
HETATM    1  C7  UNL     1      24.098   1.651  51.245  1.00  0.00     0.186 C 
ENDROOT
BRANCH   1   2
HETATM    2  O1  UNL     1      23.621   0.880  52.190  1.00  0.00    -0.333 OA
BRANCH   2   3
HETATM    3  C6  UNL     1      22.918   0.158  52.976  1.00  0.00     0.178 A 
HETATM    4  C3  UNL     1      23.557  -0.492  54.041  1.00  0.00     0.031 A 
HETATM    5  C4  UNL     1      22.900  -1.287  54.938  1.00  0.00     0.135 A 
HETATM    6  N1  UNL     1      21.580  -1.414  54.737  1.00  0.00    -0.230 NA
HETATM    7  C5  UNL     1      20.896  -0.823  53.742  1.00  0.00     0.225 A 
HETATM    8 CL1  UNL     1      19.169  -1.061  53.578  1.00  0.00    -0.041 Cl
HETATM    9  N2  UNL     1      21.595  -0.050  52.888  1.00  0.00    -0.193 NA
BRANCH   4  10
HETATM   10  C2  UNL     1      24.992  -0.282  54.158  1.00  0.00    -0.009 C 
HETATM   11  C1  UNL     1      25.832  -1.070  53.503  1.00  0.00     0.032 C 
ENDBRANCH   4  10
ENDBRANCH   2   3
ENDBRANCH   1   2
BRANCH   1  12
HETATM   12  C8  UNL     1      24.977   2.792  51.854  1.00  0.00     0.056 C 
BRANCH  12  13
HETATM   13  C9  UNL     1      24.745   3.939  50.908  1.00  0.00     0.230 C 
HETATM   14  F1  UNL     1      24.923   3.472  49.593  1.00  0.00    -0.255 F 
ENDBRANCH  12  13
BRANCH  12  15
HETATM   15  C10 UNL     1      26.384   2.315  51.945  1.00  0.00     0.123 C 
BRANCH  15  16
HETATM   16  N3  UNL     1      27.095   2.430  53.125  1.00  0.00    -0.414 N 
HETATM   17  H12 UNL     1      26.604   2.881  53.917  1.00  0.00     0.153 HD
BRANCH  16  18
HETATM   18  C11 UNL     1      28.445   2.264  53.335  1.00  0.00     0.192 C 
BRANCH  18  19
HETATM   19  C12 UNL     1      28.809   1.065  54.170  1.00  0.00     0.140 C 
HETATM   20  C13 UNL     1      29.729   0.057  53.521  1.00  0.00     0.092 C 
HETATM   21  O2  UNL     1      28.482   0.765  55.302  1.00  0.00    -0.297 OA
ENDBRANCH  18  19
ENDBRANCH  16  18
ENDBRANCH  15  16
ENDBRANCH  12  15
ENDBRANCH   1  12
TORSDOF 9
ENDMDL
MODEL 3
REMARK VINA RESULT:      -6.0      1.903      2.033
REMARK  9 active torsions:
REMARK  status: ('A' for Active; 'I' for Inactive)
REMARK    1  A    between atoms: C2_2  and  C3_3 
REMARK    2  A    between atoms: C6_9  and  O1_10 
REMARK    3  A    between atoms: O1_10  and  C7_11 
REMARK    4  A    between atoms: C7_11  and  C8_12 
REMARK    5  A    between atoms: C8_12  and  C9_13 
REMARK    6  A    between atoms: C8_12  and  C10_15 
REMARK    7  A    between atoms: C10_15  and  N3_16 
REMARK    8  A    between atoms: N3_16  and  C11_17 
REMARK    9  A    between atoms: C11_17  and  C12_18 
ROOT
HETATM    1  C7  UNL     1      24.894   2.538  53.267  1.00  0.00     0.186 C 
ENDROOT
BRANCH   1   2
HETATM    2  O1  UNL     1      23.999   1.880  52.574  1.00  0.00    -0.333 OA
BRANCH   2   3
HETATM    3  C6  UNL     1      23.037   1.489  51.829  1.00  0.00     0.178 A 
HETATM    4  C3  UNL     1      22.021   0.709  52.398  1.00  0.00     0.031 A 
HETATM    5  C4  UNL     1      20.950   0.240  51.691  1.00  0.00     0.135 A 
HETATM    6  N1  UNL     1      20.925   0.574  50.393  1.00  0.00    -0.230 NA
HETATM    7  C5  UNL     1      21.859   1.318  49.775  1.00  0.00     0.225 A 
HETATM    8 CL1  UNL     1      21.722   1.693  48.070  1.00  0.00    -0.041 Cl
HETATM    9  N2  UNL     1      22.892   1.754  50.521  1.00  0.00    -0.193 NA
BRANCH   4  10
HETATM   10  C2  UNL     1      22.156   0.409  53.815  1.00  0.00    -0.009 C 
HETATM   11  C1  UNL     1      21.165  -0.185  54.463  1.00  0.00     0.032 C 
ENDBRANCH   4  10
ENDBRANCH   2   3
ENDBRANCH   1   2
BRANCH   1  12
HETATM   12  C8  UNL     1      26.193   1.685  53.443  1.00  0.00     0.056 C 
BRANCH  12  13
HETATM   13  C9  UNL     1      26.634   1.445  52.025  1.00  0.00     0.230 C 
HETATM   14  F1  UNL     1      26.449   0.082  51.728  1.00  0.00    -0.255 F 
ENDBRANCH  12  13
BRANCH  12  15
HETATM   15  C10 UNL     1      25.862   0.463  54.224  1.00  0.00     0.123 C 
BRANCH  15  16
HETATM   16  N3  UNL     1      26.838  -0.209  54.937  1.00  0.00    -0.414 N 
HETATM   17  H12 UNL     1      26.508  -0.830  55.696  1.00  0.00     0.153 HD
BRANCH  16  18
HETATM   18  C11 UNL     1      28.195   0.015  54.957  1.00  0.00     0.192 C 
BRANCH  18  19
HETATM   19  C12 UNL     1      28.976  -0.757  53.926  1.00  0.00     0.140 C 
HETATM   20  C13 UNL     1      30.231  -0.093  53.408  1.00  0.00     0.092 C 
HETATM   21  O2  UNL     1      28.764  -1.847  53.432  1.00  0.00    -0.297 OA
ENDBRANCH  18  19
ENDBRANCH  16  18
ENDBRANCH  15  16
ENDBRANCH  12  15
ENDBRANCH   1  12
TORSDOF 9
ENDMDL
MODEL 4
REMARK VINA RESULT:      -6.0      3.340      4.444
REMARK  9 active torsions:
REMARK  status: ('A' for Active; 'I' for Inactive)
REMARK    1  A    between atoms: C2_2  and  C3_3 
REMARK    2  A    between atoms: C6_9  and  O1_10 
REMARK    3  A    between atoms: O1_10  and  C7_11 
REMARK    4  A    between atoms: C7_11  and  C8_12 
REMARK    5  A    between atoms: C8_12  and  C9_13 
REMARK    6  A    between atoms: C8_12  and  C10_15 
REMARK    7  A    between atoms: C10_15  and  N3_16 
REMARK    8  A    between atoms: N3_16  and  C11_17 
REMARK    9  A    between atoms: C11_17  and  C12_18 
ROOT
HETATM    1  C7  UNL     1      24.885   1.960  53.035  1.00  0.00     0.186 C 
ENDROOT
BRANCH   1   2
HETATM    2  O1  UNL     1      24.803   2.832  52.061  1.00  0.00    -0.333 OA
BRANCH   2   3
HETATM    3  C6  UNL     1      24.978   3.596  51.051  1.00  0.00     0.178 A 
HETATM    4  C3  UNL     1      23.875   4.294  50.540  1.00  0.00     0.031 A 
HETATM    5  C4  UNL     1      23.952   5.134  49.464  1.00  0.00     0.135 A 
HETATM    6  N1  UNL     1      25.169   5.256  48.914  1.00  0.00    -0.230 NA
HETATM    7  C5  UNL     1      26.273   4.622  49.347  1.00  0.00     0.225 A 
HETATM    8 CL1  UNL     1      27.813   4.859  48.548  1.00  0.00    -0.041 Cl
HETATM    9  N2  UNL     1      26.138   3.807  50.411  1.00  0.00    -0.193 NA
BRANCH   4  10
HETATM   10  C2  UNL     1      22.606   4.082  51.218  1.00  0.00    -0.009 C 
HETATM   11  C1  UNL     1      22.008   5.090  51.834  1.00  0.00     0.032 C 
ENDBRANCH   4  10
ENDBRANCH   2   3
ENDBRANCH   1   2
BRANCH   1  12
HETATM   12  C8  UNL     1      25.299   0.556  52.485  1.00  0.00     0.056 C 
BRANCH  12  13
HETATM   13  C9  UNL     1      24.913  -0.373  53.605  1.00  0.00     0.230 C 
HETATM   14  F1  UNL     1      25.873  -1.399  53.680  1.00  0.00    -0.255 F 
ENDBRANCH  12  13
BRANCH  12  15
HETATM   15  C10 UNL     1      26.747   0.581  52.148  1.00  0.00     0.123 C 
BRANCH  15  16
HETATM   16  N3  UNL     1      27.552   1.628  52.555  1.00  0.00    -0.414 N 
HETATM   17  H12 UNL     1      27.534   2.479  51.966  1.00  0.00     0.153 HD
BRANCH  16  18
HETATM   18  C11 UNL     1      28.565   1.624  53.486  1.00  0.00     0.192 C 
BRANCH  18  19
HETATM   19  C12 UNL     1      28.794   0.297  54.161  1.00  0.00     0.140 C 
HETATM   20  C13 UNL     1      29.875  -0.575  53.565  1.00  0.00     0.092 C 
HETATM   21  O2  UNL     1      28.246  -0.201  55.125  1.00  0.00    -0.297 OA
ENDBRANCH  18  19
ENDBRANCH  16  18
ENDBRANCH  15  16
ENDBRANCH  12  15
ENDBRANCH   1  12
TORSDOF 9
ENDMDL
MODEL 5
REMARK VINA RESULT:      -6.0      1.905      2.790
REMARK  9 active torsions:
REMARK  status: ('A' for Active; 'I' for Inactive)
REMARK    1  A    between atoms: C2_2  and  C3_3 
REMARK    2  A    between atoms: C6_9  and  O1_10 
REMARK    3  A    between atoms: O1_10  and  C7_11 
REMARK    4  A    between atoms: C7_11  and  C8_12 
REMARK    5  A    between atoms: C8_12  and  C9_13 
REMARK    6  A    between atoms: C8_12  and  C10_15 
REMARK    7  A    between atoms: C10_15  and  N3_16 
REMARK    8  A    between atoms: N3_16  and  C11_17 
REMARK    9  A    between atoms: C11_17  and  C12_18 
ROOT
HETATM    1  C7  UNL     1      25.427   2.288  51.411  1.00  0.00     0.186 C 
ENDROOT
BRANCH   1   2
HETATM    2  O1  UNL     1      24.380   1.947  52.121  1.00  0.00    -0.333 OA
BRANCH   2   3
HETATM    3  C6  UNL     1      23.243   1.573  52.568  1.00  0.00     0.178 A 
HETATM    4  C3  UNL     1      22.119   2.361  52.285  1.00  0.00     0.031 A 
HETATM    5  C4  UNL     1      20.859   2.052  52.715  1.00  0.00     0.135 A 
HETATM    6  N1  UNL     1      20.756   0.928  53.439  1.00  0.00    -0.230 NA
HETATM    7  C5  UNL     1      21.785   0.121  53.751  1.00  0.00     0.225 A 
HETATM    8 CL1  UNL     1      21.531  -1.325  54.706  1.00  0.00    -0.041 Cl
HETATM    9  N2  UNL     1      23.004   0.474  53.300  1.00  0.00    -0.193 NA
BRANCH   4  10
HETATM   10  C2  UNL     1      22.353   3.558  51.492  1.00  0.00    -0.009 C 
HETATM   11  C1  UNL     1      21.835   4.716  51.873  1.00  0.00     0.032 C 
ENDBRANCH   4  10
ENDBRANCH   2   3
ENDBRANCH   1   2
BRANCH   1  12
HETATM   12  C8  UNL     1      26.725   1.640  51.995  1.00  0.00     0.056 C 
BRANCH  12  13
HETATM   13  C9  UNL     1      26.508   0.171  51.753  1.00  0.00     0.230 C 
HETATM   14  F1  UNL     1      26.160  -0.433  52.976  1.00  0.00    -0.255 F 
ENDBRANCH  12  13
BRANCH  12  15
HETATM   15  C10 UNL     1      26.859   2.038  53.422  1.00  0.00     0.123 C 
BRANCH  15  16
HETATM   16  N3  UNL     1      28.044   2.565  53.903  1.00  0.00    -0.414 N 
HETATM   17  H12 UNL     1      28.201   3.574  53.733  1.00  0.00     0.153 HD
BRANCH  16  18
HETATM   18  C11 UNL     1      29.161   1.900  54.351  1.00  0.00     0.192 C 
BRANCH  18  19
HETATM   19  C12 UNL     1      28.996   0.408  54.485  1.00  0.00     0.140 C 
HETATM   20  C13 UNL     1      29.807  -0.439  53.533  1.00  0.00     0.092 C 
HETATM   21  O2  UNL     1      28.306  -0.242  55.245  1.00  0.00    -0.297 OA
ENDBRANCH  18  19
ENDBRANCH  16  18
ENDBRANCH  15  16
ENDBRANCH  12  15
ENDBRANCH   1  12
TORSDOF 9
ENDMDL
MODEL 6
REMARK VINA RESULT:      -6.0      2.617      6.159
REMARK  9 active torsions:
REMARK  status: ('A' for Active; 'I' for Inactive)
REMARK    1  A    between atoms: C2_2  and  C3_3 
REMARK    2  A    between atoms: C6_9  and  O1_10 
REMARK    3  A    between atoms: O1_10  and  C7_11 
REMARK    4  A    between atoms: C7_11  and  C8_12 
REMARK    5  A    between atoms: C8_12  and  C9_13 
REMARK    6  A    between atoms: C8_12  and  C10_15 
REMARK    7  A    between atoms: C10_15  and  N3_16 
REMARK    8  A    between atoms: N3_16  and  C11_17 
REMARK    9  A    between atoms: C11_17  and  C12_18 
ROOT
HETATM    1  C7  UNL     1      23.749  -0.734  53.612  1.00  0.00     0.186 C 
ENDROOT
BRANCH   1   2
HETATM    2  O1  UNL     1      24.709   0.095  53.282  1.00  0.00    -0.333 OA
BRANCH   2   3
HETATM    3  C6  UNL     1      25.506   0.922  52.723  1.00  0.00     0.178 A 
HETATM    4  C3  UNL     1      26.751   1.163  53.322  1.00  0.00     0.031 A 
HETATM    5  C4  UNL     1      27.675   2.029  52.808  1.00  0.00     0.135 A 
HETATM    6  N1  UNL     1      27.318   2.648  51.674  1.00  0.00    -0.230 NA
HETATM    7  C5  UNL     1      26.145   2.469  51.040  1.00  0.00     0.225 A 
HETATM    8 CL1  UNL     1      25.786   3.334  49.560  1.00  0.00    -0.041 Cl
HETATM    9  N2  UNL     1      25.272   1.604  51.591  1.00  0.00    -0.193 NA
BRANCH   4  10
HETATM   10  C2  UNL     1      27.028   0.435  54.550  1.00  0.00    -0.009 C 
HETATM   11  C1  UNL     1      28.275   0.118  54.865  1.00  0.00     0.032 C 
ENDBRANCH   4  10
ENDBRANCH   2   3
ENDBRANCH   1   2
BRANCH   1  12
HETATM   12  C8  UNL     1      22.389   0.026  53.752  1.00  0.00     0.056 C 
BRANCH  12  13
HETATM   13  C9  UNL     1      21.649  -0.793  54.775  1.00  0.00     0.230 C 
HETATM   14  F1  UNL     1      21.741  -2.149  54.408  1.00  0.00    -0.255 F 
ENDBRANCH  12  13
BRANCH  12  15
HETATM   15  C10 UNL     1      21.745   0.107  52.413  1.00  0.00     0.123 C 
BRANCH  15  16
HETATM   16  N3  UNL     1      22.175   1.028  51.475  1.00  0.00    -0.414 N 
HETATM   17  H12 UNL     1      23.186   1.023  51.255  1.00  0.00     0.153 HD
BRANCH  16  18
HETATM   18  C11 UNL     1      21.507   2.120  50.974  1.00  0.00     0.192 C 
BRANCH  18  19
HETATM   19  C12 UNL     1      21.292   3.236  51.963  1.00  0.00     0.140 C 
HETATM   20  C13 UNL     1      22.494   4.102  52.260  1.00  0.00     0.092 C 
HETATM   21  O2  UNL     1      20.294   3.564  52.574  1.00  0.00    -0.297 OA
ENDBRANCH  18  19
ENDBRANCH  16  18
ENDBRANCH  15  16
ENDBRANCH  12  15
ENDBRANCH   1  12
TORSDOF 9
ENDMDL
MODEL 7
REMARK VINA RESULT:      -6.0      4.275      5.801
REMARK  9 active torsions:
REMARK  status: ('A' for Active; 'I' for Inactive)
REMARK    1  A    between atoms: C2_2  and  C3_3 
REMARK    2  A    between atoms: C6_9  and  O1_10 
REMARK    3  A    between atoms: O1_10  and  C7_11 
REMARK    4  A    between atoms: C7_11  and  C8_12 
REMARK    5  A    between atoms: C8_12  and  C9_13 
REMARK    6  A    between atoms: C8_12  and  C10_15 
REMARK    7  A    between atoms: C10_15  and  N3_16 
REMARK    8  A    between atoms: N3_16  and  C11_17 
REMARK    9  A    between atoms: C11_17  and  C12_18 
ROOT
HETATM    1  C7  UNL     1      24.487   2.459  50.816  1.00  0.00     0.186 C 
ENDROOT
BRANCH   1   2
HETATM    2  O1  UNL     1      25.035   1.484  51.499  1.00  0.00    -0.333 OA
BRANCH   2   3
HETATM    3  C6  UNL     1      25.616   0.730  52.351  1.00  0.00     0.178 A 
HETATM    4  C3  UNL     1      24.833   0.079  53.315  1.00  0.00     0.031 A 
HETATM    5  C4  UNL     1      25.354  -0.747  54.271  1.00  0.00     0.135 A 
HETATM    6  N1  UNL     1      26.685  -0.903  54.236  1.00  0.00    -0.230 NA
HETATM    7  C5  UNL     1      27.502  -0.315  53.344  1.00  0.00     0.225 A 
HETATM    8 CL1  UNL     1      29.230  -0.593  53.394  1.00  0.00    -0.041 Cl
HETATM    9  N2  UNL     1      26.934   0.489  52.424  1.00  0.00    -0.193 NA
BRANCH   4  10
HETATM   10  C2  UNL     1      23.401   0.326  53.256  1.00  0.00    -0.009 C 
HETATM   11  C1  UNL     1      22.555  -0.693  53.203  1.00  0.00     0.032 C 
ENDBRANCH   4  10
ENDBRANCH   2   3
ENDBRANCH   1   2
BRANCH   1  12
HETATM   12  C8  UNL     1      24.788   3.840  51.487  1.00  0.00     0.056 C 
BRANCH  12  13
HETATM   13  C9  UNL     1      23.746   3.924  52.569  1.00  0.00     0.230 C 
HETATM   14  F1  UNL     1      24.350   3.580  53.793  1.00  0.00    -0.255 F 
ENDBRANCH  12  13
BRANCH  12  15
HETATM   15  C10 UNL     1      24.717   4.902  50.448  1.00  0.00     0.123 C 
BRANCH  15  16
HETATM   16  N3  UNL     1      25.836   5.642  50.113  1.00  0.00    -0.414 N 
HETATM   17  H12 UNL     1      26.338   6.097  50.896  1.00  0.00     0.153 HD
BRANCH  16  18
HETATM   18  C11 UNL     1      26.241   6.075  48.872  1.00  0.00     0.192 C 
BRANCH  18  19
HETATM   19  C12 UNL     1      27.628   5.641  48.476  1.00  0.00     0.140 C 
HETATM   20  C13 UNL     1      28.519   6.713  47.891  1.00  0.00     0.092 C 
HETATM   21  O2  UNL     1      28.163   4.552  48.550  1.00  0.00    -0.297 OA
ENDBRANCH  18  19
ENDBRANCH  16  18
ENDBRANCH  15  16
ENDBRANCH  12  15
ENDBRANCH   1  12
TORSDOF 9
ENDMDL
MODEL 8
REMARK VINA RESULT:      -6.0      2.062      2.528
REMARK  9 active torsions:
REMARK  status: ('A' for Active; 'I' for Inactive)
REMARK    1  A    between atoms: C2_2  and  C3_3 
REMARK    2  A    between atoms: C6_9  and  O1_10 
REMARK    3  A    between atoms: O1_10  and  C7_11 
REMARK    4  A    between atoms: C7_11  and  C8_12 
REMARK    5  A    between atoms: C8_12  and  C9_13 
REMARK    6  A    between atoms: C8_12  and  C10_15 
REMARK    7  A    between atoms: C10_15  and  N3_16 
REMARK    8  A    between atoms: N3_16  and  C11_17 
REMARK    9  A    between atoms: C11_17  and  C12_18 
ROOT
HETATM    1  C7  UNL     1      25.007   0.661  53.143  1.00  0.00     0.186 C 
ENDROOT
BRANCH   1   2
HETATM    2  O1  UNL     1      23.779   0.805  52.713  1.00  0.00    -0.333 OA
BRANCH   2   3
HETATM    3  C6  UNL     1      22.669   0.797  52.078  1.00  0.00     0.178 A 
HETATM    4  C3  UNL     1      21.507   0.414  52.763  1.00  0.00     0.031 A 
HETATM    5  C4  UNL     1      20.273   0.370  52.179  1.00  0.00     0.135 A 
HETATM    6  N1  UNL     1      20.234   0.723  50.886  1.00  0.00    -0.230 NA
HETATM    7  C5  UNL     1      21.302   1.103  50.162  1.00  0.00     0.225 A 
HETATM    8 CL1  UNL     1      21.130   1.542  48.476  1.00  0.00    -0.041 Cl
HETATM    9  N2  UNL     1      22.494   1.127  50.790  1.00  0.00    -0.193 NA
BRANCH   4  10
HETATM   10  C2  UNL     1      21.673   0.052  54.162  1.00  0.00    -0.009 C 
HETATM   11  C1  UNL     1      21.439  -1.191  54.556  1.00  0.00     0.032 C 
ENDBRANCH   4  10
ENDBRANCH   2   3
ENDBRANCH   1   2
BRANCH   1  12
HETATM   12  C8  UNL     1      25.289  -0.831  53.520  1.00  0.00     0.056 C 
BRANCH  12  13
HETATM   13  C9  UNL     1      25.275  -0.808  55.025  1.00  0.00     0.230 C 
HETATM   14  F1  UNL     1      26.027   0.301  55.457  1.00  0.00    -0.255 F 
ENDBRANCH  12  13
BRANCH  12  15
HETATM   15  C10 UNL     1      26.575  -1.247  52.900  1.00  0.00     0.123 C 
BRANCH  15  16
HETATM   16  N3  UNL     1      27.595  -0.335  52.703  1.00  0.00    -0.414 N 
HETATM   17  H12 UNL     1      27.628   0.125  51.776  1.00  0.00     0.153 HD
BRANCH  16  18
HETATM   18  C11 UNL     1      28.723  -0.128  53.462  1.00  0.00     0.192 C 
BRANCH  18  19
HETATM   19  C12 UNL     1      28.783   1.211  54.150  1.00  0.00     0.140 C 
HETATM   20  C13 UNL     1      28.359   2.403  53.323  1.00  0.00     0.092 C 
HETATM   21  O2  UNL     1      29.121   1.500  55.281  1.00  0.00    -0.297 OA
ENDBRANCH  18  19
ENDBRANCH  16  18
ENDBRANCH  15  16
ENDBRANCH  12  15
ENDBRANCH   1  12
TORSDOF 9
ENDMDL
MODEL 9
REMARK VINA RESULT:      -5.9      2.960      4.542
REMARK  9 active torsions:
REMARK  status: ('A' for Active; 'I' for Inactive)
REMARK    1  A    between atoms: C2_2  and  C3_3 
REMARK    2  A    between atoms: C6_9  and  O1_10 
REMARK    3  A    between atoms: O1_10  and  C7_11 
REMARK    4  A    between atoms: C7_11  and  C8_12 
REMARK    5  A    between atoms: C8_12  and  C9_13 
REMARK    6  A    between atoms: C8_12  and  C10_15 
REMARK    7  A    between atoms: C10_15  and  N3_16 
REMARK    8  A    between atoms: N3_16  and  C11_17 
REMARK    9  A    between atoms: C11_17  and  C12_18 
ROOT
HETATM    1  C7  UNL     1      23.942   1.824  51.636  1.00  0.00     0.186 C 
ENDROOT
BRANCH   1   2
HETATM    2  O1  UNL     1      24.133   3.043  51.196  1.00  0.00    -0.333 OA
BRANCH   2   3
HETATM    3  C6  UNL     1      24.046   4.253  50.794  1.00  0.00     0.178 A 
HETATM    4  C3  UNL     1      25.119   4.800  50.075  1.00  0.00     0.031 A 
HETATM    5  C4  UNL     1      25.128   6.082  49.601  1.00  0.00     0.135 A 
HETATM    6  N1  UNL     1      24.029   6.803  49.868  1.00  0.00    -0.230 NA
HETATM    7  C5  UNL     1      22.961   6.350  50.548  1.00  0.00     0.225 A 
HETATM    8 CL1  UNL     1      21.579   7.385  50.836  1.00  0.00    -0.041 Cl
HETATM    9  N2  UNL     1      23.007   5.079  50.991  1.00  0.00    -0.193 NA
BRANCH   4  10
HETATM   10  C2  UNL     1      26.257   3.923  49.848  1.00  0.00    -0.009 C 
HETATM   11  C1  UNL     1      27.201   4.273  48.987  1.00  0.00     0.032 C 
ENDBRANCH   4  10
ENDBRANCH   2   3
ENDBRANCH   1   2
BRANCH   1  12
HETATM   12  C8  UNL     1      25.186   1.327  52.442  1.00  0.00     0.056 C 
BRANCH  12  13
HETATM   13  C9  UNL     1      24.754  -0.030  52.928  1.00  0.00     0.230 C 
HETATM   14  F1  UNL     1      25.896  -0.844  53.042  1.00  0.00    -0.255 F 
ENDBRANCH  12  13
BRANCH  12  15
HETATM   15  C10 UNL     1      25.494   2.318  53.508  1.00  0.00     0.123 C 
BRANCH  15  16
HETATM   16  N3  UNL     1      26.800   2.569  53.887  1.00  0.00    -0.414 N 
HETATM   17  H12 UNL     1      26.933   3.239  54.664  1.00  0.00     0.153 HD
BRANCH  16  18
HETATM   18  C11 UNL     1      27.963   2.255  53.223  1.00  0.00     0.192 C 
BRANCH  18  19
HETATM   19  C12 UNL     1      29.062   1.713  54.100  1.00  0.00     0.140 C 
HETATM   20  C13 UNL     1      29.510   0.301  53.807  1.00  0.00     0.092 C 
HETATM   21  O2  UNL     1      29.662   2.232  55.021  1.00  0.00    -0.297 OA
ENDBRANCH  18  19
ENDBRANCH  16  18
ENDBRANCH  15  16
ENDBRANCH  12  15
ENDBRANCH   1  12
TORSDOF 9
ENDMDL
