MODEL 1
REMARK VINA RESULT:      -8.4      0.000      0.000
REMARK  5 active torsions:
REMARK  status: ('A' for Active; 'I' for Inactive)
REMARK    1  A    between atoms: C5_5  and  C6_6 
REMARK    2  A    between atoms: C6_6  and  C7_7 
REMARK    3  A    between atoms: C8_8  and  C9_9 
REMARK    4  A    between atoms: N1_15  and  N2_16 
REMARK    5  A    between atoms: N2_16  and  C15_17 
ROOT
HETATM    1  C6  UNL     1      23.799   1.259  53.080  1.00  0.00     0.087 C 
HETATM    2  N1  UNL     1      23.684   2.483  52.791  1.00  0.00    -0.172 NA
ENDROOT
BRANCH   1   3
HETATM    3  C5  UNL     1      22.475   0.653  53.152  1.00  0.00    -0.006 A 
HETATM    4  C4  UNL     1      22.226  -0.528  53.813  1.00  0.00     0.014 A 
HETATM    5  C3  UNL     1      20.956  -1.112  53.887  1.00  0.00     0.007 A 
HETATM    6  C2  UNL     1      19.875  -0.513  53.284  1.00  0.00    -0.062 A 
HETATM    7  C1  UNL     1      18.528  -1.125  53.358  1.00  0.00     0.048 C 
HETATM    8  C17 UNL     1      20.073   0.690  52.598  1.00  0.00     0.007 A 
HETATM    9  C16 UNL     1      21.353   1.198  52.573  1.00  0.00     0.014 A 
ENDBRANCH   1   3
BRANCH   1  10
HETATM   10  C7  UNL     1      24.979   0.455  53.334  1.00  0.00     0.035 C 
HETATM   11  C8  UNL     1      25.926   0.145  52.496  1.00  0.00     0.014 C 
BRANCH  11  12
HETATM   12  C9  UNL     1      27.100  -0.662  52.777  1.00  0.00    -0.036 A 
HETATM   13  C10 UNL     1      27.136  -2.023  52.622  1.00  0.00     0.011 A 
HETATM   14  C11 UNL     1      28.221  -2.817  52.877  1.00  0.00     0.001 A 
HETATM   15  C12 UNL     1      29.394  -2.218  53.333  1.00  0.00     0.000 A 
HETATM   16  C13 UNL     1      29.386  -0.852  53.497  1.00  0.00     0.001 A 
HETATM   17  C14 UNL     1      28.274  -0.108  53.227  1.00  0.00     0.011 A 
ENDBRANCH  11  12
ENDBRANCH   1  10
BRANCH   2  18
HETATM   18  N2  UNL     1      24.683   3.413  52.628  1.00  0.00    -0.248 N 
HETATM   19  H13 UNL     1      25.590   3.922  52.548  1.00  0.00     0.191 HD
BRANCH  18  20
HETATM   20  C15 UNL     1      23.685   4.421  52.396  1.00  0.00     0.298 A 
HETATM   21  N3  UNL     1      23.770   5.851  52.444  1.00  0.00     0.038 N 
HETATM   22  H14 UNL     1      24.067   6.770  52.802  1.00  0.00     0.302 HD
HETATM   23  H15 UNL     1      24.065   6.762  52.799  1.00  0.00     0.302 HD
HETATM   24  S1  UNL     1      22.162   4.873  52.021  1.00  0.00     0.143 SA
ENDBRANCH  18  20
ENDBRANCH   2  18
TORSDOF 5
ENDMDL
MODEL 2
REMARK VINA RESULT:      -8.3      0.258      1.048
REMARK  5 active torsions:
REMARK  status: ('A' for Active; 'I' for Inactive)
REMARK    1  A    between atoms: C5_5  and  C6_6 
REMARK    2  A    between atoms: C6_6  and  C7_7 
REMARK    3  A    between atoms: C8_8  and  C9_9 
REMARK    4  A    between atoms: N1_15  and  N2_16 
REMARK    5  A    between atoms: N2_16  and  C15_17 
ROOT
HETATM    1  C6  UNL     1      23.931   1.462  52.907  1.00  0.00     0.087 C 
HETATM    2  N1  UNL     1      23.772   2.649  52.507  1.00  0.00    -0.172 NA
ENDROOT
BRANCH   1   3
HETATM    3  C5  UNL     1      22.630   0.820  53.045  1.00  0.00    -0.006 A 
HETATM    4  C4  UNL     1      21.514   1.231  52.352  1.00  0.00     0.014 A 
HETATM    5  C3  UNL     1      20.263   0.616  52.480  1.00  0.00     0.007 A 
HETATM    6  C2  UNL     1      20.093  -0.453  53.327  1.00  0.00    -0.062 A 
HETATM    7  C1  UNL     1      18.772  -1.108  53.467  1.00  0.00     0.048 C 
HETATM    8  C17 UNL     1      21.196  -0.912  54.056  1.00  0.00     0.007 A 
HETATM    9  C16 UNL     1      22.391  -0.252  53.873  1.00  0.00     0.014 A 
ENDBRANCH   1   3
BRANCH   1  10
HETATM   10  C7  UNL     1      25.140   0.726  53.224  1.00  0.00     0.035 C 
HETATM   11  C8  UNL     1      25.907   0.065  52.406  1.00  0.00     0.014 C 
BRANCH  11  12
HETATM   12  C9  UNL     1      27.115  -0.663  52.750  1.00  0.00    -0.036 A 
HETATM   13  C10 UNL     1      27.251  -2.018  52.596  1.00  0.00     0.011 A 
HETATM   14  C11 UNL     1      28.371  -2.740  52.909  1.00  0.00     0.001 A 
HETATM   15  C12 UNL     1      29.475  -2.066  53.429  1.00  0.00     0.000 A 
HETATM   16  C13 UNL     1      29.366  -0.704  53.594  1.00  0.00     0.001 A 
HETATM   17  C14 UNL     1      28.224  -0.034  53.264  1.00  0.00     0.011 A 
ENDBRANCH  11  12
ENDBRANCH   1  10
BRANCH   2  18
HETATM   18  N2  UNL     1      24.738   3.594  52.251  1.00  0.00    -0.248 N 
HETATM   19  H13 UNL     1      25.625   4.115  52.082  1.00  0.00     0.191 HD
BRANCH  18  20
HETATM   20  C15 UNL     1      23.709   4.591  52.137  1.00  0.00     0.298 A 
HETATM   21  N3  UNL     1      23.778   6.021  52.216  1.00  0.00     0.038 N 
HETATM   22  H14 UNL     1      24.093   6.935  52.571  1.00  0.00     0.302 HD
HETATM   23  H15 UNL     1      24.091   6.927  52.569  1.00  0.00     0.302 HD
HETATM   24  S1  UNL     1      22.152   5.028  51.913  1.00  0.00     0.143 SA
ENDBRANCH  18  20
ENDBRANCH   2  18
TORSDOF 5
ENDMDL
MODEL 3
REMARK VINA RESULT:      -8.2      3.379      6.906
REMARK  5 active torsions:
REMARK  status: ('A' for Active; 'I' for Inactive)
REMARK    1  A    between atoms: C5_5  and  C6_6 
REMARK    2  A    between atoms: C6_6  and  C7_7 
REMARK    3  A    between atoms: C8_8  and  C9_9 
REMARK    4  A    between atoms: N1_15  and  N2_16 
REMARK    5  A    between atoms: N2_16  and  C15_17 
ROOT
HETATM    1  C6  UNL     1      25.515   1.727  51.687  1.00  0.00     0.087 C 
HETATM    2  N1  UNL     1      24.432   1.111  51.891  1.00  0.00    -0.172 NA
ENDROOT
BRANCH   1   3
HETATM    3  C5  UNL     1      26.620   0.962  52.250  1.00  0.00    -0.006 A 
HETATM    4  C4  UNL     1      26.677  -0.413  52.210  1.00  0.00     0.014 A 
HETATM    5  C3  UNL     1      27.738  -1.152  52.747  1.00  0.00     0.007 A 
HETATM    6  C2  UNL     1      28.795  -0.516  53.354  1.00  0.00    -0.062 A 
HETATM    7  C1  UNL     1      29.920  -1.292  53.926  1.00  0.00     0.048 C 
HETATM    8  C17 UNL     1      28.787   0.881  53.423  1.00  0.00     0.007 A 
HETATM    9  C16 UNL     1      27.707   1.533  52.870  1.00  0.00     0.014 A 
ENDBRANCH   1   3
BRANCH   1  10
HETATM   10  C7  UNL     1      25.771   2.993  51.026  1.00  0.00     0.035 C 
HETATM   11  C8  UNL     1      26.330   3.187  49.867  1.00  0.00     0.014 C 
BRANCH  11  12
HETATM   12  C9  UNL     1      26.574   4.467  49.228  1.00  0.00    -0.036 A 
HETATM   13  C10 UNL     1      25.602   5.416  49.042  1.00  0.00     0.011 A 
HETATM   14  C11 UNL     1      25.791   6.632  48.444  1.00  0.00     0.001 A 
HETATM   15  C12 UNL     1      27.065   6.955  47.978  1.00  0.00     0.000 A 
HETATM   16  C13 UNL     1      28.060   6.021  48.152  1.00  0.00     0.001 A 
HETATM   17  C14 UNL     1      27.815   4.823  48.757  1.00  0.00     0.011 A 
ENDBRANCH  11  12
ENDBRANCH   1  10
BRANCH   2  18
HETATM   18  N2  UNL     1      23.161   1.485  51.524  1.00  0.00    -0.248 N 
HETATM   19  H13 UNL     1      22.317   1.892  51.063  1.00  0.00     0.191 HD
BRANCH  18  20
HETATM   20  C15 UNL     1      22.635   0.721  52.622  1.00  0.00     0.298 A 
HETATM   21  N3  UNL     1      23.250  -0.274  53.451  1.00  0.00     0.038 N 
HETATM   22  H14 UNL     1      23.848  -1.082  53.673  1.00  0.00     0.302 HD
HETATM   23  H15 UNL     1      23.843  -1.075  53.670  1.00  0.00     0.302 HD
HETATM   24  S1  UNL     1      21.423   0.316  53.638  1.00  0.00     0.143 SA
ENDBRANCH  18  20
ENDBRANCH   2  18
TORSDOF 5
ENDMDL
MODEL 4
REMARK VINA RESULT:      -7.8      1.914      6.354
REMARK  5 active torsions:
REMARK  status: ('A' for Active; 'I' for Inactive)
REMARK    1  A    between atoms: C5_5  and  C6_6 
REMARK    2  A    between atoms: C6_6  and  C7_7 
REMARK    3  A    between atoms: C8_8  and  C9_9 
REMARK    4  A    between atoms: N1_15  and  N2_16 
REMARK    5  A    between atoms: N2_16  and  C15_17 
ROOT
HETATM    1  C6  UNL     1      25.022   1.864  51.824  1.00  0.00     0.087 C 
HETATM    2  N1  UNL     1      25.342   2.958  51.281  1.00  0.00    -0.172 NA
ENDROOT
BRANCH   1   3
HETATM    3  C5  UNL     1      26.222   1.196  52.311  1.00  0.00    -0.006 A 
HETATM    4  C4  UNL     1      26.395  -0.168  52.256  1.00  0.00     0.014 A 
HETATM    5  C3  UNL     1      27.547  -0.814  52.720  1.00  0.00     0.007 A 
HETATM    6  C2  UNL     1      28.582  -0.091  53.265  1.00  0.00    -0.062 A 
HETATM    7  C1  UNL     1      29.804  -0.767  53.759  1.00  0.00     0.048 C 
HETATM    8  C17 UNL     1      28.457   1.301  53.346  1.00  0.00     0.007 A 
HETATM    9  C16 UNL     1      27.292   1.858  52.867  1.00  0.00     0.014 A 
ENDBRANCH   1   3
BRANCH   1  10
HETATM   10  C7  UNL     1      23.723   1.243  52.001  1.00  0.00     0.035 C 
HETATM   11  C8  UNL     1      23.225   0.735  53.091  1.00  0.00     0.014 C 
BRANCH  11  12
HETATM   12  C9  UNL     1      21.919   0.119  53.240  1.00  0.00    -0.036 A 
HETATM   13  C10 UNL     1      21.670  -0.928  54.089  1.00  0.00     0.011 A 
HETATM   14  C11 UNL     1      20.455  -1.536  54.257  1.00  0.00     0.001 A 
HETATM   15  C12 UNL     1      19.369  -1.071  53.516  1.00  0.00     0.000 A 
HETATM   16  C13 UNL     1      19.591  -0.020  52.656  1.00  0.00     0.001 A 
HETATM   17  C14 UNL     1      20.824   0.549  52.528  1.00  0.00     0.011 A 
ENDBRANCH  11  12
ENDBRANCH   1  10
BRANCH   2  18
HETATM   18  N2  UNL     1      24.516   3.889  50.697  1.00  0.00    -0.248 N 
HETATM   19  H13 UNL     1      23.711   4.470  50.376  1.00  0.00     0.191 HD
BRANCH  18  20
HETATM   20  C15 UNL     1      25.662   4.488  50.068  1.00  0.00     0.298 A 
HETATM   21  N3  UNL     1      26.127   5.844  50.066  1.00  0.00     0.038 N 
HETATM   22  H14 UNL     1      26.051   6.871  50.035  1.00  0.00     0.302 HD
HETATM   23  H15 UNL     1      26.051   6.862  50.036  1.00  0.00     0.302 HD
HETATM   24  S1  UNL     1      27.008   4.393  49.149  1.00  0.00     0.143 SA
ENDBRANCH  18  20
ENDBRANCH   2  18
TORSDOF 5
ENDMDL
MODEL 5
REMARK VINA RESULT:      -7.8      2.556      4.391
REMARK  5 active torsions:
REMARK  status: ('A' for Active; 'I' for Inactive)
REMARK    1  A    between atoms: C5_5  and  C6_6 
REMARK    2  A    between atoms: C6_6  and  C7_7 
REMARK    3  A    between atoms: C8_8  and  C9_9 
REMARK    4  A    between atoms: N1_15  and  N2_16 
REMARK    5  A    between atoms: N2_16  and  C15_17 
ROOT
HETATM    1  C6  UNL     1      23.820   0.877  52.641  1.00  0.00     0.087 C 
HETATM    2  N1  UNL     1      22.696   0.498  53.074  1.00  0.00    -0.172 NA
ENDROOT
BRANCH   1   3
HETATM    3  C5  UNL     1      23.624   1.798  51.529  1.00  0.00    -0.006 A 
HETATM    4  C4  UNL     1      24.356   2.954  51.376  1.00  0.00     0.014 A 
HETATM    5  C3  UNL     1      24.174   3.841  50.308  1.00  0.00     0.007 A 
HETATM    6  C2  UNL     1      23.228   3.587  49.343  1.00  0.00    -0.062 A 
HETATM    7  C1  UNL     1      23.028   4.522  48.211  1.00  0.00     0.048 C 
HETATM    8  C17 UNL     1      22.455   2.426  49.451  1.00  0.00     0.007 A 
HETATM    9  C16 UNL     1      22.697   1.606  50.531  1.00  0.00     0.014 A 
ENDBRANCH   1   3
BRANCH   1  10
HETATM   10  C7  UNL     1      25.162   0.532  53.070  1.00  0.00     0.035 C 
HETATM   11  C8  UNL     1      26.092  -0.061  52.379  1.00  0.00     0.014 C 
BRANCH  11  12
HETATM   12  C9  UNL     1      27.430  -0.393  52.834  1.00  0.00    -0.036 A 
HETATM   13  C10 UNL     1      28.336   0.541  53.264  1.00  0.00     0.011 A 
HETATM   14  C11 UNL     1      29.604   0.269  53.699  1.00  0.00     0.001 A 
HETATM   15  C12 UNL     1      30.033  -1.058  53.715  1.00  0.00     0.000 A 
HETATM   16  C13 UNL     1      29.143  -2.017  53.289  1.00  0.00     0.001 A 
HETATM   17  C14 UNL     1      27.888  -1.688  52.866  1.00  0.00     0.011 A 
ENDBRANCH  11  12
ENDBRANCH   1  10
BRANCH   2  18
HETATM   18  N2  UNL     1      22.434  -0.368  54.109  1.00  0.00    -0.248 N 
HETATM   19  H13 UNL     1      22.480  -0.996  54.941  1.00  0.00     0.191 HD
BRANCH  18  20
HETATM   20  C15 UNL     1      21.057  -0.416  53.700  1.00  0.00     0.298 A 
HETATM   21  N3  UNL     1      19.973  -1.238  54.152  1.00  0.00     0.038 N 
HETATM   22  H14 UNL     1      19.510  -2.099  54.476  1.00  0.00     0.302 HD
HETATM   23  H15 UNL     1      19.514  -2.091  54.474  1.00  0.00     0.302 HD
HETATM   24  S1  UNL     1      19.816   0.103  52.775  1.00  0.00     0.143 SA
ENDBRANCH  18  20
ENDBRANCH   2  18
TORSDOF 5
ENDMDL
MODEL 6
REMARK VINA RESULT:      -7.7      3.827      6.529
REMARK  5 active torsions:
REMARK  status: ('A' for Active; 'I' for Inactive)
REMARK    1  A    between atoms: C5_5  and  C6_6 
REMARK    2  A    between atoms: C6_6  and  C7_7 
REMARK    3  A    between atoms: C8_8  and  C9_9 
REMARK    4  A    between atoms: N1_15  and  N2_16 
REMARK    5  A    between atoms: N2_16  and  C15_17 
ROOT
HETATM    1  C6  UNL     1      25.719   3.578  49.799  1.00  0.00     0.087 C 
HETATM    2  N1  UNL     1      24.474   3.644  49.601  1.00  0.00    -0.172 NA
ENDROOT
BRANCH   1   3
HETATM    3  C5  UNL     1      26.371   4.714  49.159  1.00  0.00    -0.006 A 
HETATM    4  C4  UNL     1      27.701   4.713  48.804  1.00  0.00     0.014 A 
HETATM    5  C3  UNL     1      28.330   5.800  48.187  1.00  0.00     0.007 A 
HETATM    6  C2  UNL     1      27.626   6.947  47.904  1.00  0.00    -0.062 A 
HETATM    7  C1  UNL     1      28.286   8.102  47.253  1.00  0.00     0.048 C 
HETATM    8  C17 UNL     1      26.270   7.001  48.245  1.00  0.00     0.007 A 
HETATM    9  C16 UNL     1      25.727   5.889  48.848  1.00  0.00     0.014 A 
ENDBRANCH   1   3
BRANCH   1  10
HETATM   10  C7  UNL     1      26.511   2.595  50.513  1.00  0.00     0.035 C 
HETATM   11  C8  UNL     1      26.495   2.334  51.789  1.00  0.00     0.014 C 
BRANCH  11  12
HETATM   12  C9  UNL     1      27.299   1.342  52.479  1.00  0.00    -0.036 A 
HETATM   13  C10 UNL     1      28.400   1.653  53.232  1.00  0.00     0.011 A 
HETATM   14  C11 UNL     1      29.183   0.748  53.897  1.00  0.00     0.001 A 
HETATM   15  C12 UNL     1      28.855  -0.605  53.815  1.00  0.00     0.000 A 
HETATM   16  C13 UNL     1      27.752  -0.945  53.065  1.00  0.00     0.001 A 
HETATM   17  C14 UNL     1      27.007   0.000  52.423  1.00  0.00     0.011 A 
ENDBRANCH  11  12
ENDBRANCH   1  10
BRANCH   2  18
HETATM   18  N2  UNL     1      23.499   2.774  50.031  1.00  0.00    -0.248 N 
HETATM   19  H13 UNL     1      22.871   1.958  50.196  1.00  0.00     0.191 HD
BRANCH  18  20
HETATM   20  C15 UNL     1      22.992   3.798  50.903  1.00  0.00     0.298 A 
HETATM   21  N3  UNL     1      21.774   4.553  50.852  1.00  0.00     0.038 N 
HETATM   22  H14 UNL     1      21.004   5.078  50.414  1.00  0.00     0.302 HD
HETATM   23  H15 UNL     1      21.011   5.073  50.417  1.00  0.00     0.302 HD
HETATM   24  S1  UNL     1      23.121   4.758  52.218  1.00  0.00     0.143 SA
ENDBRANCH  18  20
ENDBRANCH   2  18
TORSDOF 5
ENDMDL
MODEL 7
REMARK VINA RESULT:      -7.7      3.141      4.545
REMARK  5 active torsions:
REMARK  status: ('A' for Active; 'I' for Inactive)
REMARK    1  A    between atoms: C5_5  and  C6_6 
REMARK    2  A    between atoms: C6_6  and  C7_7 
REMARK    3  A    between atoms: C8_8  and  C9_9 
REMARK    4  A    between atoms: N1_15  and  N2_16 
REMARK    5  A    between atoms: N2_16  and  C15_17 
ROOT
HETATM    1  C6  UNL     1      23.119   1.127  52.083  1.00  0.00     0.087 C 
HETATM    2  N1  UNL     1      22.059   0.676  52.599  1.00  0.00    -0.172 NA
ENDROOT
BRANCH   1   3
HETATM    3  C5  UNL     1      22.831   1.618  50.741  1.00  0.00    -0.006 A 
HETATM    4  C4  UNL     1      21.839   1.091  49.946  1.00  0.00     0.014 A 
HETATM    5  C3  UNL     1      21.558   1.562  48.658  1.00  0.00     0.007 A 
HETATM    6  C2  UNL     1      22.282   2.598  48.119  1.00  0.00    -0.062 A 
HETATM    7  C1  UNL     1      21.990   3.101  46.757  1.00  0.00     0.048 C 
HETATM    8  C17 UNL     1      23.304   3.171  48.885  1.00  0.00     0.007 A 
HETATM    9  C16 UNL     1      23.516   2.650  50.142  1.00  0.00     0.014 A 
ENDBRANCH   1   3
BRANCH   1  10
HETATM   10  C7  UNL     1      24.468   1.204  52.610  1.00  0.00     0.035 C 
HETATM   11  C8  UNL     1      25.497   0.482  52.272  1.00  0.00     0.014 C 
BRANCH  11  12
HETATM   12  C9  UNL     1      26.839   0.581  52.816  1.00  0.00    -0.036 A 
HETATM   13  C10 UNL     1      27.431   1.769  53.156  1.00  0.00     0.011 A 
HETATM   14  C11 UNL     1      28.692   1.904  53.670  1.00  0.00     0.001 A 
HETATM   15  C12 UNL     1      29.456   0.755  53.873  1.00  0.00     0.000 A 
HETATM   16  C13 UNL     1      28.885  -0.452  53.541  1.00  0.00     0.001 A 
HETATM   17  C14 UNL     1      27.622  -0.528  53.031  1.00  0.00     0.011 A 
ENDBRANCH  11  12
ENDBRANCH   1  10
BRANCH   2  18
HETATM   18  N2  UNL     1      21.892   0.121  53.847  1.00  0.00    -0.248 N 
HETATM   19  H13 UNL     1      22.001  -0.218  54.827  1.00  0.00     0.191 HD
BRANCH  18  20
HETATM   20  C15 UNL     1      20.560  -0.271  53.477  1.00  0.00     0.298 A 
HETATM   21  N3  UNL     1      19.692  -1.271  54.026  1.00  0.00     0.038 N 
HETATM   22  H14 UNL     1      19.436  -2.181  54.435  1.00  0.00     0.302 HD
HETATM   23  H15 UNL     1      19.439  -2.174  54.432  1.00  0.00     0.302 HD
HETATM   24  S1  UNL     1      19.228  -0.129  52.542  1.00  0.00     0.143 SA
ENDBRANCH  18  20
ENDBRANCH   2  18
TORSDOF 5
ENDMDL
MODEL 8
REMARK VINA RESULT:      -7.7      3.650      5.595
REMARK  5 active torsions:
REMARK  status: ('A' for Active; 'I' for Inactive)
REMARK    1  A    between atoms: C5_5  and  C6_6 
REMARK    2  A    between atoms: C6_6  and  C7_7 
REMARK    3  A    between atoms: C8_8  and  C9_9 
REMARK    4  A    between atoms: N1_15  and  N2_16 
REMARK    5  A    between atoms: N2_16  and  C15_17 
ROOT
HETATM    1  C6  UNL     1      25.380   1.168  52.083  1.00  0.00     0.087 C 
HETATM    2  N1  UNL     1      26.142   0.198  52.353  1.00  0.00    -0.172 NA
ENDROOT
BRANCH   1   3
HETATM    3  C5  UNL     1      24.023   0.849  52.509  1.00  0.00    -0.006 A 
HETATM    4  C4  UNL     1      23.694  -0.325  53.148  1.00  0.00     0.014 A 
HETATM    5  C3  UNL     1      22.393  -0.634  53.561  1.00  0.00     0.007 A 
HETATM    6  C2  UNL     1      21.361   0.247  53.339  1.00  0.00    -0.062 A 
HETATM    7  C1  UNL     1      19.982  -0.074  53.774  1.00  0.00     0.048 C 
HETATM    8  C17 UNL     1      21.640   1.456  52.693  1.00  0.00     0.007 A 
HETATM    9  C16 UNL     1      22.946   1.684  52.318  1.00  0.00     0.014 A 
ENDBRANCH   1   3
BRANCH   1  10
HETATM   10  C7  UNL     1      25.661   2.443  51.451  1.00  0.00     0.035 C 
HETATM   11  C8  UNL     1      25.807   2.687  50.181  1.00  0.00     0.014 C 
BRANCH  11  12
HETATM   12  C9  UNL     1      26.088   3.976  49.574  1.00  0.00    -0.036 A 
HETATM   13  C10 UNL     1      27.310   4.317  49.057  1.00  0.00     0.011 A 
HETATM   14  C11 UNL     1      27.614   5.520  48.479  1.00  0.00     0.001 A 
HETATM   15  C12 UNL     1      26.617   6.492  48.399  1.00  0.00     0.000 A 
HETATM   16  C13 UNL     1      25.380   6.176  48.911  1.00  0.00     0.001 A 
HETATM   17  C14 UNL     1      25.132   4.959  49.476  1.00  0.00     0.011 A 
ENDBRANCH  11  12
ENDBRANCH   1  10
BRANCH   2  18
HETATM   18  N2  UNL     1      27.492   0.090  52.117  1.00  0.00    -0.248 N 
HETATM   19  H13 UNL     1      28.446   0.029  51.699  1.00  0.00     0.191 HD
BRANCH  18  20
HETATM   20  C15 UNL     1      27.715  -0.017  53.533  1.00  0.00     0.298 A 
HETATM   21  N3  UNL     1      26.907  -0.593  54.568  1.00  0.00     0.038 N 
HETATM   22  H14 UNL     1      26.040  -0.824  55.073  1.00  0.00     0.302 HD
HETATM   23  H15 UNL     1      26.047  -0.821  55.068  1.00  0.00     0.302 HD
HETATM   24  S1  UNL     1      28.622   0.238  54.867  1.00  0.00     0.143 SA
ENDBRANCH  18  20
ENDBRANCH   2  18
TORSDOF 5
ENDMDL
MODEL 9
REMARK VINA RESULT:      -7.7      3.397      6.063
REMARK  5 active torsions:
REMARK  status: ('A' for Active; 'I' for Inactive)
REMARK    1  A    between atoms: C5_5  and  C6_6 
REMARK    2  A    between atoms: C6_6  and  C7_7 
REMARK    3  A    between atoms: C8_8  and  C9_9 
REMARK    4  A    between atoms: N1_15  and  N2_16 
REMARK    5  A    between atoms: N2_16  and  C15_17 
ROOT
HETATM    1  C6  UNL     1      25.400   2.196  52.412  1.00  0.00     0.087 C 
HETATM    2  N1  UNL     1      26.547   1.886  52.838  1.00  0.00    -0.172 NA
ENDROOT
BRANCH   1   3
HETATM    3  C5  UNL     1      24.418   1.255  52.937  1.00  0.00    -0.006 A 
HETATM    4  C4  UNL     1      24.766   0.114  53.624  1.00  0.00     0.014 A 
HETATM    5  C3  UNL     1      23.827  -0.791  54.133  1.00  0.00     0.007 A 
HETATM    6  C2  UNL     1      22.481  -0.571  53.960  1.00  0.00    -0.062 A 
HETATM    7  C1  UNL     1      21.481  -1.525  54.495  1.00  0.00     0.048 C 
HETATM    8  C17 UNL     1      22.072   0.574  53.268  1.00  0.00     0.007 A 
HETATM    9  C16 UNL     1      23.059   1.413  52.800  1.00  0.00     0.014 A 
ENDBRANCH   1   3
BRANCH   1  10
HETATM   10  C7  UNL     1      24.977   3.272  51.536  1.00  0.00     0.035 C 
HETATM   11  C8  UNL     1      25.020   3.304  50.235  1.00  0.00     0.014 C 
BRANCH  11  12
HETATM   12  C9  UNL     1      24.589   4.396  49.382  1.00  0.00    -0.036 A 
HETATM   13  C10 UNL     1      23.383   4.416  48.730  1.00  0.00     0.011 A 
HETATM   14  C11 UNL     1      22.941   5.424  47.918  1.00  0.00     0.001 A 
HETATM   15  C12 UNL     1      23.765   6.532  47.722  1.00  0.00     0.000 A 
HETATM   16  C13 UNL     1      24.982   6.539  48.365  1.00  0.00     0.001 A 
HETATM   17  C14 UNL     1      25.372   5.505  49.165  1.00  0.00     0.011 A 
ENDBRANCH  11  12
ENDBRANCH   1  10
BRANCH   2  18
HETATM   18  N2  UNL     1      27.745   2.511  52.583  1.00  0.00    -0.248 N 
HETATM   19  H13 UNL     1      28.520   3.101  52.211  1.00  0.00     0.191 HD
BRANCH  18  20
HETATM   20  C15 UNL     1      28.347   1.758  53.648  1.00  0.00     0.298 A 
HETATM   21  N3  UNL     1      29.410   2.096  54.549  1.00  0.00     0.038 N 
HETATM   22  H14 UNL     1      30.310   2.502  54.841  1.00  0.00     0.302 HD
HETATM   23  H15 UNL     1      30.302   2.499  54.838  1.00  0.00     0.302 HD
HETATM   24  S1  UNL     1      28.468   0.412  54.565  1.00  0.00     0.143 SA
ENDBRANCH  18  20
ENDBRANCH   2  18
TORSDOF 5
ENDMDL
