MODEL 1
REMARK VINA RESULT:      -7.7      0.000      0.000
REMARK  10 active torsions:
REMARK  status: ('A' for Active; 'I' for Inactive)
REMARK    1  A    between atoms: N1_2  and  C1_3 
REMARK    2  A    between atoms: C2_4  and  C3_5 
REMARK    3  A    between atoms: C3_5  and  C16_23 
REMARK    4  A    between atoms: N2_6  and  C4_7 
REMARK    5  A    between atoms: C4_7  and  N3_8 
REMARK    6  A    between atoms: N3_8  and  C5_9 
REMARK    7  A    between atoms: C9_13  and  O1_14 
REMARK    8  A    between atoms: O1_14  and  C10_15 
REMARK    9  A    between atoms: C10_15  and  C11_16 
REMARK   10  A    between atoms: C11_16  and  N4_17 
ROOT
HETATM    1  N3  UNL     1      25.099   3.406  49.751  1.00  0.00    -0.372 N 
HETATM    2  H5  UNL     1      24.634   2.821  49.023  1.00  0.00     0.161 HD
ENDROOT
BRANCH   1   3
HETATM    3  C4  UNL     1      24.936   3.164  51.159  1.00  0.00     0.271 C 
BRANCH   3   4
HETATM    4  N2  UNL     1      26.142   2.527  51.645  1.00  0.00    -0.270 NA
HETATM    5  C3  UNL     1      26.037   1.382  52.224  1.00  0.00     0.065 C 
BRANCH   5   6
HETATM    6  C2  UNL     1      24.691   0.895  52.301  1.00  0.00     0.046 C 
HETATM    7  C1  UNL     1      23.910   0.444  53.261  1.00  0.00     0.234 C 
BRANCH   7   8
HETATM    8  N1  UNL     1      22.613  -0.058  53.503  1.00  0.00    -0.249 NA
HETATM    9  S1  UNL     1      22.285  -1.036  54.760  1.00  0.00     0.002 SA
ENDBRANCH   7   8
ENDBRANCH   5   6
BRANCH   5  10
HETATM   10  C16 UNL     1      27.200   0.689  52.734  1.00  0.00     0.010 A 
HETATM   11  C17 UNL     1      27.420  -0.671  52.787  1.00  0.00     0.017 A 
HETATM   12  C18 UNL     1      28.566  -1.232  53.294  1.00  0.00     0.020 A 
HETATM   13  C19 UNL     1      29.569  -0.424  53.784  1.00  0.00     0.116 A 
HETATM   14  N6  UNL     1      29.360   0.913  53.735  1.00  0.00    -0.272 NA
HETATM   15  C20 UNL     1      28.253   1.456  53.246  1.00  0.00     0.130 A 
ENDBRANCH   5  10
ENDBRANCH   3   4
ENDBRANCH   1   3
BRANCH   1  16
HETATM   16  C5  UNL     1      25.919   4.478  49.302  1.00  0.00     0.031 A 
HETATM   17  C6  UNL     1      25.467   5.773  49.179  1.00  0.00     0.029 A 
HETATM   18  C7  UNL     1      26.298   6.800  48.736  1.00  0.00     0.005 A 
HETATM   19  C8  UNL     1      27.610   6.556  48.399  1.00  0.00     0.037 A 
HETATM   20  C9  UNL     1      28.107   5.252  48.509  1.00  0.00     0.070 A 
HETATM   21  C15 UNL     1      27.238   4.297  48.951  1.00  0.00     0.065 A 
BRANCH  20  22
HETATM   22  O1  UNL     1      29.427   4.976  48.177  1.00  0.00    -0.349 OA
BRANCH  22  23
HETATM   23  C10 UNL     1      30.337   6.059  48.153  1.00  0.00     0.196 C 
BRANCH  23  24
HETATM   24  C11 UNL     1      31.705   5.634  48.676  1.00  0.00     0.156 C 
BRANCH  24  25
HETATM   25  N4  UNL     1      32.321   4.847  47.608  1.00  0.00    -0.348 N 
HETATM   26  C12 UNL     1      32.774   3.582  47.725  1.00  0.00     0.111 A 
HETATM   27  C13 UNL     1      33.295   3.141  46.522  1.00  0.00     0.135 A 
HETATM   28  N5  UNL     1      33.131   4.195  45.697  1.00  0.00    -0.255 NA
HETATM   29  C14 UNL     1      32.552   5.214  46.334  1.00  0.00     0.209 A 
ENDBRANCH  24  25
ENDBRANCH  23  24
ENDBRANCH  22  23
ENDBRANCH  20  22
ENDBRANCH   1  16
TORSDOF 10
ENDMDL
MODEL 2
REMARK VINA RESULT:      -7.6      1.073      1.378
REMARK  10 active torsions:
REMARK  status: ('A' for Active; 'I' for Inactive)
REMARK    1  A    between atoms: N1_2  and  C1_3 
REMARK    2  A    between atoms: C2_4  and  C3_5 
REMARK    3  A    between atoms: C3_5  and  C16_23 
REMARK    4  A    between atoms: N2_6  and  C4_7 
REMARK    5  A    between atoms: C4_7  and  N3_8 
REMARK    6  A    between atoms: N3_8  and  C5_9 
REMARK    7  A    between atoms: C9_13  and  O1_14 
REMARK    8  A    between atoms: O1_14  and  C10_15 
REMARK    9  A    between atoms: C10_15  and  C11_16 
REMARK   10  A    between atoms: C11_16  and  N4_17 
ROOT
HETATM    1  N3  UNL     1      25.070   3.441  49.659  1.00  0.00    -0.372 N 
HETATM    2  H5  UNL     1      24.684   2.787  48.945  1.00  0.00     0.161 HD
ENDROOT
BRANCH   1   3
HETATM    3  C4  UNL     1      24.795   3.303  51.064  1.00  0.00     0.271 C 
BRANCH   3   4
HETATM    4  N2  UNL     1      25.940   2.669  51.682  1.00  0.00    -0.270 NA
HETATM    5  C3  UNL     1      25.766   1.541  52.277  1.00  0.00     0.065 C 
BRANCH   5   6
HETATM    6  C2  UNL     1      24.413   1.068  52.234  1.00  0.00     0.046 C 
HETATM    7  C1  UNL     1      23.671   0.277  52.982  1.00  0.00     0.234 C 
BRANCH   7   8
HETATM    8  N1  UNL     1      22.375  -0.274  53.081  1.00  0.00    -0.249 NA
HETATM    9  S1  UNL     1      21.605  -0.417  54.506  1.00  0.00     0.002 SA
ENDBRANCH   7   8
ENDBRANCH   5   6
BRANCH   5  10
HETATM   10  C16 UNL     1      26.865   0.851  52.916  1.00  0.00     0.010 A 
HETATM   11  C17 UNL     1      27.335  -0.419  52.658  1.00  0.00     0.017 A 
HETATM   12  C18 UNL     1      28.392  -0.986  53.326  1.00  0.00     0.020 A 
HETATM   13  C19 UNL     1      29.041  -0.276  54.313  1.00  0.00     0.116 A 
HETATM   14  N6  UNL     1      28.585   0.972  54.573  1.00  0.00    -0.272 NA
HETATM   15  C20 UNL     1      27.564   1.520  53.929  1.00  0.00     0.130 A 
ENDBRANCH   5  10
ENDBRANCH   3   4
ENDBRANCH   1   3
BRANCH   1  16
HETATM   16  C5  UNL     1      25.896   4.502  49.194  1.00  0.00     0.031 A 
HETATM   17  C6  UNL     1      25.434   5.781  48.983  1.00  0.00     0.029 A 
HETATM   18  C7  UNL     1      26.272   6.797  48.527  1.00  0.00     0.005 A 
HETATM   19  C8  UNL     1      27.601   6.557  48.267  1.00  0.00     0.037 A 
HETATM   20  C9  UNL     1      28.109   5.268  48.468  1.00  0.00     0.070 A 
HETATM   21  C15 UNL     1      27.233   4.324  48.916  1.00  0.00     0.065 A 
BRANCH  20  22
HETATM   22  O1  UNL     1      29.448   4.997  48.214  1.00  0.00    -0.349 OA
BRANCH  22  23
HETATM   23  C10 UNL     1      30.339   6.094  48.153  1.00  0.00     0.196 C 
BRANCH  23  24
HETATM   24  C11 UNL     1      31.327   6.059  49.315  1.00  0.00     0.156 C 
BRANCH  24  25
HETATM   25  N4  UNL     1      32.660   6.107  48.715  1.00  0.00    -0.348 N 
HETATM   26  C12 UNL     1      33.430   7.208  48.597  1.00  0.00     0.111 A 
HETATM   27  C13 UNL     1      34.630   6.896  47.983  1.00  0.00     0.135 A 
HETATM   28  N5  UNL     1      34.533   5.572  47.745  1.00  0.00    -0.255 NA
HETATM   29  C14 UNL     1      33.365   5.093  48.177  1.00  0.00     0.209 A 
ENDBRANCH  24  25
ENDBRANCH  23  24
ENDBRANCH  22  23
ENDBRANCH  20  22
ENDBRANCH   1  16
TORSDOF 10
ENDMDL
MODEL 3
REMARK VINA RESULT:      -7.5      3.628      6.857
REMARK  10 active torsions:
REMARK  status: ('A' for Active; 'I' for Inactive)
REMARK    1  A    between atoms: N1_2  and  C1_3 
REMARK    2  A    between atoms: C2_4  and  C3_5 
REMARK    3  A    between atoms: C3_5  and  C16_23 
REMARK    4  A    between atoms: N2_6  and  C4_7 
REMARK    5  A    between atoms: C4_7  and  N3_8 
REMARK    6  A    between atoms: N3_8  and  C5_9 
REMARK    7  A    between atoms: C9_13  and  O1_14 
REMARK    8  A    between atoms: O1_14  and  C10_15 
REMARK    9  A    between atoms: C10_15  and  C11_16 
REMARK   10  A    between atoms: C11_16  and  N4_17 
ROOT
HETATM    1  N3  UNL     1      26.359   2.646  49.977  1.00  0.00    -0.372 N 
HETATM    2  H5  UNL     1      26.233   1.879  49.281  1.00  0.00     0.161 HD
ENDROOT
BRANCH   1   3
HETATM    3  C4  UNL     1      26.524   2.394  51.383  1.00  0.00     0.271 C 
BRANCH   3   4
HETATM    4  N2  UNL     1      25.247   1.966  51.913  1.00  0.00    -0.270 NA
HETATM    5  C3  UNL     1      25.154   0.777  52.396  1.00  0.00     0.065 C 
BRANCH   5   6
HETATM    6  C2  UNL     1      26.377   0.031  52.334  1.00  0.00     0.046 C 
HETATM    7  C1  UNL     1      27.120  -0.628  53.199  1.00  0.00     0.234 C 
BRANCH   7   8
HETATM    8  N1  UNL     1      28.305  -1.387  53.304  1.00  0.00    -0.249 NA
HETATM    9  S1  UNL     1      29.741  -0.705  53.646  1.00  0.00     0.002 SA
ENDBRANCH   7   8
ENDBRANCH   5   6
BRANCH   5  10
HETATM   10  C16 UNL     1      23.909   0.282  52.942  1.00  0.00     0.010 A 
HETATM   11  C17 UNL     1      23.730  -0.565  54.014  1.00  0.00     0.017 A 
HETATM   12  C18 UNL     1      22.497  -0.978  54.455  1.00  0.00     0.020 A 
HETATM   13  C19 UNL     1      21.357  -0.542  53.815  1.00  0.00     0.116 A 
HETATM   14  N6  UNL     1      21.524   0.291  52.761  1.00  0.00    -0.272 NA
HETATM   15  C20 UNL     1      22.715   0.689  52.334  1.00  0.00     0.130 A 
ENDBRANCH   5  10
ENDBRANCH   3   4
ENDBRANCH   1   3
BRANCH   1  16
HETATM   16  C5  UNL     1      26.363   3.980  49.485  1.00  0.00     0.031 A 
HETATM   17  C6  UNL     1      27.463   4.564  48.897  1.00  0.00     0.029 A 
HETATM   18  C7  UNL     1      27.432   5.875  48.425  1.00  0.00     0.005 A 
HETATM   19  C8  UNL     1      26.294   6.641  48.533  1.00  0.00     0.037 A 
HETATM   20  C9  UNL     1      25.155   6.084  49.126  1.00  0.00     0.070 A 
HETATM   21  C15 UNL     1      25.256   4.796  49.564  1.00  0.00     0.065 A 
BRANCH  20  22
HETATM   22  O1  UNL     1      23.992   6.834  49.248  1.00  0.00    -0.349 OA
BRANCH  22  23
HETATM   23  C10 UNL     1      23.671   7.341  50.528  1.00  0.00     0.196 C 
BRANCH  23  24
HETATM   24  C11 UNL     1      22.160   7.362  50.743  1.00  0.00     0.156 C 
BRANCH  24  25
HETATM   25  N4  UNL     1      21.782   5.993  51.095  1.00  0.00    -0.348 N 
HETATM   26  C12 UNL     1      20.768   5.293  50.547  1.00  0.00     0.111 A 
HETATM   27  C13 UNL     1      20.690   4.032  51.111  1.00  0.00     0.135 A 
HETATM   28  N5  UNL     1      21.696   4.021  52.008  1.00  0.00    -0.255 NA
HETATM   29  C14 UNL     1      22.351   5.183  52.007  1.00  0.00     0.209 A 
ENDBRANCH  24  25
ENDBRANCH  23  24
ENDBRANCH  22  23
ENDBRANCH  20  22
ENDBRANCH   1  16
TORSDOF 10
ENDMDL
MODEL 4
REMARK VINA RESULT:      -7.5      1.933      3.600
REMARK  10 active torsions:
REMARK  status: ('A' for Active; 'I' for Inactive)
REMARK    1  A    between atoms: N1_2  and  C1_3 
REMARK    2  A    between atoms: C2_4  and  C3_5 
REMARK    3  A    between atoms: C3_5  and  C16_23 
REMARK    4  A    between atoms: N2_6  and  C4_7 
REMARK    5  A    between atoms: C4_7  and  N3_8 
REMARK    6  A    between atoms: N3_8  and  C5_9 
REMARK    7  A    between atoms: C9_13  and  O1_14 
REMARK    8  A    between atoms: O1_14  and  C10_15 
REMARK    9  A    between atoms: C10_15  and  C11_16 
REMARK   10  A    between atoms: C11_16  and  N4_17 
ROOT
HETATM    1  N3  UNL     1      25.385   3.569  49.671  1.00  0.00    -0.372 N 
HETATM    2  H5  UNL     1      24.527   3.331  49.128  1.00  0.00     0.161 HD
ENDROOT
BRANCH   1   3
HETATM    3  C4  UNL     1      25.744   2.890  50.887  1.00  0.00     0.271 C 
BRANCH   3   4
HETATM    4  N2  UNL     1      24.557   2.244  51.404  1.00  0.00    -0.270 NA
HETATM    5  C3  UNL     1      24.689   1.415  52.380  1.00  0.00     0.065 C 
BRANCH   5   6
HETATM    6  C2  UNL     1      26.044   1.253  52.821  1.00  0.00     0.046 C 
HETATM    7  C1  UNL     1      26.654   1.224  53.988  1.00  0.00     0.234 C 
BRANCH   7   8
HETATM    8  N1  UNL     1      27.927   1.080  54.580  1.00  0.00    -0.249 NA
HETATM    9  S1  UNL     1      29.048   0.066  53.981  1.00  0.00     0.002 SA
ENDBRANCH   7   8
ENDBRANCH   5   6
BRANCH   5  10
HETATM   10  C16 UNL     1      23.546   0.732  52.946  1.00  0.00     0.010 A 
HETATM   11  C17 UNL     1      23.516  -0.496  53.572  1.00  0.00     0.017 A 
HETATM   12  C18 UNL     1      22.370  -1.059  54.078  1.00  0.00     0.020 A 
HETATM   13  C19 UNL     1      21.171  -0.389  53.973  1.00  0.00     0.116 A 
HETATM   14  N6  UNL     1      21.192   0.818  53.360  1.00  0.00    -0.272 NA
HETATM   15  C20 UNL     1      22.298   1.362  52.870  1.00  0.00     0.130 A 
ENDBRANCH   5  10
ENDBRANCH   3   4
ENDBRANCH   1   3
BRANCH   1  16
HETATM   16  C5  UNL     1      26.211   4.610  49.164  1.00  0.00     0.031 A 
HETATM   17  C6  UNL     1      25.757   5.889  48.936  1.00  0.00     0.029 A 
HETATM   18  C7  UNL     1      26.595   6.885  48.438  1.00  0.00     0.005 A 
HETATM   19  C8  UNL     1      27.916   6.626  48.152  1.00  0.00     0.037 A 
HETATM   20  C9  UNL     1      28.415   5.336  48.370  1.00  0.00     0.070 A 
HETATM   21  C15 UNL     1      27.540   4.411  48.859  1.00  0.00     0.065 A 
BRANCH  20  22
HETATM   22  O1  UNL     1      29.744   5.044  48.091  1.00  0.00    -0.349 OA
BRANCH  22  23
HETATM   23  C10 UNL     1      30.731   5.892  48.647  1.00  0.00     0.196 C 
BRANCH  23  24
HETATM   24  C11 UNL     1      31.744   6.317  47.588  1.00  0.00     0.156 C 
BRANCH  24  25
HETATM   25  N4  UNL     1      32.950   5.529  47.841  1.00  0.00    -0.348 N 
HETATM   26  C12 UNL     1      33.147   4.249  47.463  1.00  0.00     0.111 A 
HETATM   27  C13 UNL     1      34.397   3.813  47.863  1.00  0.00     0.135 A 
HETATM   28  N5  UNL     1      34.924   4.885  48.489  1.00  0.00    -0.255 NA
HETATM   29  C14 UNL     1      34.071   5.911  48.481  1.00  0.00     0.209 A 
ENDBRANCH  24  25
ENDBRANCH  23  24
ENDBRANCH  22  23
ENDBRANCH  20  22
ENDBRANCH   1  16
TORSDOF 10
ENDMDL
MODEL 5
REMARK VINA RESULT:      -7.4      1.764      2.576
REMARK  10 active torsions:
REMARK  status: ('A' for Active; 'I' for Inactive)
REMARK    1  A    between atoms: N1_2  and  C1_3 
REMARK    2  A    between atoms: C2_4  and  C3_5 
REMARK    3  A    between atoms: C3_5  and  C16_23 
REMARK    4  A    between atoms: N2_6  and  C4_7 
REMARK    5  A    between atoms: C4_7  and  N3_8 
REMARK    6  A    between atoms: N3_8  and  C5_9 
REMARK    7  A    between atoms: C9_13  and  O1_14 
REMARK    8  A    between atoms: O1_14  and  C10_15 
REMARK    9  A    between atoms: C10_15  and  C11_16 
REMARK   10  A    between atoms: C11_16  and  N4_17 
ROOT
HETATM    1  N3  UNL     1      25.180   3.228  49.813  1.00  0.00    -0.372 N 
HETATM    2  H5  UNL     1      24.720   2.641  49.085  1.00  0.00     0.161 HD
ENDROOT
BRANCH   1   3
HETATM    3  C4  UNL     1      25.083   2.936  51.218  1.00  0.00     0.271 C 
BRANCH   3   4
HETATM    4  N2  UNL     1      26.288   2.239  51.614  1.00  0.00    -0.270 NA
HETATM    5  C3  UNL     1      26.182   1.257  52.439  1.00  0.00     0.065 C 
BRANCH   5   6
HETATM    6  C2  UNL     1      24.836   0.995  52.856  1.00  0.00     0.046 C 
HETATM    7  C1  UNL     1      24.086  -0.080  52.985  1.00  0.00     0.234 C 
BRANCH   7   8
HETATM    8  N1  UNL     1      22.794  -0.501  53.365  1.00  0.00    -0.249 NA
HETATM    9  S1  UNL     1      22.471  -1.060  54.858  1.00  0.00     0.002 SA
ENDBRANCH   7   8
ENDBRANCH   5   6
BRANCH   5  10
HETATM   10  C16 UNL     1      27.345   0.516  52.878  1.00  0.00     0.010 A 
HETATM   11  C17 UNL     1      27.559  -0.844  52.808  1.00  0.00     0.017 A 
HETATM   12  C18 UNL     1      28.705  -1.454  53.256  1.00  0.00     0.020 A 
HETATM   13  C19 UNL     1      29.715  -0.696  53.810  1.00  0.00     0.116 A 
HETATM   14  N6  UNL     1      29.511   0.640  53.882  1.00  0.00    -0.272 NA
HETATM   15  C20 UNL     1      28.405   1.229  53.451  1.00  0.00     0.130 A 
ENDBRANCH   5  10
ENDBRANCH   3   4
ENDBRANCH   1   3
BRANCH   1  16
HETATM   16  C5  UNL     1      25.925   4.355  49.369  1.00  0.00     0.031 A 
HETATM   17  C6  UNL     1      25.414   5.634  49.340  1.00  0.00     0.029 A 
HETATM   18  C7  UNL     1      26.173   6.716  48.898  1.00  0.00     0.005 A 
HETATM   19  C8  UNL     1      27.469   6.546  48.469  1.00  0.00     0.037 A 
HETATM   20  C9  UNL     1      28.025   5.261  48.482  1.00  0.00     0.070 A 
HETATM   21  C15 UNL     1      27.226   4.249  48.928  1.00  0.00     0.065 A 
BRANCH  20  22
HETATM   22  O1  UNL     1      29.331   5.060  48.055  1.00  0.00    -0.349 OA
BRANCH  22  23
HETATM   23  C10 UNL     1      30.336   5.887  48.608  1.00  0.00     0.196 C 
BRANCH  23  24
HETATM   24  C11 UNL     1      30.932   6.806  47.545  1.00  0.00     0.156 C 
BRANCH  24  25
HETATM   25  N4  UNL     1      30.723   8.171  48.026  1.00  0.00    -0.348 N 
HETATM   26  C12 UNL     1      30.905   8.595  49.294  1.00  0.00     0.111 A 
HETATM   27  C13 UNL     1      30.618   9.944  49.399  1.00  0.00     0.135 A 
HETATM   28  N5  UNL     1      30.261  10.294  48.147  1.00  0.00    -0.255 NA
HETATM   29  C14 UNL     1      30.320   9.246  47.323  1.00  0.00     0.209 A 
ENDBRANCH  24  25
ENDBRANCH  23  24
ENDBRANCH  22  23
ENDBRANCH  20  22
ENDBRANCH   1  16
TORSDOF 10
ENDMDL
MODEL 6
REMARK VINA RESULT:      -7.3      3.643      7.438
REMARK  10 active torsions:
REMARK  status: ('A' for Active; 'I' for Inactive)
REMARK    1  A    between atoms: N1_2  and  C1_3 
REMARK    2  A    between atoms: C2_4  and  C3_5 
REMARK    3  A    between atoms: C3_5  and  C16_23 
REMARK    4  A    between atoms: N2_6  and  C4_7 
REMARK    5  A    between atoms: C4_7  and  N3_8 
REMARK    6  A    between atoms: N3_8  and  C5_9 
REMARK    7  A    between atoms: C9_13  and  O1_14 
REMARK    8  A    between atoms: O1_14  and  C10_15 
REMARK    9  A    between atoms: C10_15  and  C11_16 
REMARK   10  A    between atoms: C11_16  and  N4_17 
ROOT
HETATM    1  N3  UNL     1      23.578   5.645  52.475  1.00  0.00    -0.372 N 
HETATM    2  H5  UNL     1      23.825   6.089  53.386  1.00  0.00     0.161 HD
ENDROOT
BRANCH   1   3
HETATM    3  C4  UNL     1      23.521   6.387  51.243  1.00  0.00     0.271 C 
BRANCH   3   4
HETATM    4  N2  UNL     1      24.865   6.478  50.714  1.00  0.00    -0.270 NA
HETATM    5  C3  UNL     1      25.113   5.920  49.581  1.00  0.00     0.065 C 
BRANCH   5   6
HETATM    6  C2  UNL     1      23.978   5.271  48.994  1.00  0.00     0.046 C 
HETATM    7  C1  UNL     1      23.289   5.409  47.881  1.00  0.00     0.234 C 
BRANCH   7   8
HETATM    8  N1  UNL     1      22.188   4.877  47.174  1.00  0.00    -0.249 NA
HETATM    9  S1  UNL     1      21.908   5.236  45.613  1.00  0.00     0.002 SA
ENDBRANCH   7   8
ENDBRANCH   5   6
BRANCH   5  10
HETATM   10  C16 UNL     1      26.434   5.971  48.992  1.00  0.00     0.010 A 
HETATM   11  C17 UNL     1      27.055   7.047  48.394  1.00  0.00     0.017 A 
HETATM   12  C18 UNL     1      28.319   6.991  47.861  1.00  0.00     0.020 A 
HETATM   13  C19 UNL     1      29.034   5.813  47.910  1.00  0.00     0.116 A 
HETATM   14  N6  UNL     1      28.431   4.753  48.496  1.00  0.00    -0.272 NA
HETATM   15  C20 UNL     1      27.209   4.806  49.010  1.00  0.00     0.130 A 
ENDBRANCH   5  10
ENDBRANCH   3   4
ENDBRANCH   1   3
BRANCH   1  16
HETATM   16  C5  UNL     1      23.293   4.252  52.483  1.00  0.00     0.031 A 
HETATM   17  C6  UNL     1      22.041   3.737  52.230  1.00  0.00     0.029 A 
HETATM   18  C7  UNL     1      21.797   2.365  52.246  1.00  0.00     0.005 A 
HETATM   19  C8  UNL     1      22.804   1.468  52.518  1.00  0.00     0.037 A 
HETATM   20  C9  UNL     1      24.091   1.952  52.781  1.00  0.00     0.070 A 
HETATM   21  C15 UNL     1      24.258   3.306  52.748  1.00  0.00     0.065 A 
BRANCH  20  22
HETATM   22  O1  UNL     1      25.127   1.070  53.059  1.00  0.00    -0.349 OA
BRANCH  22  23
HETATM   23  C10 UNL     1      26.177   1.532  53.887  1.00  0.00     0.196 C 
BRANCH  23  24
HETATM   24  C11 UNL     1      27.472   1.678  53.094  1.00  0.00     0.156 C 
BRANCH  24  25
HETATM   25  N4  UNL     1      28.219   0.438  53.305  1.00  0.00    -0.348 N 
HETATM   26  C12 UNL     1      29.530   0.351  53.610  1.00  0.00     0.111 A 
HETATM   27  C13 UNL     1      29.910  -0.972  53.739  1.00  0.00     0.135 A 
HETATM   28  N5  UNL     1      28.774  -1.657  53.499  1.00  0.00    -0.255 NA
HETATM   29  C14 UNL     1      27.762  -0.827  53.239  1.00  0.00     0.209 A 
ENDBRANCH  24  25
ENDBRANCH  23  24
ENDBRANCH  22  23
ENDBRANCH  20  22
ENDBRANCH   1  16
TORSDOF 10
ENDMDL
MODEL 7
REMARK VINA RESULT:      -7.3      2.509      4.350
REMARK  10 active torsions:
REMARK  status: ('A' for Active; 'I' for Inactive)
REMARK    1  A    between atoms: N1_2  and  C1_3 
REMARK    2  A    between atoms: C2_4  and  C3_5 
REMARK    3  A    between atoms: C3_5  and  C16_23 
REMARK    4  A    between atoms: N2_6  and  C4_7 
REMARK    5  A    between atoms: C4_7  and  N3_8 
REMARK    6  A    between atoms: N3_8  and  C5_9 
REMARK    7  A    between atoms: C9_13  and  O1_14 
REMARK    8  A    between atoms: O1_14  and  C10_15 
REMARK    9  A    between atoms: C10_15  and  C11_16 
REMARK   10  A    between atoms: C11_16  and  N4_17 
ROOT
HETATM    1  N3  UNL     1      24.932   3.528  49.973  1.00  0.00    -0.372 N 
HETATM    2  H5  UNL     1      23.949   3.418  49.642  1.00  0.00     0.161 HD
ENDROOT
BRANCH   1   3
HETATM    3  C4  UNL     1      25.500   2.697  51.000  1.00  0.00     0.271 C 
BRANCH   3   4
HETATM    4  N2  UNL     1      24.415   2.160  51.791  1.00  0.00    -0.270 NA
HETATM    5  C3  UNL     1      24.599   1.043  52.403  1.00  0.00     0.065 C 
BRANCH   5   6
HETATM    6  C2  UNL     1      25.903   0.481  52.199  1.00  0.00     0.046 C 
HETATM    7  C1  UNL     1      26.846  -0.009  52.976  1.00  0.00     0.234 C 
BRANCH   7   8
HETATM    8  N1  UNL     1      28.136  -0.580  52.943  1.00  0.00    -0.249 NA
HETATM    9  S1  UNL     1      29.379   0.044  53.786  1.00  0.00     0.002 SA
ENDBRANCH   7   8
ENDBRANCH   5   6
BRANCH   5  10
HETATM   10  C16 UNL     1      23.558   0.447  53.212  1.00  0.00     0.010 A 
HETATM   11  C17 UNL     1      23.671  -0.596  54.106  1.00  0.00     0.017 A 
HETATM   12  C18 UNL     1      22.613  -1.091  54.829  1.00  0.00     0.020 A 
HETATM   13  C19 UNL     1      21.359  -0.539  54.676  1.00  0.00     0.116 A 
HETATM   14  N6  UNL     1      21.240   0.485  53.800  1.00  0.00    -0.272 NA
HETATM   15  C20 UNL     1      22.261   0.963  53.101  1.00  0.00     0.130 A 
ENDBRANCH   5  10
ENDBRANCH   3   4
ENDBRANCH   1   3
BRANCH   1  16
HETATM   16  C5  UNL     1      25.714   4.550  49.367  1.00  0.00     0.031 A 
HETATM   17  C6  UNL     1      25.194   5.759  48.963  1.00  0.00     0.029 A 
HETATM   18  C7  UNL     1      25.990   6.738  48.372  1.00  0.00     0.005 A 
HETATM   19  C8  UNL     1      27.335   6.531  48.167  1.00  0.00     0.037 A 
HETATM   20  C9  UNL     1      27.902   5.314  48.564  1.00  0.00     0.070 A 
HETATM   21  C15 UNL     1      27.064   4.402  49.136  1.00  0.00     0.065 A 
BRANCH  20  22
HETATM   22  O1  UNL     1      29.257   5.077  48.370  1.00  0.00    -0.349 OA
BRANCH  22  23
HETATM   23  C10 UNL     1      30.021   6.103  47.767  1.00  0.00     0.196 C 
BRANCH  23  24
HETATM   24  C11 UNL     1      30.902   6.803  48.797  1.00  0.00     0.156 C 
BRANCH  24  25
HETATM   25  N4  UNL     1      30.685   8.238  48.609  1.00  0.00    -0.348 N 
HETATM   26  C12 UNL     1      30.890   9.192  49.539  1.00  0.00     0.111 A 
HETATM   27  C13 UNL     1      30.586  10.441  49.027  1.00  0.00     0.135 A 
HETATM   28  N5  UNL     1      30.197  10.181  47.762  1.00  0.00    -0.255 NA
HETATM   29  C14 UNL     1      30.252   8.873  47.504  1.00  0.00     0.209 A 
ENDBRANCH  24  25
ENDBRANCH  23  24
ENDBRANCH  22  23
ENDBRANCH  20  22
ENDBRANCH   1  16
TORSDOF 10
ENDMDL
MODEL 8
REMARK VINA RESULT:      -7.2      3.516      5.141
REMARK  10 active torsions:
REMARK  status: ('A' for Active; 'I' for Inactive)
REMARK    1  A    between atoms: N1_2  and  C1_3 
REMARK    2  A    between atoms: C2_4  and  C3_5 
REMARK    3  A    between atoms: C3_5  and  C16_23 
REMARK    4  A    between atoms: N2_6  and  C4_7 
REMARK    5  A    between atoms: C4_7  and  N3_8 
REMARK    6  A    between atoms: N3_8  and  C5_9 
REMARK    7  A    between atoms: C9_13  and  O1_14 
REMARK    8  A    between atoms: O1_14  and  C10_15 
REMARK    9  A    between atoms: C10_15  and  C11_16 
REMARK   10  A    between atoms: C11_16  and  N4_17 
ROOT
HETATM    1  N3  UNL     1      24.753   3.687  50.526  1.00  0.00    -0.372 N 
HETATM    2  H5  UNL     1      23.749   3.967  50.494  1.00  0.00     0.161 HD
ENDROOT
BRANCH   1   3
HETATM    3  C4  UNL     1      25.210   2.531  51.250  1.00  0.00     0.271 C 
BRANCH   3   4
HETATM    4  N2  UNL     1      24.047   1.805  51.712  1.00  0.00    -0.270 NA
HETATM    5  C3  UNL     1      24.208   0.912  52.625  1.00  0.00     0.065 C 
BRANCH   5   6
HETATM    6  C2  UNL     1      25.566   0.768  53.060  1.00  0.00     0.046 C 
HETATM    7  C1  UNL     1      26.235   1.054  54.158  1.00  0.00     0.234 C 
BRANCH   7   8
HETATM    8  N1  UNL     1      27.523   0.984  54.732  1.00  0.00    -0.249 NA
HETATM    9  S1  UNL     1      28.661  -0.037  54.178  1.00  0.00     0.002 SA
ENDBRANCH   7   8
ENDBRANCH   5   6
BRANCH   5  10
HETATM   10  C16 UNL     1      23.090   0.147  53.134  1.00  0.00     0.010 A 
HETATM   11  C17 UNL     1      23.092  -0.783  54.151  1.00  0.00     0.017 A 
HETATM   12  C18 UNL     1      21.968  -1.459  54.560  1.00  0.00     0.020 A 
HETATM   13  C19 UNL     1      20.759  -1.218  53.945  1.00  0.00     0.116 A 
HETATM   14  N6  UNL     1      20.749  -0.306  52.945  1.00  0.00    -0.272 NA
HETATM   15  C20 UNL     1      21.833   0.346  52.548  1.00  0.00     0.130 A 
ENDBRANCH   5  10
ENDBRANCH   3   4
ENDBRANCH   1   3
BRANCH   1  16
HETATM   16  C5  UNL     1      25.681   4.499  49.817  1.00  0.00     0.031 A 
HETATM   17  C6  UNL     1      26.869   4.020  49.312  1.00  0.00     0.029 A 
HETATM   18  C7  UNL     1      27.756   4.845  48.622  1.00  0.00     0.005 A 
HETATM   19  C8  UNL     1      27.476   6.177  48.420  1.00  0.00     0.037 A 
HETATM   20  C9  UNL     1      26.278   6.701  48.919  1.00  0.00     0.070 A 
HETATM   21  C15 UNL     1      25.457   5.837  49.584  1.00  0.00     0.065 A 
BRANCH  20  22
HETATM   22  O1  UNL     1      25.969   8.042  48.730  1.00  0.00    -0.349 OA
BRANCH  22  23
HETATM   23  C10 UNL     1      26.917   8.844  48.053  1.00  0.00     0.196 C 
BRANCH  23  24
HETATM   24  C11 UNL     1      27.154  10.154  48.797  1.00  0.00     0.156 C 
BRANCH  24  25
HETATM   25  N4  UNL     1      28.603  10.268  48.966  1.00  0.00    -0.348 N 
HETATM   26  C12 UNL     1      29.444   9.252  49.245  1.00  0.00     0.111 A 
HETATM   27  C13 UNL     1      30.746   9.713  49.337  1.00  0.00     0.135 A 
HETATM   28  N5  UNL     1      30.634  11.035  49.101  1.00  0.00    -0.255 NA
HETATM   29  C14 UNL     1      29.363  11.376  48.880  1.00  0.00     0.209 A 
ENDBRANCH  24  25
ENDBRANCH  23  24
ENDBRANCH  22  23
ENDBRANCH  20  22
ENDBRANCH   1  16
TORSDOF 10
ENDMDL
MODEL 9
REMARK VINA RESULT:      -7.1      2.898      3.765
REMARK  10 active torsions:
REMARK  status: ('A' for Active; 'I' for Inactive)
REMARK    1  A    between atoms: N1_2  and  C1_3 
REMARK    2  A    between atoms: C2_4  and  C3_5 
REMARK    3  A    between atoms: C3_5  and  C16_23 
REMARK    4  A    between atoms: N2_6  and  C4_7 
REMARK    5  A    between atoms: C4_7  and  N3_8 
REMARK    6  A    between atoms: N3_8  and  C5_9 
REMARK    7  A    between atoms: C9_13  and  O1_14 
REMARK    8  A    between atoms: O1_14  and  C10_15 
REMARK    9  A    between atoms: C10_15  and  C11_16 
REMARK   10  A    between atoms: C11_16  and  N4_17 
ROOT
HETATM    1  N3  UNL     1      24.812   3.061  50.311  1.00  0.00    -0.372 N 
HETATM    2  H5  UNL     1      24.190   2.515  49.677  1.00  0.00     0.161 HD
ENDROOT
BRANCH   1   3
HETATM    3  C4  UNL     1      24.881   2.817  51.726  1.00  0.00     0.271 C 
BRANCH   3   4
HETATM    4  N2  UNL     1      26.129   2.138  52.001  1.00  0.00    -0.270 NA
HETATM    5  C3  UNL     1      26.102   1.087  52.744  1.00  0.00     0.065 C 
BRANCH   5   6
HETATM    6  C2  UNL     1      24.789   0.737  53.201  1.00  0.00     0.046 C 
HETATM    7  C1  UNL     1      23.981  -0.291  53.040  1.00  0.00     0.234 C 
BRANCH   7   8
HETATM    8  N1  UNL     1      22.707  -0.778  53.403  1.00  0.00    -0.249 NA
HETATM    9  S1  UNL     1      22.350  -1.211  54.929  1.00  0.00     0.002 SA
ENDBRANCH   7   8
ENDBRANCH   5   6
BRANCH   5  10
HETATM   10  C16 UNL     1      27.311   0.358  53.060  1.00  0.00     0.010 A 
HETATM   11  C17 UNL     1      28.532   0.868  53.445  1.00  0.00     0.017 A 
HETATM   12  C18 UNL     1      29.625   0.085  53.724  1.00  0.00     0.020 A 
HETATM   13  C19 UNL     1      29.531  -1.286  53.624  1.00  0.00     0.116 A 
HETATM   14  N6  UNL     1      28.335  -1.795  53.247  1.00  0.00    -0.272 NA
HETATM   15  C20 UNL     1      27.280  -1.039  52.976  1.00  0.00     0.130 A 
ENDBRANCH   5  10
ENDBRANCH   3   4
ENDBRANCH   1   3
BRANCH   1  16
HETATM   16  C5  UNL     1      25.610   4.081  49.722  1.00  0.00     0.031 A 
HETATM   17  C6  UNL     1      26.865   3.852  49.203  1.00  0.00     0.029 A 
HETATM   18  C7  UNL     1      27.619   4.875  48.634  1.00  0.00     0.005 A 
HETATM   19  C8  UNL     1      27.137   6.162  48.569  1.00  0.00     0.037 A 
HETATM   20  C9  UNL     1      25.865   6.436  49.087  1.00  0.00     0.070 A 
HETATM   21  C15 UNL     1      25.182   5.387  49.629  1.00  0.00     0.065 A 
BRANCH  20  22
HETATM   22  O1  UNL     1      25.352   7.726  49.036  1.00  0.00    -0.349 OA
BRANCH  22  23
HETATM   23  C10 UNL     1      25.911   8.688  49.908  1.00  0.00     0.196 C 
BRANCH  23  24
HETATM   24  C11 UNL     1      26.367   9.923  49.137  1.00  0.00     0.156 C 
BRANCH  24  25
HETATM   25  N4  UNL     1      27.744   9.657  48.723  1.00  0.00    -0.348 N 
HETATM   26  C12 UNL     1      28.202   9.682  47.454  1.00  0.00     0.111 A 
HETATM   27  C13 UNL     1      29.552   9.384  47.421  1.00  0.00     0.135 A 
HETATM   28  N5  UNL     1      29.867   9.185  48.717  1.00  0.00    -0.255 NA
HETATM   29  C14 UNL     1      28.799   9.345  49.499  1.00  0.00     0.209 A 
ENDBRANCH  24  25
ENDBRANCH  23  24
ENDBRANCH  22  23
ENDBRANCH  20  22
ENDBRANCH   1  16
TORSDOF 10
ENDMDL
