MODEL 1
REMARK VINA RESULT:      -7.1      0.000      0.000
REMARK  7 active torsions:
REMARK  status: ('A' for Active; 'I' for Inactive)
REMARK    1  A    between atoms: C2_2  and  C4_4 
REMARK    2  A    between atoms: C4_4  and  C17_21 
REMARK    3  A    between atoms: C5_5  and  C6_6 
REMARK    4  A    between atoms: C6_6  and  C7_7 
REMARK    5  A    between atoms: N2_9  and  C8_10 
REMARK    6  A    between atoms: C10_13  and  C11_14 
REMARK    7  A    between atoms: C17_21  and  S1_22 
ROOT
HETATM    1  C7  UNL     1      26.338   2.933  50.403  1.00  0.00     0.154 A 
HETATM    2  N1  UNL     1      25.138   3.154  49.881  1.00  0.00    -0.148 NA
HETATM    3  N2  UNL     1      26.083   3.978  49.430  1.00  0.00    -0.198 N 
ENDROOT
BRANCH   3   4
HETATM    4  C8  UNL     1      27.012   4.931  48.861  1.00  0.00     0.153 A 
HETATM    5  N3  UNL     1      28.263   4.749  48.664  1.00  0.00    -0.270 NA
HETATM    6  C9  UNL     1      29.206   5.668  48.106  1.00  0.00     0.163 A 
HETATM    7  C10 UNL     1      28.647   6.994  47.701  1.00  0.00     0.052 A 
HETATM    8  C14 UNL     1      27.190   7.101  47.972  1.00  0.00    -0.006 A 
HETATM    9  C15 UNL     1      26.373   6.191  48.503  1.00  0.00    -0.017 A 
HETATM   10  C16 UNL     1      24.934   6.555  48.669  1.00  0.00     0.052 C 
BRANCH   7  11
HETATM   11  C11 UNL     1      29.341   8.066  48.458  1.00  0.00     0.002 C 
HETATM   12  C12 UNL     1      30.539   8.652  48.548  1.00  0.00     0.005 C 
HETATM   13  C13 UNL     1      31.698   8.261  47.713  1.00  0.00     0.061 C 
HETATM   14 CL1  UNL     1      30.751   9.947  49.712  1.00  0.00    -0.090 Cl
ENDBRANCH   7  11
ENDBRANCH   3   4
BRANCH   1  15
HETATM   15  C6  UNL     1      26.595   1.858  51.404  1.00  0.00     0.110 C 
BRANCH  15  16
HETATM   16  C5  UNL     1      25.386   1.295  51.986  1.00  0.00    -0.011 C 
HETATM   17  C4  UNL     1      24.899   0.405  52.801  1.00  0.00    -0.047 C 
BRANCH  17  18
HETATM   18  C2  UNL     1      23.447   0.262  53.037  1.00  0.00    -0.065 C 
HETATM   19  C1  UNL     1      22.522   1.019  52.497  1.00  0.00     0.019 C 
HETATM   20  C3  UNL     1      22.708  -0.703  53.887  1.00  0.00     0.048 C 
ENDBRANCH  17  18
BRANCH  17  21
HETATM   21  C17 UNL     1      25.624  -0.621  53.600  1.00  0.00     0.109 C 
BRANCH  21  22
HETATM   22  S1  UNL     1      26.600   0.217  54.844  1.00  0.00    -0.178 SA
HETATM   23  H22 UNL     1      26.009   1.427  55.218  1.00  0.00     0.101 HD
ENDBRANCH  21  22
ENDBRANCH  17  21
ENDBRANCH  15  16
ENDBRANCH   1  15
TORSDOF 7
ENDMDL
MODEL 2
REMARK VINA RESULT:      -7.1      2.932      4.875
REMARK  7 active torsions:
REMARK  status: ('A' for Active; 'I' for Inactive)
REMARK    1  A    between atoms: C2_2  and  C4_4 
REMARK    2  A    between atoms: C4_4  and  C17_21 
REMARK    3  A    between atoms: C5_5  and  C6_6 
REMARK    4  A    between atoms: C6_6  and  C7_7 
REMARK    5  A    between atoms: N2_9  and  C8_10 
REMARK    6  A    between atoms: C10_13  and  C11_14 
REMARK    7  A    between atoms: C17_21  and  S1_22 
ROOT
HETATM    1  C7  UNL     1      23.210   0.685  52.996  1.00  0.00     0.154 A 
HETATM    2  N1  UNL     1      21.985   1.110  53.280  1.00  0.00    -0.148 NA
HETATM    3  N2  UNL     1      22.605   1.832  52.346  1.00  0.00    -0.198 N 
ENDROOT
BRANCH   3   4
HETATM    4  C8  UNL     1      23.164   2.693  51.326  1.00  0.00     0.153 A 
HETATM    5  N3  UNL     1      23.262   2.429  50.078  1.00  0.00    -0.270 NA
HETATM    6  C9  UNL     1      23.808   3.256  49.046  1.00  0.00     0.163 A 
HETATM    7  C10 UNL     1      24.315   4.588  49.494  1.00  0.00     0.052 A 
HETATM    8  C14 UNL     1      24.155   4.794  50.957  1.00  0.00    -0.006 A 
HETATM    9  C15 UNL     1      23.634   3.964  51.862  1.00  0.00    -0.017 A 
HETATM   10  C16 UNL     1      23.591   4.418  53.284  1.00  0.00     0.052 C 
BRANCH   7  11
HETATM   11  C11 UNL     1      25.759   4.696  49.164  1.00  0.00     0.002 C 
HETATM   12  C12 UNL     1      26.640   5.576  48.680  1.00  0.00     0.005 C 
HETATM   13  C13 UNL     1      26.274   6.954  48.278  1.00  0.00     0.061 C 
HETATM   14 CL1  UNL     1      28.313   5.077  48.512  1.00  0.00    -0.090 Cl
ENDBRANCH   7  11
ENDBRANCH   3   4
BRANCH   1  15
HETATM   15  C6  UNL     1      23.828  -0.495  53.667  1.00  0.00     0.110 C 
BRANCH  15  16
HETATM   16  C5  UNL     1      25.280  -0.434  53.741  1.00  0.00    -0.011 C 
HETATM   17  C4  UNL     1      26.326   0.341  53.726  1.00  0.00    -0.047 C 
BRANCH  17  18
HETATM   18  C2  UNL     1      27.700  -0.186  53.854  1.00  0.00    -0.065 C 
HETATM   19  C1  UNL     1      28.183  -1.194  53.169  1.00  0.00     0.019 C 
HETATM   20  C3  UNL     1      28.814   0.254  54.728  1.00  0.00     0.048 C 
ENDBRANCH  17  18
BRANCH  17  21
HETATM   21  C17 UNL     1      26.386   1.820  53.557  1.00  0.00     0.109 C 
BRANCH  21  22
HETATM   22  S1  UNL     1      26.890   2.177  51.878  1.00  0.00    -0.178 SA
HETATM   23  H22 UNL     1      27.941   1.348  51.479  1.00  0.00     0.101 HD
ENDBRANCH  21  22
ENDBRANCH  17  21
ENDBRANCH  15  16
ENDBRANCH   1  15
TORSDOF 7
ENDMDL
MODEL 3
REMARK VINA RESULT:      -7.1      5.145      6.987
REMARK  7 active torsions:
REMARK  status: ('A' for Active; 'I' for Inactive)
REMARK    1  A    between atoms: C2_2  and  C4_4 
REMARK    2  A    between atoms: C4_4  and  C17_21 
REMARK    3  A    between atoms: C5_5  and  C6_6 
REMARK    4  A    between atoms: C6_6  and  C7_7 
REMARK    5  A    between atoms: N2_9  and  C8_10 
REMARK    6  A    between atoms: C10_13  and  C11_14 
REMARK    7  A    between atoms: C17_21  and  S1_22 
ROOT
HETATM    1  C7  UNL     1      22.928   3.371  52.423  1.00  0.00     0.154 A 
HETATM    2  N1  UNL     1      23.744   4.281  52.939  1.00  0.00    -0.148 NA
HETATM    3  N2  UNL     1      24.288   3.070  52.828  1.00  0.00    -0.198 N 
ENDROOT
BRANCH   3   4
HETATM    4  C8  UNL     1      24.995   1.808  52.761  1.00  0.00     0.153 A 
HETATM    5  N3  UNL     1      24.868   0.822  53.567  1.00  0.00    -0.270 NA
HETATM    6  C9  UNL     1      25.549  -0.435  53.529  1.00  0.00     0.163 A 
HETATM    7  C10 UNL     1      26.517  -0.606  52.403  1.00  0.00     0.052 A 
HETATM    8  C14 UNL     1      26.587   0.594  51.528  1.00  0.00    -0.006 A 
HETATM    9  C15 UNL     1      25.915   1.740  51.633  1.00  0.00    -0.017 A 
HETATM   10  C16 UNL     1      26.173   2.799  50.612  1.00  0.00     0.052 C 
BRANCH   7  11
HETATM   11  C11 UNL     1      27.871  -0.857  52.957  1.00  0.00     0.002 C 
HETATM   12  C12 UNL     1      28.836  -0.233  53.638  1.00  0.00     0.005 C 
HETATM   13  C13 UNL     1      28.730   1.174  54.090  1.00  0.00     0.061 C 
HETATM   14 CL1  UNL     1      30.301  -1.119  54.016  1.00  0.00    -0.090 Cl
ENDBRANCH   7  11
ENDBRANCH   3   4
BRANCH   1  15
HETATM   15  C6  UNL     1      21.531   3.684  52.008  1.00  0.00     0.110 C 
BRANCH  15  16
HETATM   16  C5  UNL     1      20.677   2.511  51.887  1.00  0.00    -0.011 C 
HETATM   17  C4  UNL     1      20.554   1.320  51.378  1.00  0.00    -0.047 C 
BRANCH  17  18
HETATM   18  C2  UNL     1      19.355   0.486  51.603  1.00  0.00    -0.065 C 
HETATM   19  C1  UNL     1      19.150  -0.261  52.661  1.00  0.00     0.019 C 
HETATM   20  C3  UNL     1      18.156   0.287  50.754  1.00  0.00     0.048 C 
ENDBRANCH  17  18
BRANCH  17  21
HETATM   21  C17 UNL     1      21.498   0.583  50.492  1.00  0.00     0.109 C 
BRANCH  21  22
HETATM   22  S1  UNL     1      21.408   1.294  48.853  1.00  0.00    -0.178 SA
HETATM   23  H22 UNL     1      22.683   1.529  48.333  1.00  0.00     0.101 HD
ENDBRANCH  21  22
ENDBRANCH  17  21
ENDBRANCH  15  16
ENDBRANCH   1  15
TORSDOF 7
ENDMDL
MODEL 4
REMARK VINA RESULT:      -7.1      4.020      7.967
REMARK  7 active torsions:
REMARK  status: ('A' for Active; 'I' for Inactive)
REMARK    1  A    between atoms: C2_2  and  C4_4 
REMARK    2  A    between atoms: C4_4  and  C17_21 
REMARK    3  A    between atoms: C5_5  and  C6_6 
REMARK    4  A    between atoms: C6_6  and  C7_7 
REMARK    5  A    between atoms: N2_9  and  C8_10 
REMARK    6  A    between atoms: C10_13  and  C11_14 
REMARK    7  A    between atoms: C17_21  and  S1_22 
ROOT
HETATM    1  C7  UNL     1      23.019   2.825  50.719  1.00  0.00     0.154 A 
HETATM    2  N1  UNL     1      21.891   2.354  51.235  1.00  0.00    -0.148 NA
HETATM    3  N2  UNL     1      22.981   2.026  51.929  1.00  0.00    -0.198 N 
ENDROOT
BRANCH   3   4
HETATM    4  C8  UNL     1      24.081   1.604  52.771  1.00  0.00     0.153 A 
HETATM    5  N3  UNL     1      25.117   2.293  53.070  1.00  0.00    -0.270 NA
HETATM    6  C9  UNL     1      26.219   1.907  53.896  1.00  0.00     0.163 A 
HETATM    7  C10 UNL     1      26.132   0.533  54.479  1.00  0.00     0.052 A 
HETATM    8  C14 UNL     1      24.894  -0.179  54.070  1.00  0.00    -0.006 A 
HETATM    9  C15 UNL     1      23.906   0.252  53.286  1.00  0.00    -0.017 A 
HETATM   10  C16 UNL     1      22.761  -0.672  53.029  1.00  0.00     0.052 C 
BRANCH   7  11
HETATM   11  C11 UNL     1      27.299  -0.263  54.023  1.00  0.00     0.002 C 
HETATM   12  C12 UNL     1      28.630  -0.180  53.933  1.00  0.00     0.005 C 
HETATM   13  C13 UNL     1      29.400   1.006  54.373  1.00  0.00     0.061 C 
HETATM   14 CL1  UNL     1      29.510  -1.539  53.259  1.00  0.00    -0.090 Cl
ENDBRANCH   7  11
ENDBRANCH   3   4
BRANCH   1  15
HETATM   15  C6  UNL     1      23.054   3.645  49.475  1.00  0.00     0.110 C 
BRANCH  15  16
HETATM   16  C5  UNL     1      24.341   4.279  49.225  1.00  0.00    -0.011 C 
HETATM   17  C4  UNL     1      24.968   5.406  49.048  1.00  0.00    -0.047 C 
BRANCH  17  18
HETATM   18  C2  UNL     1      26.426   5.469  48.813  1.00  0.00    -0.065 C 
HETATM   19  C1  UNL     1      27.252   4.460  48.954  1.00  0.00     0.019 C 
HETATM   20  C3  UNL     1      27.276   6.607  48.388  1.00  0.00     0.048 C 
ENDBRANCH  17  18
BRANCH  17  21
HETATM   21  C17 UNL     1      24.410   6.786  49.011  1.00  0.00     0.109 C 
BRANCH  21  22
HETATM   22  S1  UNL     1      24.050   7.295  50.688  1.00  0.00    -0.178 SA
HETATM   23  H22 UNL     1      25.109   8.028  51.232  1.00  0.00     0.101 HD
ENDBRANCH  21  22
ENDBRANCH  17  21
ENDBRANCH  15  16
ENDBRANCH   1  15
TORSDOF 7
ENDMDL
MODEL 5
REMARK VINA RESULT:      -6.8      1.586      2.470
REMARK  7 active torsions:
REMARK  status: ('A' for Active; 'I' for Inactive)
REMARK    1  A    between atoms: C2_2  and  C4_4 
REMARK    2  A    between atoms: C4_4  and  C17_21 
REMARK    3  A    between atoms: C5_5  and  C6_6 
REMARK    4  A    between atoms: C6_6  and  C7_7 
REMARK    5  A    between atoms: N2_9  and  C8_10 
REMARK    6  A    between atoms: C10_13  and  C11_14 
REMARK    7  A    between atoms: C17_21  and  S1_22 
ROOT
HETATM    1  C7  UNL     1      25.263   3.256  50.360  1.00  0.00     0.154 A 
HETATM    2  N1  UNL     1      24.179   3.977  50.102  1.00  0.00    -0.148 NA
HETATM    3  N2  UNL     1      25.302   4.491  49.601  1.00  0.00    -0.198 N 
ENDROOT
BRANCH   3   4
HETATM    4  C8  UNL     1      26.445   5.153  49.006  1.00  0.00     0.153 A 
HETATM    5  N3  UNL     1      27.638   4.697  48.942  1.00  0.00    -0.270 NA
HETATM    6  C9  UNL     1      28.787   5.323  48.363  1.00  0.00     0.163 A 
HETATM    7  C10 UNL     1      28.546   6.669  47.759  1.00  0.00     0.052 A 
HETATM    8  C14 UNL     1      27.131   7.104  47.888  1.00  0.00    -0.006 A 
HETATM    9  C15 UNL     1      26.110   6.457  48.450  1.00  0.00    -0.017 A 
HETATM   10  C16 UNL     1      24.773   7.123  48.448  1.00  0.00     0.052 C 
BRANCH   7  11
HETATM   11  C11 UNL     1      29.405   7.670  48.442  1.00  0.00     0.002 C 
HETATM   12  C12 UNL     1      30.694   7.984  48.597  1.00  0.00     0.005 C 
HETATM   13  C13 UNL     1      31.797   7.218  47.971  1.00  0.00     0.061 C 
HETATM   14 CL1  UNL     1      31.104   9.370  49.591  1.00  0.00    -0.090 Cl
ENDBRANCH   7  11
ENDBRANCH   3   4
BRANCH   1  15
HETATM   15  C6  UNL     1      25.218   1.987  51.142  1.00  0.00     0.110 C 
BRANCH  15  16
HETATM   16  C5  UNL     1      26.408   1.751  51.946  1.00  0.00    -0.011 C 
HETATM   17  C4  UNL     1      27.084   0.877  52.634  1.00  0.00    -0.047 C 
BRANCH  17  18
HETATM   18  C2  UNL     1      28.356   1.215  53.306  1.00  0.00    -0.065 C 
HETATM   19  C1  UNL     1      28.744   2.430  53.608  1.00  0.00     0.019 C 
HETATM   20  C3  UNL     1      29.450   0.333  53.780  1.00  0.00     0.048 C 
ENDBRANCH  17  18
BRANCH  17  21
HETATM   21  C17 UNL     1      26.751  -0.548  52.915  1.00  0.00     0.109 C 
BRANCH  21  22
HETATM   22  S1  UNL     1      25.402  -0.591  54.090  1.00  0.00    -0.178 SA
HETATM   23  H22 UNL     1      24.678  -1.781  53.984  1.00  0.00     0.101 HD
ENDBRANCH  21  22
ENDBRANCH  17  21
ENDBRANCH  15  16
ENDBRANCH   1  15
TORSDOF 7
ENDMDL
MODEL 6
REMARK VINA RESULT:      -6.8      4.606      8.518
REMARK  7 active torsions:
REMARK  status: ('A' for Active; 'I' for Inactive)
REMARK    1  A    between atoms: C2_2  and  C4_4 
REMARK    2  A    between atoms: C4_4  and  C17_21 
REMARK    3  A    between atoms: C5_5  and  C6_6 
REMARK    4  A    between atoms: C6_6  and  C7_7 
REMARK    5  A    between atoms: N2_9  and  C8_10 
REMARK    6  A    between atoms: C10_13  and  C11_14 
REMARK    7  A    between atoms: C17_21  and  S1_22 
ROOT
HETATM    1  C7  UNL     1      29.890   5.955  48.483  1.00  0.00     0.154 A 
HETATM    2  N1  UNL     1      29.459   6.595  47.403  1.00  0.00    -0.148 NA
HETATM    3  N2  UNL     1      28.505   5.931  48.054  1.00  0.00    -0.198 N 
ENDROOT
BRANCH   3   4
HETATM    4  C8  UNL     1      27.379   5.256  48.666  1.00  0.00     0.153 A 
HETATM    5  N3  UNL     1      27.379   4.077  49.163  1.00  0.00    -0.270 NA
HETATM    6  C9  UNL     1      26.287   3.382  49.773  1.00  0.00     0.163 A 
HETATM    7  C10 UNL     1      25.000   4.140  49.835  1.00  0.00     0.052 A 
HETATM    8  C14 UNL     1      25.109   5.494  49.232  1.00  0.00    -0.006 A 
HETATM    9  C15 UNL     1      26.173   6.073  48.675  1.00  0.00    -0.017 A 
HETATM   10  C16 UNL     1      26.015   7.457  48.137  1.00  0.00     0.052 C 
BRANCH   7  11
HETATM   11  C11 UNL     1      23.954   3.386  49.100  1.00  0.00     0.002 C 
HETATM   12  C12 UNL     1      23.021   2.453  49.308  1.00  0.00     0.005 C 
HETATM   13  C13 UNL     1      22.778   1.829  50.629  1.00  0.00     0.061 C 
HETATM   14 CL1  UNL     1      22.035   1.939  47.951  1.00  0.00    -0.090 Cl
ENDBRANCH   7  11
ENDBRANCH   3   4
BRANCH   1  15
HETATM   15  C6  UNL     1      31.315   5.983  48.920  1.00  0.00     0.110 C 
BRANCH  15  16
HETATM   16  C5  UNL     1      32.159   5.015  48.234  1.00  0.00    -0.011 C 
HETATM   17  C4  UNL     1      33.252   4.836  47.551  1.00  0.00    -0.047 C 
BRANCH  17  18
HETATM   18  C2  UNL     1      33.664   3.506  47.057  1.00  0.00    -0.065 C 
HETATM   19  C1  UNL     1      34.781   3.258  46.416  1.00  0.00     0.019 C 
HETATM   20  C3  UNL     1      32.974   2.197  47.147  1.00  0.00     0.048 C 
ENDBRANCH  17  18
BRANCH  17  21
HETATM   21  C17 UNL     1      34.252   5.849  47.111  1.00  0.00     0.109 C 
BRANCH  21  22
HETATM   22  S1  UNL     1      35.151   6.417  48.550  1.00  0.00    -0.178 SA
HETATM   23  H22 UNL     1      35.813   5.361  49.181  1.00  0.00     0.101 HD
ENDBRANCH  21  22
ENDBRANCH  17  21
ENDBRANCH  15  16
ENDBRANCH   1  15
TORSDOF 7
ENDMDL
MODEL 7
REMARK VINA RESULT:      -6.7      3.529      5.237
REMARK  7 active torsions:
REMARK  status: ('A' for Active; 'I' for Inactive)
REMARK    1  A    between atoms: C2_2  and  C4_4 
REMARK    2  A    between atoms: C4_4  and  C17_21 
REMARK    3  A    between atoms: C5_5  and  C6_6 
REMARK    4  A    between atoms: C6_6  and  C7_7 
REMARK    5  A    between atoms: N2_9  and  C8_10 
REMARK    6  A    between atoms: C10_13  and  C11_14 
REMARK    7  A    between atoms: C17_21  and  S1_22 
ROOT
HETATM    1  C7  UNL     1      22.743   0.915  52.927  1.00  0.00     0.154 A 
HETATM    2  N1  UNL     1      21.467   1.279  52.936  1.00  0.00    -0.148 NA
HETATM    3  N2  UNL     1      22.233   2.013  52.128  1.00  0.00    -0.198 N 
ENDROOT
BRANCH   3   4
HETATM    4  C8  UNL     1      22.950   2.881  51.218  1.00  0.00     0.153 A 
HETATM    5  N3  UNL     1      23.679   3.881  51.538  1.00  0.00    -0.270 NA
HETATM    6  C9  UNL     1      24.399   4.757  50.666  1.00  0.00     0.163 A 
HETATM    7  C10 UNL     1      24.281   4.449  49.208  1.00  0.00     0.052 A 
HETATM    8  C14 UNL     1      23.413   3.271  48.946  1.00  0.00    -0.006 A 
HETATM    9  C15 UNL     1      22.769   2.502  49.823  1.00  0.00    -0.017 A 
HETATM   10  C16 UNL     1      21.954   1.368  49.292  1.00  0.00     0.052 C 
BRANCH   7  11
HETATM   11  C11 UNL     1      23.698   5.621  48.508  1.00  0.00     0.002 C 
HETATM   12  C12 UNL     1      24.068   6.787  47.969  1.00  0.00     0.005 C 
HETATM   13  C13 UNL     1      25.470   7.265  47.955  1.00  0.00     0.061 C 
HETATM   14 CL1  UNL     1      22.836   7.803  47.245  1.00  0.00    -0.090 Cl
ENDBRANCH   7  11
ENDBRANCH   3   4
BRANCH   1  15
HETATM   15  C6  UNL     1      23.265  -0.214  53.749  1.00  0.00     0.110 C 
BRANCH  15  16
HETATM   16  C5  UNL     1      24.643  -0.573  53.449  1.00  0.00    -0.011 C 
HETATM   17  C4  UNL     1      25.854  -0.130  53.267  1.00  0.00    -0.047 C 
BRANCH  17  18
HETATM   18  C2  UNL     1      26.985  -1.029  52.959  1.00  0.00    -0.065 C 
HETATM   19  C1  UNL     1      26.886  -2.155  52.294  1.00  0.00     0.019 C 
HETATM   20  C3  UNL     1      28.423  -0.906  53.296  1.00  0.00     0.048 C 
ENDBRANCH  17  18
BRANCH  17  21
HETATM   21  C17 UNL     1      26.345   1.276  53.293  1.00  0.00     0.109 C 
BRANCH  21  22
HETATM   22  S1  UNL     1      26.612   1.812  51.607  1.00  0.00    -0.178 SA
HETATM   23  H22 UNL     1      25.485   2.464  51.099  1.00  0.00     0.101 HD
ENDBRANCH  21  22
ENDBRANCH  17  21
ENDBRANCH  15  16
ENDBRANCH   1  15
TORSDOF 7
ENDMDL
MODEL 8
REMARK VINA RESULT:      -6.6      5.249      8.067
REMARK  7 active torsions:
REMARK  status: ('A' for Active; 'I' for Inactive)
REMARK    1  A    between atoms: C2_2  and  C4_4 
REMARK    2  A    between atoms: C4_4  and  C17_21 
REMARK    3  A    between atoms: C5_5  and  C6_6 
REMARK    4  A    between atoms: C6_6  and  C7_7 
REMARK    5  A    between atoms: N2_9  and  C8_10 
REMARK    6  A    between atoms: C10_13  and  C11_14 
REMARK    7  A    between atoms: C17_21  and  S1_22 
ROOT
HETATM    1  C7  UNL     1      21.748   0.731  50.692  1.00  0.00     0.154 A 
HETATM    2  N1  UNL     1      20.904   0.566  51.703  1.00  0.00    -0.148 NA
HETATM    3  N2  UNL     1      22.187   0.551  52.062  1.00  0.00    -0.198 N 
ENDROOT
BRANCH   3   4
HETATM    4  C8  UNL     1      23.538   0.516  52.583  1.00  0.00     0.153 A 
HETATM    5  N3  UNL     1      24.558   1.110  52.090  1.00  0.00    -0.270 NA
HETATM    6  C9  UNL     1      25.902   1.096  52.579  1.00  0.00     0.163 A 
HETATM    7  C10 UNL     1      26.125   0.292  53.819  1.00  0.00     0.052 A 
HETATM    8  C14 UNL     1      24.880  -0.355  54.307  1.00  0.00    -0.006 A 
HETATM    9  C15 UNL     1      23.653  -0.295  53.788  1.00  0.00    -0.017 A 
HETATM   10  C16 UNL     1      22.563  -1.046  54.480  1.00  0.00     0.052 C 
BRANCH   7  11
HETATM   11  C11 UNL     1      27.122  -0.772  53.537  1.00  0.00     0.002 C 
HETATM   12  C12 UNL     1      28.443  -0.940  53.423  1.00  0.00     0.005 C 
HETATM   13  C13 UNL     1      29.419   0.161  53.594  1.00  0.00     0.061 C 
HETATM   14 CL1  UNL     1      29.053  -2.541  53.050  1.00  0.00    -0.090 Cl
ENDBRANCH   7  11
ENDBRANCH   3   4
BRANCH   1  15
HETATM   15  C6  UNL     1      21.292   0.916  49.284  1.00  0.00     0.110 C 
BRANCH  15  16
HETATM   16  C5  UNL     1      21.704   2.182  48.695  1.00  0.00    -0.011 C 
HETATM   17  C4  UNL     1      22.446   3.242  48.836  1.00  0.00    -0.047 C 
BRANCH  17  18
HETATM   18  C2  UNL     1      22.482   4.320  47.825  1.00  0.00    -0.065 C 
HETATM   19  C1  UNL     1      21.868   4.282  46.667  1.00  0.00     0.019 C 
HETATM   20  C3  UNL     1      23.173   5.632  47.852  1.00  0.00     0.048 C 
ENDBRANCH  17  18
BRANCH  17  21
HETATM   21  C17 UNL     1      23.339   3.610  49.970  1.00  0.00     0.109 C 
BRANCH  21  22
HETATM   22  S1  UNL     1      22.340   4.342  51.261  1.00  0.00    -0.178 SA
HETATM   23  H22 UNL     1      21.055   3.793  51.278  1.00  0.00     0.101 HD
ENDBRANCH  21  22
ENDBRANCH  17  21
ENDBRANCH  15  16
ENDBRANCH   1  15
TORSDOF 7
ENDMDL
MODEL 9
REMARK VINA RESULT:      -6.6      6.140      7.581
REMARK  7 active torsions:
REMARK  status: ('A' for Active; 'I' for Inactive)
REMARK    1  A    between atoms: C2_2  and  C4_4 
REMARK    2  A    between atoms: C4_4  and  C17_21 
REMARK    3  A    between atoms: C5_5  and  C6_6 
REMARK    4  A    between atoms: C6_6  and  C7_7 
REMARK    5  A    between atoms: N2_9  and  C8_10 
REMARK    6  A    between atoms: C10_13  and  C11_14 
REMARK    7  A    between atoms: C17_21  and  S1_22 
ROOT
HETATM    1  C7  UNL     1      21.374   0.272  52.451  1.00  0.00     0.154 A 
HETATM    2  N1  UNL     1      21.172   0.514  53.740  1.00  0.00    -0.148 NA
HETATM    3  N2  UNL     1      22.455   0.370  53.412  1.00  0.00    -0.198 N 
ENDROOT
BRANCH   3   4
HETATM    4  C8  UNL     1      23.880   0.235  53.190  1.00  0.00     0.153 A 
HETATM    5  N3  UNL     1      24.650  -0.646  53.707  1.00  0.00    -0.270 NA
HETATM    6  C9  UNL     1      26.058  -0.806  53.509  1.00  0.00     0.163 A 
HETATM    7  C10 UNL     1      26.689   0.177  52.577  1.00  0.00     0.052 A 
HETATM    8  C14 UNL     1      25.710   1.154  52.033  1.00  0.00    -0.006 A 
HETATM    9  C15 UNL     1      24.401   1.240  52.272  1.00  0.00    -0.017 A 
HETATM   10  C16 UNL     1      23.635   2.326  51.591  1.00  0.00     0.052 C 
BRANCH   7  11
HETATM   11  C11 UNL     1      27.742   0.931  53.304  1.00  0.00     0.002 C 
HETATM   12  C12 UNL     1      28.987   0.774  53.765  1.00  0.00     0.005 C 
HETATM   13  C13 UNL     1      29.758  -0.481  53.608  1.00  0.00     0.061 C 
HETATM   14 CL1  UNL     1      29.746   2.119  54.597  1.00  0.00    -0.090 Cl
ENDBRANCH   7  11
ENDBRANCH   3   4
BRANCH   1  15
HETATM   15  C6  UNL     1      20.259   0.172  51.466  1.00  0.00     0.110 C 
BRANCH  15  16
HETATM   16  C5  UNL     1      20.477   0.944  50.251  1.00  0.00    -0.011 C 
HETATM   17  C4  UNL     1      20.028   1.899  49.489  1.00  0.00    -0.047 C 
BRANCH  17  18
HETATM   18  C2  UNL     1      20.721   2.314  48.252  1.00  0.00    -0.065 C 
HETATM   19  C1  UNL     1      20.187   3.043  47.302  1.00  0.00     0.019 C 
HETATM   20  C3  UNL     1      22.103   2.035  47.792  1.00  0.00     0.048 C 
ENDBRANCH  17  18
BRANCH  17  21
HETATM   21  C17 UNL     1      18.791   2.714  49.649  1.00  0.00     0.109 C 
BRANCH  21  22
HETATM   22  S1  UNL     1      18.975   3.740  51.104  1.00  0.00    -0.178 SA
HETATM   23  H22 UNL     1      17.775   3.829  51.814  1.00  0.00     0.101 HD
ENDBRANCH  21  22
ENDBRANCH  17  21
ENDBRANCH  15  16
ENDBRANCH   1  15
TORSDOF 7
ENDMDL
