MODEL 1
REMARK VINA RESULT:     -10.1      0.000      0.000
REMARK  0 active torsions:
REMARK  status: ('A' for Active; 'I' for Inactive)
ROOT
HETATM    1  C1  UNL     1      20.417   2.486  47.884  1.00  0.00     0.032 C 
HETATM    2  C2  UNL     1      19.698   3.470  48.776  1.00  0.00     0.081 C 
HETATM    3  C3  UNL     1      20.637   4.014  49.807  1.00  0.00     0.009 C 
HETATM    4  C4  UNL     1      21.628   4.182  50.668  1.00  0.00     0.123 C 
HETATM    5  C5  UNL     1      22.701   3.247  50.980  1.00  0.00     0.228 C 
HETATM    6  O1  UNL     1      23.530   3.544  51.872  1.00  0.00    -0.273 OA
HETATM    7  N1  UNL     1      23.623   2.129  51.046  1.00  0.00    -0.312 N 
HETATM    8  C6  UNL     1      24.736   1.860  51.864  1.00  0.00     0.115 A 
HETATM    9  C7  UNL     1      25.965   2.425  51.730  1.00  0.00     0.064 A 
HETATM   10  C8  UNL     1      26.743   1.910  52.733  1.00  0.00     0.014 A 
HETATM   11  C9  UNL     1      28.044   2.093  53.107  1.00  0.00     0.130 A 
HETATM   12  N2  UNL     1      28.638   1.482  54.135  1.00  0.00    -0.271 NA
HETATM   13  C10 UNL     1      27.926   0.608  54.891  1.00  0.00     0.141 A 
HETATM   14  C11 UNL     1      26.609   0.420  54.517  1.00  0.00     0.090 A 
HETATM   15  C12 UNL     1      25.878  -0.508  55.334  1.00  0.00     0.103 C 
HETATM   16  N3  UNL     1      25.294  -1.263  56.015  1.00  0.00    -0.191 NA
HETATM   17  C13 UNL     1      25.985   1.037  53.466  1.00  0.00     0.074 A 
HETATM   18  N4  UNL     1      24.774   1.039  52.899  1.00  0.00    -0.304 N 
HETATM   19  C14 UNL     1      23.598   0.326  53.184  1.00  0.00     0.121 C 
HETATM   20  C15 UNL     1      22.451  -0.279  53.382  1.00  0.00     0.061 C 
HETATM   21 CL1  UNL     1      22.000  -1.657  54.479  1.00  0.00    -0.084 Cl
HETATM   22  C16 UNL     1      21.240   0.091  52.658  1.00  0.00     0.115 A 
HETATM   23  F1  UNL     1      20.088  -0.598  52.922  1.00  0.00    -0.387 F 
HETATM   24  C17 UNL     1      20.344   0.600  51.909  1.00  0.00     0.263 A 
HETATM   25  C18 UNL     1      19.255   1.051  51.151  1.00  0.00     0.080 C 
HETATM   26  C19 UNL     1      18.527   1.684  50.340  1.00  0.00     0.016 C 
HETATM   27  C20 UNL     1      17.179   1.080  50.459  1.00  0.00     0.220 C 
HETATM   28  O2  UNL     1      16.623   0.879  49.191  1.00  0.00    -0.384 OA
HETATM   29  C21 UNL     1      16.520   2.065  48.475  1.00  0.00     0.187 C 
HETATM   30  C22 UNL     1      17.237   3.201  49.145  1.00  0.00     0.149 C 
HETATM   31  N5  UNL     1      18.596   2.784  49.402  1.00  0.00    -0.379 N 
HETATM   32  H7  UNL     1      23.582   1.318  50.412  1.00  0.00     0.170 HD
ENDROOT
TORSDOF 0
ENDMDL
MODEL 2
REMARK VINA RESULT:     -10.0      2.927      8.641
REMARK  0 active torsions:
REMARK  status: ('A' for Active; 'I' for Inactive)
ROOT
HETATM    1  C1  UNL     1      26.229  -1.501  52.584  1.00  0.00     0.032 C 
HETATM    2  C2  UNL     1      26.293  -1.047  54.022  1.00  0.00     0.081 C 
HETATM    3  C3  UNL     1      24.911  -0.896  54.578  1.00  0.00     0.009 C 
HETATM    4  C4  UNL     1      23.610  -0.701  54.727  1.00  0.00     0.123 C 
HETATM    5  C5  UNL     1      22.634  -0.393  53.690  1.00  0.00     0.228 C 
HETATM    6  O1  UNL     1      21.442  -0.180  54.018  1.00  0.00    -0.273 OA
HETATM    7  N1  UNL     1      21.929  -0.122  52.452  1.00  0.00    -0.312 N 
HETATM    8  C6  UNL     1      20.593   0.217  52.170  1.00  0.00     0.115 A 
HETATM    9  C7  UNL     1      19.545  -0.648  52.179  1.00  0.00     0.064 A 
HETATM   10  C8  UNL     1      18.430   0.088  51.877  1.00  0.00     0.014 A 
HETATM   11  C9  UNL     1      17.105  -0.219  51.738  1.00  0.00     0.130 A 
HETATM   12  N2  UNL     1      16.146   0.656  51.428  1.00  0.00    -0.271 NA
HETATM   13  C10 UNL     1      16.471   1.958  51.228  1.00  0.00     0.141 A 
HETATM   14  C11 UNL     1      17.810   2.274  51.367  1.00  0.00     0.090 A 
HETATM   15  C12 UNL     1      18.128   3.658  51.153  1.00  0.00     0.103 C 
HETATM   16  N3  UNL     1      18.369   4.792  50.982  1.00  0.00    -0.191 NA
HETATM   17  C13 UNL     1      18.807   1.389  51.684  1.00  0.00     0.074 A 
HETATM   18  N4  UNL     1      20.130   1.418  51.872  1.00  0.00    -0.304 N 
HETATM   19  C14 UNL     1      21.074   2.454  51.780  1.00  0.00     0.121 C 
HETATM   20  C15 UNL     1      22.024   3.358  51.735  1.00  0.00     0.061 C 
HETATM   21 CL1  UNL     1      22.010   5.081  51.154  1.00  0.00    -0.084 Cl
HETATM   22  C16 UNL     1      23.387   3.077  52.173  1.00  0.00     0.115 A 
HETATM   23  F1  UNL     1      24.317   4.075  52.084  1.00  0.00    -0.387 F 
HETATM   24  C17 UNL     1      24.477   2.584  52.612  1.00  0.00     0.263 A 
HETATM   25  C18 UNL     1      25.742   2.189  53.063  1.00  0.00     0.080 C 
HETATM   26  C19 UNL     1      26.706   1.520  53.526  1.00  0.00     0.016 C 
HETATM   27  C20 UNL     1      27.869   2.440  53.519  1.00  0.00     0.220 C 
HETATM   28  O2  UNL     1      29.003   1.783  53.030  1.00  0.00    -0.384 OA
HETATM   29  C21 UNL     1      29.323   0.664  53.789  1.00  0.00     0.187 C 
HETATM   30  C22 UNL     1      28.249   0.319  54.779  1.00  0.00     0.149 C 
HETATM   31  N5  UNL     1      26.998   0.209  54.064  1.00  0.00    -0.379 N 
HETATM   32  H7  UNL     1      22.371  -0.176  51.522  1.00  0.00     0.170 HD
ENDROOT
TORSDOF 0
ENDMDL
MODEL 3
REMARK VINA RESULT:      -9.8      3.860      6.258
REMARK  0 active torsions:
REMARK  status: ('A' for Active; 'I' for Inactive)
ROOT
HETATM    1  C1  UNL     1      22.393   7.697  49.745  1.00  0.00     0.032 C 
HETATM    2  C2  UNL     1      22.442   7.064  48.374  1.00  0.00     0.081 C 
HETATM    3  C3  UNL     1      21.956   5.650  48.441  1.00  0.00     0.009 C 
HETATM    4  C4  UNL     1      21.644   4.425  48.835  1.00  0.00     0.123 C 
HETATM    5  C5  UNL     1      21.861   3.833  50.148  1.00  0.00     0.228 C 
HETATM    6  O1  UNL     1      21.556   2.631  50.333  1.00  0.00    -0.273 OA
HETATM    7  N1  UNL     1      22.191   3.554  51.533  1.00  0.00    -0.312 N 
HETATM    8  C6  UNL     1      22.111   2.386  52.315  1.00  0.00     0.115 A 
HETATM    9  C7  UNL     1      20.969   1.868  52.838  1.00  0.00     0.064 A 
HETATM   10  C8  UNL     1      21.329   0.726  53.504  1.00  0.00     0.014 A 
HETATM   11  C9  UNL     1      20.634  -0.208  54.219  1.00  0.00     0.130 A 
HETATM   12  N2  UNL     1      21.174  -1.275  54.812  1.00  0.00    -0.271 NA
HETATM   13  C10 UNL     1      22.513  -1.482  54.719  1.00  0.00     0.141 A 
HETATM   14  C11 UNL     1      23.220  -0.539  53.996  1.00  0.00     0.090 A 
HETATM   15  C12 UNL     1      24.633  -0.783  53.910  1.00  0.00     0.103 C 
HETATM   16  N3  UNL     1      25.783  -1.000  53.845  1.00  0.00    -0.191 NA
HETATM   17  C13 UNL     1      22.682   0.560  53.383  1.00  0.00     0.074 A 
HETATM   18  N4  UNL     1      23.113   1.594  52.652  1.00  0.00    -0.304 N 
HETATM   19  C14 UNL     1      24.396   1.980  52.229  1.00  0.00     0.121 C 
HETATM   20  C15 UNL     1      25.548   2.412  51.775  1.00  0.00     0.061 C 
HETATM   21 CL1  UNL     1      27.249   1.874  52.125  1.00  0.00    -0.084 Cl
HETATM   22  C16 UNL     1      25.647   3.523  50.835  1.00  0.00     0.115 A 
HETATM   23  F1  UNL     1      26.890   3.913  50.419  1.00  0.00    -0.387 F 
HETATM   24  C17 UNL     1      25.462   4.495  50.032  1.00  0.00     0.263 A 
HETATM   25  C18 UNL     1      25.421   5.568  49.133  1.00  0.00     0.080 C 
HETATM   26  C19 UNL     1      25.028   6.500  48.379  1.00  0.00     0.016 C 
HETATM   27  C20 UNL     1      26.258   7.090  47.800  1.00  0.00     0.220 C 
HETATM   28  O2  UNL     1      26.186   8.487  47.830  1.00  0.00    -0.384 OA
HETATM   29  C21 UNL     1      25.087   8.966  47.129  1.00  0.00     0.187 C 
HETATM   30  C22 UNL     1      24.144   7.870  46.726  1.00  0.00     0.149 C 
HETATM   31  N5  UNL     1      23.805   7.113  47.909  1.00  0.00    -0.379 N 
HETATM   32  H7  UNL     1      22.541   4.266  52.190  1.00  0.00     0.170 HD
ENDROOT
TORSDOF 0
ENDMDL
MODEL 4
REMARK VINA RESULT:      -9.5      2.303      8.155
REMARK  0 active torsions:
REMARK  status: ('A' for Active; 'I' for Inactive)
ROOT
HETATM    1  C1  UNL     1      24.526   3.229  53.422  1.00  0.00     0.032 C 
HETATM    2  C2  UNL     1      25.131   2.333  52.368  1.00  0.00     0.081 C 
HETATM    3  C3  UNL     1      24.187   2.179  51.217  1.00  0.00     0.009 C 
HETATM    4  C4  UNL     1      23.108   2.105  50.452  1.00  0.00     0.123 C 
HETATM    5  C5  UNL     1      21.719   2.265  50.860  1.00  0.00     0.228 C 
HETATM    6  O1  UNL     1      20.811   2.103  50.009  1.00  0.00    -0.273 OA
HETATM    7  N1  UNL     1      20.473   2.492  51.567  1.00  0.00    -0.312 N 
HETATM    8  C6  UNL     1      19.125   2.425  51.170  1.00  0.00     0.115 A 
HETATM    9  C7  UNL     1      18.478   3.360  50.427  1.00  0.00     0.064 A 
HETATM   10  C8  UNL     1      17.200   2.900  50.247  1.00  0.00     0.014 A 
HETATM   11  C9  UNL     1      16.101   3.391  49.601  1.00  0.00     0.130 A 
HETATM   12  N2  UNL     1      14.914   2.784  49.540  1.00  0.00    -0.271 NA
HETATM   13  C10 UNL     1      14.747   1.585  50.154  1.00  0.00     0.141 A 
HETATM   14  C11 UNL     1      15.856   1.084  50.810  1.00  0.00     0.090 A 
HETATM   15  C12 UNL     1      15.653  -0.186  51.449  1.00  0.00     0.103 C 
HETATM   16  N3  UNL     1      15.472  -1.226  51.960  1.00  0.00    -0.191 NA
HETATM   17  C13 UNL     1      17.080   1.693  50.883  1.00  0.00     0.074 A 
HETATM   18  N4  UNL     1      18.275   1.447  51.429  1.00  0.00    -0.304 N 
HETATM   19  C14 UNL     1      18.750   0.390  52.222  1.00  0.00     0.121 C 
HETATM   20  C15 UNL     1      19.287  -0.559  52.952  1.00  0.00     0.061 C 
HETATM   21 CL1  UNL     1      18.543  -1.989  53.792  1.00  0.00    -0.084 Cl
HETATM   22  C16 UNL     1      20.716  -0.599  53.247  1.00  0.00     0.115 A 
HETATM   23  F1  UNL     1      21.191  -1.620  54.022  1.00  0.00    -0.387 F 
HETATM   24  C17 UNL     1      21.971  -0.407  53.352  1.00  0.00     0.263 A 
HETATM   25  C18 UNL     1      23.354  -0.333  53.561  1.00  0.00     0.080 C 
HETATM   26  C19 UNL     1      24.561   0.031  53.543  1.00  0.00     0.016 C 
HETATM   27  C20 UNL     1      25.291  -0.970  54.356  1.00  0.00     0.220 C 
HETATM   28  O2  UNL     1      26.194  -0.333  55.214  1.00  0.00    -0.384 OA
HETATM   29  C21 UNL     1      27.117   0.437  54.518  1.00  0.00     0.187 C 
HETATM   30  C22 UNL     1      26.768   0.573  53.064  1.00  0.00     0.149 C 
HETATM   31  N5  UNL     1      25.410   1.055  52.973  1.00  0.00    -0.379 N 
HETATM   32  H7  UNL     1      20.424   2.788  52.554  1.00  0.00     0.170 HD
ENDROOT
TORSDOF 0
ENDMDL
MODEL 5
REMARK VINA RESULT:      -9.3      7.360      9.058
REMARK  0 active torsions:
REMARK  status: ('A' for Active; 'I' for Inactive)
ROOT
HETATM    1  C1  UNL     1      21.998   6.656  48.356  1.00  0.00     0.032 C 
HETATM    2  C2  UNL     1      22.094   6.275  49.814  1.00  0.00     0.081 C 
HETATM    3  C3  UNL     1      23.037   7.193  50.526  1.00  0.00     0.009 C 
HETATM    4  C4  UNL     1      24.015   8.031  50.832  1.00  0.00     0.123 C 
HETATM    5  C5  UNL     1      25.028   8.578  49.939  1.00  0.00     0.228 C 
HETATM    6  O1  UNL     1      25.923   9.318  50.411  1.00  0.00    -0.273 OA
HETATM    7  N1  UNL     1      25.862   8.951  48.813  1.00  0.00    -0.312 N 
HETATM    8  C6  UNL     1      27.030   9.729  48.708  1.00  0.00     0.115 A 
HETATM    9  C7  UNL     1      27.076  11.086  48.755  1.00  0.00     0.064 A 
HETATM   10  C8  UNL     1      28.396  11.435  48.641  1.00  0.00     0.014 A 
HETATM   11  C9  UNL     1      29.058  12.630  48.620  1.00  0.00     0.130 A 
HETATM   12  N2  UNL     1      30.379  12.771  48.494  1.00  0.00    -0.271 NA
HETATM   13  C10 UNL     1      31.159  11.666  48.376  1.00  0.00     0.141 A 
HETATM   14  C11 UNL     1      30.494  10.454  48.397  1.00  0.00     0.090 A 
HETATM   15  C12 UNL     1      31.340   9.301  48.274  1.00  0.00     0.103 C 
HETATM   16  N3  UNL     1      32.047   8.370  48.178  1.00  0.00    -0.191 NA
HETATM   17  C13 UNL     1      29.140  10.292  48.525  1.00  0.00     0.074 A 
HETATM   18  N4  UNL     1      28.266   9.281  48.570  1.00  0.00    -0.304 N 
HETATM   19  C14 UNL     1      28.427   7.890  48.469  1.00  0.00     0.121 C 
HETATM   20  C15 UNL     1      28.479   6.580  48.401  1.00  0.00     0.061 C 
HETATM   21 CL1  UNL     1      29.845   5.457  47.980  1.00  0.00    -0.084 Cl
HETATM   22  C16 UNL     1      27.315   5.741  48.663  1.00  0.00     0.115 A 
HETATM   23  F1  UNL     1      27.456   4.384  48.563  1.00  0.00    -0.387 F 
HETATM   24  C17 UNL     1      26.173   5.246  48.936  1.00  0.00     0.263 A 
HETATM   25  C18 UNL     1      24.986   4.554  49.211  1.00  0.00     0.080 C 
HETATM   26  C19 UNL     1      23.794   4.270  49.505  1.00  0.00     0.016 C 
HETATM   27  C20 UNL     1      23.713   2.790  49.454  1.00  0.00     0.220 C 
HETATM   28  O2  UNL     1      22.548   2.391  48.789  1.00  0.00    -0.384 OA
HETATM   29  C21 UNL     1      21.404   2.881  49.406  1.00  0.00     0.187 C 
HETATM   30  C22 UNL     1      21.717   3.890  50.472  1.00  0.00     0.149 C 
HETATM   31  N5  UNL     1      22.555   4.912  49.890  1.00  0.00    -0.379 N 
HETATM   32  H7  UNL     1      25.661   8.677  47.839  1.00  0.00     0.170 HD
ENDROOT
TORSDOF 0
ENDMDL
MODEL 6
REMARK VINA RESULT:      -9.2      3.325      5.090
REMARK  0 active torsions:
REMARK  status: ('A' for Active; 'I' for Inactive)
ROOT
HETATM    1  C1  UNL     1      19.243   5.774  48.907  1.00  0.00     0.032 C 
HETATM    2  C2  UNL     1      19.282   4.883  47.689  1.00  0.00     0.081 C 
HETATM    3  C3  UNL     1      19.431   3.452  48.101  1.00  0.00     0.009 C 
HETATM    4  C4  UNL     1      19.721   2.334  48.748  1.00  0.00     0.123 C 
HETATM    5  C5  UNL     1      20.403   2.200  50.028  1.00  0.00     0.228 C 
HETATM    6  O1  UNL     1      20.651   1.054  50.471  1.00  0.00    -0.273 OA
HETATM    7  N1  UNL     1      21.074   2.407  51.297  1.00  0.00    -0.312 N 
HETATM    8  C6  UNL     1      21.622   1.519  52.241  1.00  0.00     0.115 A 
HETATM    9  C7  UNL     1      20.909   0.776  53.127  1.00  0.00     0.064 A 
HETATM   10  C8  UNL     1      21.818   0.038  53.838  1.00  0.00     0.014 A 
HETATM   11  C9  UNL     1      21.709  -0.874  54.850  1.00  0.00     0.130 A 
HETATM   12  N2  UNL     1      22.736  -1.499  55.430  1.00  0.00    -0.271 NA
HETATM   13  C10 UNL     1      23.999  -1.234  55.012  1.00  0.00     0.141 A 
HETATM   14  C11 UNL     1      24.115  -0.312  53.989  1.00  0.00     0.090 A 
HETATM   15  C12 UNL     1      25.461  -0.052  53.562  1.00  0.00     0.103 C 
HETATM   16  N3  UNL     1      26.566   0.144  53.222  1.00  0.00    -0.191 NA
HETATM   17  C13 UNL     1      23.073   0.338  53.382  1.00  0.00     0.074 A 
HETATM   18  N4  UNL     1      22.903   1.243  52.413  1.00  0.00    -0.304 N 
HETATM   19  C14 UNL     1      23.815   1.941  51.604  1.00  0.00     0.121 C 
HETATM   20  C15 UNL     1      24.586   2.627  50.794  1.00  0.00     0.061 C 
HETATM   21 CL1  UNL     1      26.392   2.831  50.749  1.00  0.00    -0.084 Cl
HETATM   22  C16 UNL     1      24.048   3.433  49.703  1.00  0.00     0.115 A 
HETATM   23  F1  UNL     1      24.924   4.122  48.911  1.00  0.00    -0.387 F 
HETATM   24  C17 UNL     1      23.337   4.045  48.841  1.00  0.00     0.263 A 
HETATM   25  C18 UNL     1      22.697   4.777  47.833  1.00  0.00     0.080 C 
HETATM   26  C19 UNL     1      21.826   5.291  47.080  1.00  0.00     0.016 C 
HETATM   27  C20 UNL     1      22.579   6.117  46.105  1.00  0.00     0.220 C 
HETATM   28  O2  UNL     1      21.956   7.359  45.939  1.00  0.00    -0.384 OA
HETATM   29  C21 UNL     1      20.646   7.228  45.497  1.00  0.00     0.187 C 
HETATM   30  C22 UNL     1      20.168   5.806  45.537  1.00  0.00     0.149 C 
HETATM   31  N5  UNL     1      20.394   5.295  46.869  1.00  0.00    -0.379 N 
HETATM   32  H7  UNL     1      21.225   3.336  51.717  1.00  0.00     0.170 HD
ENDROOT
TORSDOF 0
ENDMDL
MODEL 7
REMARK VINA RESULT:      -9.0      2.551      3.481
REMARK  0 active torsions:
REMARK  status: ('A' for Active; 'I' for Inactive)
ROOT
HETATM    1  C1  UNL     1      22.596   5.680  47.842  1.00  0.00     0.032 C 
HETATM    2  C2  UNL     1      21.983   6.670  48.803  1.00  0.00     0.081 C 
HETATM    3  C3  UNL     1      22.456   6.397  50.196  1.00  0.00     0.009 C 
HETATM    4  C4  UNL     1      22.905   5.825  51.302  1.00  0.00     0.123 C 
HETATM    5  C5  UNL     1      23.255   4.425  51.497  1.00  0.00     0.228 C 
HETATM    6  O1  UNL     1      23.612   4.038  52.636  1.00  0.00    -0.273 OA
HETATM    7  N1  UNL     1      23.531   3.007  51.361  1.00  0.00    -0.312 N 
HETATM    8  C6  UNL     1      23.931   2.021  52.282  1.00  0.00     0.115 A 
HETATM    9  C7  UNL     1      25.189   1.871  52.775  1.00  0.00     0.064 A 
HETATM   10  C8  UNL     1      25.141   0.818  53.650  1.00  0.00     0.014 A 
HETATM   11  C9  UNL     1      26.072   0.203  54.438  1.00  0.00     0.130 A 
HETATM   12  N2  UNL     1      25.829  -0.837  55.240  1.00  0.00    -0.271 NA
HETATM   13  C10 UNL     1      24.574  -1.349  55.304  1.00  0.00     0.141 A 
HETATM   14  C11 UNL     1      23.628  -0.730  54.509  1.00  0.00     0.090 A 
HETATM   15  C12 UNL     1      22.308  -1.289  54.597  1.00  0.00     0.103 C 
HETATM   16  N3  UNL     1      21.235  -1.753  54.686  1.00  0.00    -0.191 NA
HETATM   17  C13 UNL     1      23.860   0.336  53.681  1.00  0.00     0.074 A 
HETATM   18  N4  UNL     1      23.162   1.099  52.833  1.00  0.00    -0.304 N 
HETATM   19  C14 UNL     1      21.819   1.067  52.423  1.00  0.00     0.121 C 
HETATM   20  C15 UNL     1      20.581   1.128  51.993  1.00  0.00     0.061 C 
HETATM   21 CL1  UNL     1      19.181  -0.010  52.215  1.00  0.00    -0.084 Cl
HETATM   22  C16 UNL     1      20.098   2.228  51.165  1.00  0.00     0.115 A 
HETATM   23  F1  UNL     1      18.794   2.207  50.754  1.00  0.00    -0.387 F 
HETATM   24  C17 UNL     1      19.931   3.281  50.469  1.00  0.00     0.263 A 
HETATM   25  C18 UNL     1      19.591   4.390  49.683  1.00  0.00     0.080 C 
HETATM   26  C19 UNL     1      19.634   5.472  49.036  1.00  0.00     0.016 C 
HETATM   27  C20 UNL     1      18.273   5.657  48.478  1.00  0.00     0.220 C 
HETATM   28  O2  UNL     1      18.348   6.062  47.141  1.00  0.00    -0.384 OA
HETATM   29  C21 UNL     1      19.055   7.249  46.998  1.00  0.00     0.187 C 
HETATM   30  C22 UNL     1      19.748   7.659  48.265  1.00  0.00     0.149 C 
HETATM   31  N5  UNL     1      20.549   6.546  48.718  1.00  0.00    -0.379 N 
HETATM   32  H7  UNL     1      23.485   2.501  50.464  1.00  0.00     0.170 HD
ENDROOT
TORSDOF 0
ENDMDL
MODEL 8
REMARK VINA RESULT:      -9.0      8.151     10.001
REMARK  0 active torsions:
REMARK  status: ('A' for Active; 'I' for Inactive)
ROOT
HETATM    1  C1  UNL     1      23.812   7.902  48.028  1.00  0.00     0.032 C 
HETATM    2  C2  UNL     1      23.903   7.656  49.515  1.00  0.00     0.081 C 
HETATM    3  C3  UNL     1      25.110   8.339  50.078  1.00  0.00     0.009 C 
HETATM    4  C4  UNL     1      26.300   8.895  50.245  1.00  0.00     0.123 C 
HETATM    5  C5  UNL     1      27.357   9.044  49.254  1.00  0.00     0.228 C 
HETATM    6  O1  UNL     1      28.453   9.546  49.601  1.00  0.00    -0.273 OA
HETATM    7  N1  UNL     1      28.180   9.054  48.059  1.00  0.00    -0.312 N 
HETATM    8  C6  UNL     1      29.506   9.458  47.818  1.00  0.00     0.115 A 
HETATM    9  C7  UNL     1      29.926  10.746  47.706  1.00  0.00     0.064 A 
HETATM   10  C8  UNL     1      31.279  10.698  47.499  1.00  0.00     0.014 A 
HETATM   11  C9  UNL     1      32.240  11.651  47.313  1.00  0.00     0.130 A 
HETATM   12  N2  UNL     1      33.537  11.402  47.118  1.00  0.00    -0.271 NA
HETATM   13  C10 UNL     1      33.973  10.116  47.097  1.00  0.00     0.141 A 
HETATM   14  C11 UNL     1      33.004   9.148  47.284  1.00  0.00     0.090 A 
HETATM   15  C12 UNL     1      33.490   7.797  47.260  1.00  0.00     0.103 C 
HETATM   16  N3  UNL     1      33.906   6.701  47.244  1.00  0.00    -0.191 NA
HETATM   17  C13 UNL     1      31.670   9.386  47.485  1.00  0.00     0.074 A 
HETATM   18  N4  UNL     1      30.558   8.671  47.682  1.00  0.00    -0.304 N 
HETATM   19  C14 UNL     1      30.323   7.287  47.735  1.00  0.00     0.121 C 
HETATM   20  C15 UNL     1      30.009   6.016  47.817  1.00  0.00     0.061 C 
HETATM   21 CL1  UNL     1      30.981   4.518  47.473  1.00  0.00    -0.084 Cl
HETATM   22  C16 UNL     1      28.681   5.567  48.221  1.00  0.00     0.115 A 
HETATM   23  F1  UNL     1      28.437   4.222  48.272  1.00  0.00    -0.387 F 
HETATM   24  C17 UNL     1      27.469   5.442  48.595  1.00  0.00     0.263 A 
HETATM   25  C18 UNL     1      26.161   5.142  48.996  1.00  0.00     0.080 C 
HETATM   26  C19 UNL     1      24.961   5.234  49.370  1.00  0.00     0.016 C 
HETATM   27  C20 UNL     1      24.473   3.839  49.493  1.00  0.00     0.220 C 
HETATM   28  O2  UNL     1      23.199   3.720  48.926  1.00  0.00    -0.384 OA
HETATM   29  C21 UNL     1      22.281   4.569  49.529  1.00  0.00     0.187 C 
HETATM   30  C22 UNL     1      22.934   5.551  50.459  1.00  0.00     0.149 C 
HETATM   31  N5  UNL     1      23.977   6.233  49.728  1.00  0.00    -0.379 N 
HETATM   32  H7  UNL     1      27.842   8.752  47.133  1.00  0.00     0.170 HD
ENDROOT
TORSDOF 0
ENDMDL
MODEL 9
REMARK VINA RESULT:      -8.6      3.758      5.214
REMARK  0 active torsions:
REMARK  status: ('A' for Active; 'I' for Inactive)
ROOT
HETATM    1  C1  UNL     1      23.581   7.229  48.001  1.00  0.00     0.032 C 
HETATM    2  C2  UNL     1      23.266   8.221  49.095  1.00  0.00     0.081 C 
HETATM    3  C3  UNL     1      23.588   7.633  50.433  1.00  0.00     0.009 C 
HETATM    4  C4  UNL     1      23.806   6.807  51.445  1.00  0.00     0.123 C 
HETATM    5  C5  UNL     1      23.707   5.354  51.442  1.00  0.00     0.228 C 
HETATM    6  O1  UNL     1      23.892   4.727  52.513  1.00  0.00    -0.273 OA
HETATM    7  N1  UNL     1      23.544   3.952  51.109  1.00  0.00    -0.312 N 
HETATM    8  C6  UNL     1      23.594   2.776  51.881  1.00  0.00     0.115 A 
HETATM    9  C7  UNL     1      24.730   2.184  52.336  1.00  0.00     0.064 A 
HETATM   10  C8  UNL     1      24.336   1.089  53.059  1.00  0.00     0.014 A 
HETATM   11  C9  UNL     1      25.009   0.118  53.745  1.00  0.00     0.130 A 
HETATM   12  N2  UNL     1      24.436  -0.895  54.398  1.00  0.00    -0.271 NA
HETATM   13  C10 UNL     1      23.083  -1.003  54.404  1.00  0.00     0.141 A 
HETATM   14  C11 UNL     1      22.397  -0.023  53.711  1.00  0.00     0.090 A 
HETATM   15  C12 UNL     1      20.967  -0.158  53.734  1.00  0.00     0.103 C 
HETATM   16  N3  UNL     1      19.802  -0.280  53.769  1.00  0.00    -0.191 NA
HETATM   17  C13 UNL     1      22.969   1.022  53.036  1.00  0.00     0.074 A 
HETATM   18  N4  UNL     1      22.564   2.068  52.308  1.00  0.00    -0.304 N 
HETATM   19  C14 UNL     1      21.289   2.504  51.910  1.00  0.00     0.121 C 
HETATM   20  C15 UNL     1      20.143   2.997  51.505  1.00  0.00     0.061 C 
HETATM   21 CL1  UNL     1      18.456   2.322  51.582  1.00  0.00    -0.084 Cl
HETATM   22  C16 UNL     1      20.044   4.293  50.841  1.00  0.00     0.115 A 
HETATM   23  F1  UNL     1      18.809   4.727  50.445  1.00  0.00    -0.387 F 
HETATM   24  C17 UNL     1      20.228   5.430  50.298  1.00  0.00     0.263 A 
HETATM   25  C18 UNL     1      20.268   6.685  49.676  1.00  0.00     0.080 C 
HETATM   26  C19 UNL     1      20.658   7.778  49.184  1.00  0.00     0.016 C 
HETATM   27  C20 UNL     1      19.437   8.443  48.671  1.00  0.00     0.220 C 
HETATM   28  O2  UNL     1      19.676   8.982  47.402  1.00  0.00    -0.384 OA
HETATM   29  C21 UNL     1      20.714   9.904  47.416  1.00  0.00     0.187 C 
HETATM   30  C22 UNL     1      21.457   9.909  48.721  1.00  0.00     0.149 C 
HETATM   31  N5  UNL     1      21.867   8.554  49.008  1.00  0.00    -0.379 N 
HETATM   32  H7  UNL     1      23.375   3.609  50.151  1.00  0.00     0.170 HD
ENDROOT
TORSDOF 0
ENDMDL
