MODEL 1
REMARK VINA RESULT:      -7.8      0.000      0.000
REMARK  2 active torsions:
REMARK  status: ('A' for Active; 'I' for Inactive)
REMARK    1  A    between atoms: O1_1  and  C1_2 
REMARK    2  A    between atoms: C2_3  and  N1_4 
ROOT
HETATM    1  N1  UNL     1      25.220   3.307  51.202  1.00  0.00    -0.272 N 
HETATM    2  C3  UNL     1      24.135   2.546  50.687  1.00  0.00     0.226 C 
HETATM    3  N2  UNL     1      22.978   2.038  51.046  1.00  0.00    -0.255 NA
HETATM    4  C4  UNL     1      22.205   1.300  50.080  1.00  0.00     0.114 C 
HETATM    5  C5  UNL     1      20.902   1.202  49.993  1.00  0.00    -0.007 C 
HETATM    6  C6  UNL     1      19.555   1.549  50.508  1.00  0.00     0.032 C 
HETATM    7  C7  UNL     1      19.665   2.397  51.771  1.00  0.00     0.031 C 
HETATM    8  C8  UNL     1      20.374   3.673  51.494  1.00  0.00    -0.020 C 
HETATM    9  C9  UNL     1      20.952   4.588  50.719  1.00  0.00     0.041 C 
HETATM   10  S1  UNL     1      21.757   6.175  51.093  1.00  0.00    -0.141 SA
HETATM   11  C10 UNL     1      23.507   5.732  51.568  1.00  0.00     0.094 C 
HETATM   12  C11 UNL     1      24.178   5.211  50.322  1.00  0.00     0.121 C 
HETATM   13  N3  UNL     1      25.453   4.564  50.559  1.00  0.00    -0.232 NA
HETATM   14  H15 UNL     1      25.810   4.308  49.612  1.00  0.00     0.147 HD
ENDROOT
BRANCH   1  15
HETATM   15  C2  UNL     1      25.578   2.376  52.188  1.00  0.00     0.066 C 
HETATM   16  C1  UNL     1      26.852   1.907  52.365  1.00  0.00     0.077 C 
HETATM   17  C15 UNL     1      27.380   0.638  52.868  1.00  0.00     0.093 C 
HETATM   18  C14 UNL     1      26.185  -0.231  53.205  1.00  0.00     0.019 C 
HETATM   19  C16 UNL     1      27.957   0.750  54.290  1.00  0.00     0.190 C 
HETATM   20  C13 UNL     1      25.749   0.873  53.867  1.00  0.00     0.049 C 
HETATM   21  C12 UNL     1      24.654   1.731  53.230  1.00  0.00     0.125 C 
HETATM   22  O2  UNL     1      26.642   0.680  54.971  1.00  0.00    -0.354 OA
BRANCH  16  23
HETATM   23  O1  UNL     1      27.868   2.816  51.994  1.00  0.00    -0.362 OA
HETATM   24  H1  UNL     1      28.586   3.005  52.678  1.00  0.00     0.217 HD
ENDBRANCH  16  23
ENDBRANCH   1  15
TORSDOF 2
ENDMDL
MODEL 2
REMARK VINA RESULT:      -7.5      2.157      3.989
REMARK  2 active torsions:
REMARK  status: ('A' for Active; 'I' for Inactive)
REMARK    1  A    between atoms: O1_1  and  C1_2 
REMARK    2  A    between atoms: C2_3  and  N1_4 
ROOT
HETATM    1  N1  UNL     1      24.052   0.295  53.509  1.00  0.00    -0.272 N 
HETATM    2  C3  UNL     1      23.948   1.709  53.399  1.00  0.00     0.226 C 
HETATM    3  N2  UNL     1      24.168   2.690  52.554  1.00  0.00    -0.255 NA
HETATM    4  C4  UNL     1      23.873   4.042  52.956  1.00  0.00     0.114 C 
HETATM    5  C5  UNL     1      23.477   5.039  52.205  1.00  0.00    -0.007 C 
HETATM    6  C6  UNL     1      23.107   5.567  50.870  1.00  0.00     0.032 C 
HETATM    7  C7  UNL     1      23.291   4.497  49.798  1.00  0.00     0.031 C 
HETATM    8  C8  UNL     1      22.420   3.323  50.065  1.00  0.00    -0.020 C 
HETATM    9  C9  UNL     1      21.467   2.649  50.705  1.00  0.00     0.041 C 
HETATM   10  S1  UNL     1      20.795   0.975  50.483  1.00  0.00    -0.141 SA
HETATM   11  C10 UNL     1      21.963  -0.145  51.413  1.00  0.00     0.094 C 
HETATM   12  C11 UNL     1      21.800   0.176  52.878  1.00  0.00     0.121 C 
HETATM   13  N3  UNL     1      22.821  -0.400  53.731  1.00  0.00    -0.232 NA
HETATM   14  H15 UNL     1      22.546  -0.136  54.703  1.00  0.00     0.147 HD
ENDROOT
BRANCH   1  15
HETATM   15  C2  UNL     1      25.442   0.251  53.331  1.00  0.00     0.066 C 
HETATM   16  C1  UNL     1      26.342   0.237  54.362  1.00  0.00     0.077 C 
HETATM   17  C15 UNL     1      27.716   0.727  54.485  1.00  0.00     0.093 C 
HETATM   18  C14 UNL     1      28.079   1.355  53.155  1.00  0.00     0.019 C 
HETATM   19  C16 UNL     1      28.759  -0.404  54.467  1.00  0.00     0.190 C 
HETATM   20  C13 UNL     1      27.593   0.197  52.637  1.00  0.00     0.049 C 
HETATM   21  C12 UNL     1      26.203   0.199  51.997  1.00  0.00     0.125 C 
HETATM   22  O2  UNL     1      28.757  -0.561  52.993  1.00  0.00    -0.354 OA
BRANCH  16  23
HETATM   23  O1  UNL     1      25.865  -0.365  55.548  1.00  0.00    -0.362 OA
HETATM   24  H1  UNL     1      26.458  -1.058  55.980  1.00  0.00     0.217 HD
ENDBRANCH  16  23
ENDBRANCH   1  15
TORSDOF 2
ENDMDL
MODEL 3
REMARK VINA RESULT:      -7.5      3.824      5.804
REMARK  2 active torsions:
REMARK  status: ('A' for Active; 'I' for Inactive)
REMARK    1  A    between atoms: O1_1  and  C1_2 
REMARK    2  A    between atoms: C2_3  and  N1_4 
ROOT
HETATM    1  N1  UNL     1      24.908   6.557  50.581  1.00  0.00    -0.272 N 
HETATM    2  C3  UNL     1      23.996   6.284  49.525  1.00  0.00     0.226 C 
HETATM    3  N2  UNL     1      23.765   5.413  48.569  1.00  0.00    -0.255 NA
HETATM    4  C4  UNL     1      22.626   5.601  47.707  1.00  0.00     0.114 C 
HETATM    5  C5  UNL     1      21.896   4.685  47.123  1.00  0.00    -0.007 C 
HETATM    6  C6  UNL     1      21.607   3.255  46.858  1.00  0.00     0.032 C 
HETATM    7  C7  UNL     1      22.648   2.363  47.529  1.00  0.00     0.031 C 
HETATM    8  C8  UNL     1      22.637   2.551  49.003  1.00  0.00    -0.020 C 
HETATM    9  C9  UNL     1      22.173   3.032  50.154  1.00  0.00     0.041 C 
HETATM   10  S1  UNL     1      22.731   2.839  51.873  1.00  0.00    -0.141 SA
HETATM   11  C10 UNL     1      24.080   4.111  52.091  1.00  0.00     0.094 C 
HETATM   12  C11 UNL     1      23.418   5.464  52.020  1.00  0.00     0.121 C 
HETATM   13  N3  UNL     1      24.343   6.573  51.895  1.00  0.00    -0.232 NA
HETATM   14  H15 UNL     1      23.746   7.430  51.910  1.00  0.00     0.147 HD
ENDROOT
BRANCH   1  15
HETATM   15  C2  UNL     1      26.032   6.692  49.754  1.00  0.00     0.066 C 
HETATM   16  C1  UNL     1      26.765   7.843  49.647  1.00  0.00     0.077 C 
HETATM   17  C15 UNL     1      27.553   8.419  48.556  1.00  0.00     0.093 C 
HETATM   18  C14 UNL     1      27.438   7.467  47.382  1.00  0.00     0.019 C 
HETATM   19  C16 UNL     1      29.070   8.286  48.777  1.00  0.00     0.190 C 
HETATM   20  C13 UNL     1      27.757   6.520  48.303  1.00  0.00     0.049 C 
HETATM   21  C12 UNL     1      26.648   5.616  48.847  1.00  0.00     0.125 C 
HETATM   22  O2  UNL     1      29.145   6.875  48.328  1.00  0.00    -0.354 OA
BRANCH  16  23
HETATM   23  O1  UNL     1      26.771   8.644  50.811  1.00  0.00    -0.362 OA
HETATM   24  H1  UNL     1      27.666   8.814  51.245  1.00  0.00     0.217 HD
ENDBRANCH  16  23
ENDBRANCH   1  15
TORSDOF 2
ENDMDL
MODEL 4
REMARK VINA RESULT:      -7.3      7.721     10.560
REMARK  2 active torsions:
REMARK  status: ('A' for Active; 'I' for Inactive)
REMARK    1  A    between atoms: O1_1  and  C1_2 
REMARK    2  A    between atoms: C2_3  and  N1_4 
ROOT
HETATM    1  N1  UNL     1      29.254  10.333  49.155  1.00  0.00    -0.272 N 
HETATM    2  C3  UNL     1      30.038   9.147  49.174  1.00  0.00     0.226 C 
HETATM    3  N2  UNL     1      30.368   8.124  48.419  1.00  0.00    -0.255 NA
HETATM    4  C4  UNL     1      31.262   7.123  48.944  1.00  0.00     0.114 C 
HETATM    5  C5  UNL     1      32.131   6.395  48.290  1.00  0.00    -0.007 C 
HETATM    6  C6  UNL     1      32.780   6.017  47.012  1.00  0.00     0.032 C 
HETATM    7  C7  UNL     1      32.154   6.777  45.846  1.00  0.00     0.031 C 
HETATM    8  C8  UNL     1      32.329   8.243  46.013  1.00  0.00    -0.020 C 
HETATM    9  C9  UNL     1      32.799   9.342  46.598  1.00  0.00     0.041 C 
HETATM   10  S1  UNL     1      32.582  11.109  46.232  1.00  0.00    -0.141 SA
HETATM   11  C10 UNL     1      30.971  11.581  47.047  1.00  0.00     0.094 C 
HETATM   12  C11 UNL     1      31.193  11.491  48.536  1.00  0.00     0.121 C 
HETATM   13  N3  UNL     1      29.978  11.555  49.324  1.00  0.00    -0.232 NA
HETATM   14  H15 UNL     1      30.296  11.533  50.318  1.00  0.00     0.147 HD
ENDROOT
BRANCH   1  15
HETATM   15  C2  UNL     1      28.029   9.678  48.961  1.00  0.00     0.066 C 
HETATM   16  C1  UNL     1      27.311   9.092  49.969  1.00  0.00     0.077 C 
HETATM   17  C15 UNL     1      26.391   7.954  49.997  1.00  0.00     0.093 C 
HETATM   18  C14 UNL     1      26.324   7.408  48.586  1.00  0.00     0.019 C 
HETATM   19  C16 UNL     1      24.917   8.378  50.122  1.00  0.00     0.190 C 
HETATM   20  C13 UNL     1      26.117   8.708  48.246  1.00  0.00     0.049 C 
HETATM   21  C12 UNL     1      27.273   9.504  47.636  1.00  0.00     0.125 C 
HETATM   22  O2  UNL     1      24.753   8.704  48.685  1.00  0.00    -0.354 OA
BRANCH  16  23
HETATM   23  O1  UNL     1      27.482   9.693  51.236  1.00  0.00    -0.362 OA
HETATM   24  H1  UNL     1      28.189   9.297  51.838  1.00  0.00     0.217 HD
ENDBRANCH  16  23
ENDBRANCH   1  15
TORSDOF 2
ENDMDL
MODEL 5
REMARK VINA RESULT:      -7.3      2.967      5.273
REMARK  2 active torsions:
REMARK  status: ('A' for Active; 'I' for Inactive)
REMARK    1  A    between atoms: O1_1  and  C1_2 
REMARK    2  A    between atoms: C2_3  and  N1_4 
ROOT
HETATM    1  N1  UNL     1      24.202   3.986  52.127  1.00  0.00    -0.272 N 
HETATM    2  C3  UNL     1      22.786   3.871  52.193  1.00  0.00     0.226 C 
HETATM    3  N2  UNL     1      21.766   3.368  51.534  1.00  0.00    -0.255 NA
HETATM    4  C4  UNL     1      20.436   3.536  52.063  1.00  0.00     0.114 C 
HETATM    5  C5  UNL     1      19.414   2.727  51.947  1.00  0.00    -0.007 C 
HETATM    6  C6  UNL     1      18.834   1.463  51.433  1.00  0.00     0.032 C 
HETATM    7  C7  UNL     1      19.855   0.707  50.588  1.00  0.00     0.031 C 
HETATM    8  C8  UNL     1      21.050   0.348  51.395  1.00  0.00    -0.020 C 
HETATM    9  C9  UNL     1      21.763   0.245  52.514  1.00  0.00     0.041 C 
HETATM   10  S1  UNL     1      23.435  -0.388  52.844  1.00  0.00    -0.141 SA
HETATM   11  C10 UNL     1      24.578   1.037  52.460  1.00  0.00     0.094 C 
HETATM   12  C11 UNL     1      24.322   2.095  53.503  1.00  0.00     0.121 C 
HETATM   13  N3  UNL     1      24.920   3.381  53.206  1.00  0.00    -0.232 NA
HETATM   14  H15 UNL     1      24.701   3.981  54.032  1.00  0.00     0.147 HD
ENDROOT
BRANCH   1  15
HETATM   15  C2  UNL     1      24.220   4.704  50.923  1.00  0.00     0.066 C 
HETATM   16  C1  UNL     1      24.023   6.056  50.840  1.00  0.00     0.077 C 
HETATM   17  C15 UNL     1      23.465   6.913  49.793  1.00  0.00     0.093 C 
HETATM   18  C14 UNL     1      23.058   6.004  48.651  1.00  0.00     0.019 C 
HETATM   19  C16 UNL     1      24.541   7.715  49.039  1.00  0.00     0.190 C 
HETATM   20  C13 UNL     1      24.306   5.488  48.805  1.00  0.00     0.049 C 
HETATM   21  C12 UNL     1      24.467   4.142  49.515  1.00  0.00     0.125 C 
HETATM   22  O2  UNL     1      24.946   6.595  48.156  1.00  0.00    -0.354 OA
BRANCH  16  23
HETATM   23  O1  UNL     1      24.433   6.779  51.982  1.00  0.00    -0.362 OA
HETATM   24  H1  UNL     1      23.705   7.164  52.565  1.00  0.00     0.217 HD
ENDBRANCH  16  23
ENDBRANCH   1  15
TORSDOF 2
ENDMDL
MODEL 6
REMARK VINA RESULT:      -7.2      3.271      5.807
REMARK  2 active torsions:
REMARK  status: ('A' for Active; 'I' for Inactive)
REMARK    1  A    between atoms: O1_1  and  C1_2 
REMARK    2  A    between atoms: C2_3  and  N1_4 
ROOT
HETATM    1  N1  UNL     1      23.785   6.090  51.626  1.00  0.00    -0.272 N 
HETATM    2  C3  UNL     1      22.683   5.724  50.804  1.00  0.00     0.226 C 
HETATM    3  N2  UNL     1      22.408   5.173  49.644  1.00  0.00    -0.255 NA
HETATM    4  C4  UNL     1      21.031   5.017  49.249  1.00  0.00     0.114 C 
HETATM    5  C5  UNL     1      20.506   4.076  48.507  1.00  0.00    -0.007 C 
HETATM    6  C6  UNL     1      20.666   2.837  47.707  1.00  0.00     0.032 C 
HETATM    7  C7  UNL     1      22.133   2.424  47.646  1.00  0.00     0.031 C 
HETATM    8  C8  UNL     1      22.663   2.143  49.005  1.00  0.00    -0.020 C 
HETATM    9  C9  UNL     1      22.576   1.975  50.323  1.00  0.00     0.041 C 
HETATM   10  S1  UNL     1      23.820   1.593  51.591  1.00  0.00    -0.141 SA
HETATM   11  C10 UNL     1      24.586   3.236  52.032  1.00  0.00     0.094 C 
HETATM   12  C11 UNL     1      23.518   4.042  52.730  1.00  0.00     0.121 C 
HETATM   13  N3  UNL     1      23.846   5.443  52.900  1.00  0.00    -0.232 NA
HETATM   14  H15 UNL     1      23.045   5.848  53.435  1.00  0.00     0.147 HD
ENDROOT
BRANCH   1  15
HETATM   15  C2  UNL     1      24.339   6.994  50.708  1.00  0.00     0.066 C 
HETATM   16  C1  UNL     1      25.606   6.885  50.201  1.00  0.00     0.077 C 
HETATM   17  C15 UNL     1      26.573   7.877  49.729  1.00  0.00     0.093 C 
HETATM   18  C14 UNL     1      25.927   9.237  49.902  1.00  0.00     0.019 C 
HETATM   19  C16 UNL     1      26.700   7.906  48.196  1.00  0.00     0.190 C 
HETATM   20  C13 UNL     1      24.871   8.657  49.273  1.00  0.00     0.049 C 
HETATM   21  C12 UNL     1      23.659   8.232  50.104  1.00  0.00     0.125 C 
HETATM   22  O2  UNL     1      25.483   8.725  47.978  1.00  0.00    -0.354 OA
BRANCH  16  23
HETATM   23  O1  UNL     1      26.088   5.560  50.112  1.00  0.00    -0.362 OA
HETATM   24  H1  UNL     1      26.815   5.383  49.434  1.00  0.00     0.217 HD
ENDBRANCH  16  23
ENDBRANCH   1  15
TORSDOF 2
ENDMDL
MODEL 7
REMARK VINA RESULT:      -7.2      1.723      2.335
REMARK  2 active torsions:
REMARK  status: ('A' for Active; 'I' for Inactive)
REMARK    1  A    between atoms: O1_1  and  C1_2 
REMARK    2  A    between atoms: C2_3  and  N1_4 
ROOT
HETATM    1  N1  UNL     1      24.395   3.183  52.883  1.00  0.00    -0.272 N 
HETATM    2  C3  UNL     1      24.407   3.153  51.462  1.00  0.00     0.226 C 
HETATM    3  N2  UNL     1      23.954   2.452  50.447  1.00  0.00    -0.255 NA
HETATM    4  C4  UNL     1      24.269   2.873  49.105  1.00  0.00     0.114 C 
HETATM    5  C5  UNL     1      23.545   2.730  48.024  1.00  0.00    -0.007 C 
HETATM    6  C6  UNL     1      22.307   2.247  47.367  1.00  0.00     0.032 C 
HETATM    7  C7  UNL     1      21.415   1.521  48.370  1.00  0.00     0.031 C 
HETATM    8  C8  UNL     1      21.005   2.430  49.471  1.00  0.00    -0.020 C 
HETATM    9  C9  UNL     1      20.910   3.602  50.096  1.00  0.00     0.041 C 
HETATM   10  S1  UNL     1      20.157   4.086  51.677  1.00  0.00    -0.141 SA
HETATM   11  C10 UNL     1      21.450   3.706  52.968  1.00  0.00     0.094 C 
HETATM   12  C11 UNL     1      22.590   4.668  52.740  1.00  0.00     0.121 C 
HETATM   13  N3  UNL     1      23.799   4.343  53.471  1.00  0.00    -0.232 NA
HETATM   14  H15 UNL     1      24.466   5.116  53.252  1.00  0.00     0.147 HD
ENDROOT
BRANCH   1  15
HETATM   15  C2  UNL     1      25.032   1.945  53.047  1.00  0.00     0.066 C 
HETATM   16  C1  UNL     1      26.380   1.801  53.235  1.00  0.00     0.077 C 
HETATM   17  C15 UNL     1      27.321   0.733  52.893  1.00  0.00     0.093 C 
HETATM   18  C14 UNL     1      26.522  -0.347  52.193  1.00  0.00     0.019 C 
HETATM   19  C16 UNL     1      27.756  -0.096  54.114  1.00  0.00     0.190 C 
HETATM   20  C13 UNL     1      25.680  -0.211  53.251  1.00  0.00     0.049 C 
HETATM   21  C12 UNL     1      24.371   0.558  53.060  1.00  0.00     0.125 C 
HETATM   22  O2  UNL     1      26.535  -0.935  54.146  1.00  0.00    -0.354 OA
BRANCH  16  23
HETATM   23  O1  UNL     1      27.001   2.892  53.885  1.00  0.00    -0.362 OA
HETATM   24  H1  UNL     1      26.414   3.681  54.114  1.00  0.00     0.217 HD
ENDBRANCH  16  23
ENDBRANCH   1  15
TORSDOF 2
ENDMDL
MODEL 8
REMARK VINA RESULT:      -7.1      3.147      6.046
REMARK  2 active torsions:
REMARK  status: ('A' for Active; 'I' for Inactive)
REMARK    1  A    between atoms: O1_1  and  C1_2 
REMARK    2  A    between atoms: C2_3  and  N1_4 
ROOT
HETATM    1  N1  UNL     1      22.336   3.538  51.218  1.00  0.00    -0.272 N 
HETATM    2  C3  UNL     1      23.088   2.839  52.201  1.00  0.00     0.226 C 
HETATM    3  N2  UNL     1      23.783   1.736  52.369  1.00  0.00    -0.255 NA
HETATM    4  C4  UNL     1      24.392   1.477  53.648  1.00  0.00     0.114 C 
HETATM    5  C5  UNL     1      25.503   0.831  53.897  1.00  0.00    -0.007 C 
HETATM    6  C6  UNL     1      26.684   0.080  53.408  1.00  0.00     0.032 C 
HETATM    7  C7  UNL     1      26.619  -0.097  51.893  1.00  0.00     0.031 C 
HETATM    8  C8  UNL     1      26.617   1.221  51.206  1.00  0.00    -0.020 C 
HETATM    9  C9  UNL     1      26.706   2.547  51.140  1.00  0.00     0.041 C 
HETATM   10  S1  UNL     1      26.584   3.713  49.751  1.00  0.00    -0.141 SA
HETATM   11  C10 UNL     1      24.755   4.004  49.520  1.00  0.00     0.094 C 
HETATM   12  C11 UNL     1      24.276   4.757  50.737  1.00  0.00     0.121 C 
HETATM   13  N3  UNL     1      22.834   4.831  50.862  1.00  0.00    -0.232 NA
HETATM   14  H15 UNL     1      22.664   5.417  51.710  1.00  0.00     0.147 HD
ENDROOT
BRANCH   1  15
HETATM   15  C2  UNL     1      21.373   2.532  51.049  1.00  0.00     0.066 C 
HETATM   16  C1  UNL     1      20.240   2.428  51.810  1.00  0.00     0.077 C 
HETATM   17  C15 UNL     1      19.424   1.284  52.221  1.00  0.00     0.093 C 
HETATM   18  C14 UNL     1      20.077   0.047  51.639  1.00  0.00     0.019 C 
HETATM   19  C16 UNL     1      18.093   1.191  51.455  1.00  0.00     0.190 C 
HETATM   20  C13 UNL     1      20.080   0.766  50.485  1.00  0.00     0.049 C 
HETATM   21  C12 UNL     1      21.391   1.399  50.013  1.00  0.00     0.125 C 
HETATM   22  O2  UNL     1      18.681   0.567  50.245  1.00  0.00    -0.354 OA
BRANCH  16  23
HETATM   23  O1  UNL     1      19.750   3.658  52.303  1.00  0.00    -0.362 OA
HETATM   24  H1  UNL     1      18.837   3.948  51.983  1.00  0.00     0.217 HD
ENDBRANCH  16  23
ENDBRANCH   1  15
TORSDOF 2
ENDMDL
MODEL 9
REMARK VINA RESULT:      -7.1      1.919      4.053
REMARK  2 active torsions:
REMARK  status: ('A' for Active; 'I' for Inactive)
REMARK    1  A    between atoms: O1_1  and  C1_2 
REMARK    2  A    between atoms: C2_3  and  N1_4 
ROOT
HETATM    1  N1  UNL     1      23.453   1.786  51.411  1.00  0.00    -0.272 N 
HETATM    2  C3  UNL     1      23.494   3.192  51.618  1.00  0.00     0.226 C 
HETATM    3  N2  UNL     1      24.158   4.264  51.249  1.00  0.00    -0.255 NA
HETATM    4  C4  UNL     1      23.775   5.547  51.783  1.00  0.00     0.114 C 
HETATM    5  C5  UNL     1      23.860   6.719  51.207  1.00  0.00    -0.007 C 
HETATM    6  C6  UNL     1      24.235   7.544  50.033  1.00  0.00     0.032 C 
HETATM    7  C7  UNL     1      24.872   6.679  48.950  1.00  0.00     0.031 C 
HETATM    8  C8  UNL     1      23.922   5.640  48.474  1.00  0.00    -0.020 C 
HETATM    9  C9  UNL     1      22.742   5.028  48.398  1.00  0.00     0.041 C 
HETATM   10  S1  UNL     1      22.182   3.563  47.480  1.00  0.00    -0.141 SA
HETATM   11  C10 UNL     1      22.668   2.107  48.542  1.00  0.00     0.094 C 
HETATM   12  C11 UNL     1      21.814   2.169  49.784  1.00  0.00     0.121 C 
HETATM   13  N3  UNL     1      22.241   1.280  50.845  1.00  0.00    -0.232 NA
HETATM   14  H15 UNL     1      21.531   1.399  51.603  1.00  0.00     0.147 HD
ENDROOT
BRANCH   1  15
HETATM   15  C2  UNL     1      24.742   1.543  51.906  1.00  0.00     0.066 C 
HETATM   16  C1  UNL     1      24.995   0.985  53.131  1.00  0.00     0.077 C 
HETATM   17  C15 UNL     1      26.107   1.124  54.072  1.00  0.00     0.093 C 
HETATM   18  C14 UNL     1      27.082   2.107  53.458  1.00  0.00     0.019 C 
HETATM   19  C16 UNL     1      27.036  -0.102  54.087  1.00  0.00     0.190 C 
HETATM   20  C13 UNL     1      26.948   1.329  52.351  1.00  0.00     0.049 C 
HETATM   21  C12 UNL     1      26.075   1.829  51.198  1.00  0.00     0.125 C 
HETATM   22  O2  UNL     1      27.784   0.286  52.867  1.00  0.00    -0.354 OA
BRANCH  16  23
HETATM   23  O1  UNL     1      23.993   0.101  53.590  1.00  0.00    -0.362 OA
HETATM   24  H1  UNL     1      23.328  -0.231  52.907  1.00  0.00     0.217 HD
ENDBRANCH  16  23
ENDBRANCH   1  15
TORSDOF 2
ENDMDL
