MODEL 1
REMARK VINA RESULT:      -8.0      0.000      0.000
REMARK  7 active torsions:
REMARK  status: ('A' for Active; 'I' for Inactive)
REMARK    1  A    between atoms: C2_2  and  C3_3 
REMARK    2  A    between atoms: C7_8  and  C8_9 
REMARK    3  A    between atoms: C8_9  and  C9_10 
REMARK    4  A    between atoms: C11_12  and  O1_13 
REMARK    5  A    between atoms: C13_15  and  O2_16 
REMARK    6  A    between atoms: C15_18  and  O3_19 
REMARK    7  A    between atoms: C20_25  and  N2_26 
ROOT
HETATM    1  C3  UNL     1      25.112   6.403  50.457  1.00  0.00     0.050 C 
HETATM    2  C4  UNL     1      25.438   5.389  49.571  1.00  0.00     0.037 C 
HETATM    3 BR1  UNL     1      26.956   5.791  48.615  1.00  0.00    -0.049 Br
HETATM    4  C5  UNL     1      24.615   4.129  49.422  1.00  0.00     0.019 C 
HETATM    5  C6  UNL     1      23.600   3.542  50.113  1.00  0.00    -0.003 C 
HETATM    6  C7  UNL     1      23.148   3.246  51.474  1.00  0.00     0.063 C 
HETATM    7  C18 UNL     1      23.826   4.001  52.547  1.00  0.00     0.045 C 
HETATM    8  C19 UNL     1      23.380   5.112  51.898  1.00  0.00     0.127 C 
HETATM    9  N1  UNL     1      21.988   4.874  51.435  1.00  0.00    -0.217 NA
HETATM   10  C20 UNL     1      21.722   3.661  51.810  1.00  0.00     0.116 C 
HETATM   11  N3  UNL     1      24.003   6.382  51.472  1.00  0.00    -0.340 N 
HETATM   12  H22 UNL     1      23.611   7.206  51.894  1.00  0.00     0.167 HD
ENDROOT
BRANCH   6  13
HETATM   13  C8  UNL     1      23.314   1.746  51.608  1.00  0.00     0.064 C 
BRANCH  13  14
HETATM   14  C9  UNL     1      24.460   1.249  52.339  1.00  0.00    -0.051 A 
HETATM   15  C10 UNL     1      25.766   1.660  52.153  1.00  0.00     0.047 A 
HETATM   16  C11 UNL     1      26.885   1.224  52.828  1.00  0.00     0.104 A 
HETATM   17  C13 UNL     1      26.701   0.267  53.804  1.00  0.00     0.135 A 
HETATM   18  C15 UNL     1      25.435  -0.212  54.068  1.00  0.00     0.104 A 
HETATM   19  C17 UNL     1      24.384   0.279  53.348  1.00  0.00     0.047 A 
BRANCH  16  20
HETATM   20  O1  UNL     1      28.147   1.691  52.577  1.00  0.00    -0.353 OA
HETATM   21  C12 UNL     1      28.744   2.615  53.434  1.00  0.00     0.210 C 
ENDBRANCH  16  20
BRANCH  17  22
HETATM   22  O2  UNL     1      27.794  -0.203  54.509  1.00  0.00    -0.351 OA
HETATM   23  C14 UNL     1      28.816  -0.988  53.954  1.00  0.00     0.210 C 
ENDBRANCH  17  22
BRANCH  18  24
HETATM   24  O3  UNL     1      25.320  -1.159  55.047  1.00  0.00    -0.353 OA
HETATM   25  C16 UNL     1      24.196  -1.478  55.802  1.00  0.00     0.210 C 
ENDBRANCH  18  24
ENDBRANCH  13  14
ENDBRANCH   6  13
BRANCH  10  26
HETATM   26  N2  UNL     1      20.394   3.432  52.260  1.00  0.00    -0.386 N 
HETATM   27  H20 UNL     1      20.279   2.796  53.078  1.00  0.00     0.157 HD
HETATM   28  H21 UNL     1      19.606   3.889  51.776  1.00  0.00     0.157 HD
ENDBRANCH  10  26
BRANCH   1  29
HETATM   29  C2  UNL     1      25.818   7.611  50.473  1.00  0.00     0.021 C 
HETATM   30  C1  UNL     1      25.542   8.825  50.109  1.00  0.00     0.013 C 
ENDBRANCH   1  29
TORSDOF 7
ENDMDL
MODEL 2
REMARK VINA RESULT:      -7.8      3.896      5.600
REMARK  7 active torsions:
REMARK  status: ('A' for Active; 'I' for Inactive)
REMARK    1  A    between atoms: C2_2  and  C3_3 
REMARK    2  A    between atoms: C7_8  and  C8_9 
REMARK    3  A    between atoms: C8_9  and  C9_10 
REMARK    4  A    between atoms: C11_12  and  O1_13 
REMARK    5  A    between atoms: C13_15  and  O2_16 
REMARK    6  A    between atoms: C15_18  and  O3_19 
REMARK    7  A    between atoms: C20_25  and  N2_26 
ROOT
HETATM    1  C3  UNL     1      25.584   4.070  50.490  1.00  0.00     0.050 C 
HETATM    2  C4  UNL     1      24.264   4.189  50.894  1.00  0.00     0.037 C 
HETATM    3 BR1  UNL     1      23.308   5.276  49.760  1.00  0.00    -0.049 Br
HETATM    4  C5  UNL     1      23.715   3.510  52.128  1.00  0.00     0.019 C 
HETATM    5  C6  UNL     1      24.154   2.551  52.988  1.00  0.00    -0.003 C 
HETATM    6  C7  UNL     1      24.846   1.261  53.026  1.00  0.00     0.063 C 
HETATM    7  C18 UNL     1      25.569   0.892  51.791  1.00  0.00     0.045 C 
HETATM    8  C19 UNL     1      26.258   2.051  51.977  1.00  0.00     0.127 C 
HETATM    9  N1  UNL     1      26.565   2.203  53.424  1.00  0.00    -0.217 NA
HETATM   10  C20 UNL     1      26.027   1.163  53.983  1.00  0.00     0.116 C 
HETATM   11  N3  UNL     1      26.631   3.185  51.107  1.00  0.00    -0.340 N 
HETATM   12  H22 UNL     1      27.620   3.320  50.990  1.00  0.00     0.167 HD
ENDROOT
BRANCH   6  13
HETATM   13  C8  UNL     1      23.768   0.266  53.402  1.00  0.00     0.064 C 
BRANCH  13  14
HETATM   14  C9  UNL     1      22.514   0.312  52.680  1.00  0.00    -0.051 A 
HETATM   15  C10 UNL     1      22.376   0.612  51.338  1.00  0.00     0.047 A 
HETATM   16  C11 UNL     1      21.209   0.660  50.608  1.00  0.00     0.104 A 
HETATM   17  C13 UNL     1      20.035   0.380  51.273  1.00  0.00     0.135 A 
HETATM   18  C15 UNL     1      20.063   0.068  52.617  1.00  0.00     0.104 A 
HETATM   19  C17 UNL     1      21.267   0.044  53.261  1.00  0.00     0.047 A 
BRANCH  16  20
HETATM   20  O1  UNL     1      21.166   0.967  49.275  1.00  0.00    -0.353 OA
HETATM   21  C12 UNL     1      22.186   1.715  48.686  1.00  0.00     0.210 C 
ENDBRANCH  16  20
BRANCH  17  22
HETATM   22  O2  UNL     1      18.837   0.415  50.583  1.00  0.00    -0.351 OA
HETATM   23  C14 UNL     1      18.027   1.554  50.462  1.00  0.00     0.210 C 
ENDBRANCH  17  22
BRANCH  18  24
HETATM   24  O3  UNL     1      18.865  -0.200  53.219  1.00  0.00    -0.353 OA
HETATM   25  C16 UNL     1      18.210  -1.424  53.316  1.00  0.00     0.210 C 
ENDBRANCH  18  24
ENDBRANCH  13  14
ENDBRANCH   6  13
BRANCH  10  26
HETATM   26  N2  UNL     1      26.758   0.594  55.060  1.00  0.00    -0.386 N 
HETATM   27  H20 UNL     1      27.429  -0.166  54.821  1.00  0.00     0.157 HD
HETATM   28  H21 UNL     1      26.606   0.942  56.018  1.00  0.00     0.157 HD
ENDBRANCH  10  26
BRANCH   1  29
HETATM   29  C2  UNL     1      26.090   4.818  49.421  1.00  0.00     0.021 C 
HETATM   30  C1  UNL     1      27.199   4.802  48.751  1.00  0.00     0.013 C 
ENDBRANCH   1  29
TORSDOF 7
ENDMDL
MODEL 3
REMARK VINA RESULT:      -7.7      2.597      4.467
REMARK  7 active torsions:
REMARK  status: ('A' for Active; 'I' for Inactive)
REMARK    1  A    between atoms: C2_2  and  C3_3 
REMARK    2  A    between atoms: C7_8  and  C8_9 
REMARK    3  A    between atoms: C8_9  and  C9_10 
REMARK    4  A    between atoms: C11_12  and  O1_13 
REMARK    5  A    between atoms: C13_15  and  O2_16 
REMARK    6  A    between atoms: C15_18  and  O3_19 
REMARK    7  A    between atoms: C20_25  and  N2_26 
ROOT
HETATM    1  C3  UNL     1      20.985   3.024  49.246  1.00  0.00     0.050 C 
HETATM    2  C4  UNL     1      20.510   2.601  50.477  1.00  0.00     0.037 C 
HETATM    3 BR1  UNL     1      19.256   1.269  50.293  1.00  0.00    -0.049 Br
HETATM    4  C5  UNL     1      20.973   3.195  51.788  1.00  0.00     0.019 C 
HETATM    5  C6  UNL     1      21.979   4.024  52.179  1.00  0.00    -0.003 C 
HETATM    6  C7  UNL     1      23.402   4.296  51.966  1.00  0.00     0.063 C 
HETATM    7  C18 UNL     1      23.995   3.672  50.765  1.00  0.00     0.045 C 
HETATM    8  C19 UNL     1      23.049   4.365  50.072  1.00  0.00     0.127 C 
HETATM    9  N1  UNL     1      22.926   5.727  50.654  1.00  0.00    -0.217 NA
HETATM   10  C20 UNL     1      23.767   5.739  51.642  1.00  0.00     0.116 C 
HETATM   11  N3  UNL     1      22.086   4.019  49.007  1.00  0.00    -0.340 N 
HETATM   12  H22 UNL     1      22.219   4.513  48.141  1.00  0.00     0.167 HD
ENDROOT
BRANCH   6  13
HETATM   13  C8  UNL     1      24.067   3.853  53.253  1.00  0.00     0.064 C 
BRANCH  13  14
HETATM   14  C9  UNL     1      24.600   2.509  53.319  1.00  0.00    -0.051 A 
HETATM   15  C10 UNL     1      23.851   1.349  53.268  1.00  0.00     0.047 A 
HETATM   16  C11 UNL     1      24.313   0.052  53.318  1.00  0.00     0.104 A 
HETATM   17  C13 UNL     1      25.675  -0.130  53.432  1.00  0.00     0.135 A 
HETATM   18  C15 UNL     1      26.513   0.965  53.491  1.00  0.00     0.104 A 
HETATM   19  C17 UNL     1      25.966   2.214  53.434  1.00  0.00     0.047 A 
BRANCH  16  20
HETATM   20  O1  UNL     1      23.494  -1.043  53.260  1.00  0.00    -0.353 OA
HETATM   21  C12 UNL     1      22.464  -1.208  54.185  1.00  0.00     0.210 C 
ENDBRANCH  16  20
BRANCH  17  22
HETATM   22  O2  UNL     1      26.187  -1.414  53.486  1.00  0.00    -0.351 OA
HETATM   23  C14 UNL     1      26.774  -2.077  52.398  1.00  0.00     0.210 C 
ENDBRANCH  17  22
BRANCH  18  24
HETATM   24  O3  UNL     1      27.852   0.717  53.604  1.00  0.00    -0.353 OA
HETATM   25  C16 UNL     1      28.604   0.587  54.769  1.00  0.00     0.210 C 
ENDBRANCH  18  24
ENDBRANCH  13  14
ENDBRANCH   6  13
BRANCH  10  26
HETATM   26  N2  UNL     1      24.464   6.959  51.844  1.00  0.00    -0.386 N 
HETATM   27  H20 UNL     1      25.145   6.985  52.632  1.00  0.00     0.157 HD
HETATM   28  H21 UNL     1      24.280   7.760  51.221  1.00  0.00     0.157 HD
ENDBRANCH  10  26
BRANCH   1  29
HETATM   29  C2  UNL     1      20.436   2.548  48.050  1.00  0.00     0.021 C 
HETATM   30  C1  UNL     1      19.883   3.110  47.021  1.00  0.00     0.013 C 
ENDBRANCH   1  29
TORSDOF 7
ENDMDL
MODEL 4
REMARK VINA RESULT:      -7.7      3.890      6.050
REMARK  7 active torsions:
REMARK  status: ('A' for Active; 'I' for Inactive)
REMARK    1  A    between atoms: C2_2  and  C3_3 
REMARK    2  A    between atoms: C7_8  and  C8_9 
REMARK    3  A    between atoms: C8_9  and  C9_10 
REMARK    4  A    between atoms: C11_12  and  O1_13 
REMARK    5  A    between atoms: C13_15  and  O2_16 
REMARK    6  A    between atoms: C15_18  and  O3_19 
REMARK    7  A    between atoms: C20_25  and  N2_26 
ROOT
HETATM    1  C3  UNL     1      25.633   4.033  50.515  1.00  0.00     0.050 C 
HETATM    2  C4  UNL     1      24.304   4.155  50.888  1.00  0.00     0.037 C 
HETATM    3 BR1  UNL     1      23.369   5.217  49.713  1.00  0.00    -0.049 Br
HETATM    4  C5  UNL     1      23.731   3.498  52.123  1.00  0.00     0.019 C 
HETATM    5  C6  UNL     1      24.155   2.557  53.010  1.00  0.00    -0.003 C 
HETATM    6  C7  UNL     1      24.852   1.271  53.087  1.00  0.00     0.063 C 
HETATM    7  C18 UNL     1      25.602   0.881  51.875  1.00  0.00     0.045 C 
HETATM    8  C19 UNL     1      26.283   2.047  52.054  1.00  0.00     0.127 C 
HETATM    9  N1  UNL     1      26.557   2.227  53.504  1.00  0.00    -0.217 NA
HETATM   10  C20 UNL     1      26.011   1.196  54.071  1.00  0.00     0.116 C 
HETATM   11  N3  UNL     1      26.670   3.165  51.171  1.00  0.00    -0.340 N 
HETATM   12  H22 UNL     1      27.661   3.302  51.072  1.00  0.00     0.167 HD
ENDROOT
BRANCH   6  13
HETATM   13  C8  UNL     1      23.769   0.279  53.459  1.00  0.00     0.064 C 
BRANCH  13  14
HETATM   14  C9  UNL     1      22.537   0.295  52.699  1.00  0.00    -0.051 A 
HETATM   15  C10 UNL     1      21.271   0.136  53.227  1.00  0.00     0.047 A 
HETATM   16  C11 UNL     1      20.073   0.152  52.548  1.00  0.00     0.104 A 
HETATM   17  C13 UNL     1      20.122   0.349  51.184  1.00  0.00     0.135 A 
HETATM   18  C15 UNL     1      21.340   0.519  50.557  1.00  0.00     0.104 A 
HETATM   19  C17 UNL     1      22.477   0.487  51.312  1.00  0.00     0.047 A 
BRANCH  16  20
HETATM   20  O1  UNL     1      18.858  -0.014  53.156  1.00  0.00    -0.353 OA
HETATM   21  C12 UNL     1      18.270  -1.276  53.232  1.00  0.00     0.210 C 
ENDBRANCH  16  20
BRANCH  17  22
HETATM   22  O2  UNL     1      18.946   0.373  50.457  1.00  0.00    -0.351 OA
HETATM   23  C14 UNL     1      18.166   1.522  50.255  1.00  0.00     0.210 C 
ENDBRANCH  17  22
BRANCH  18  24
HETATM   24  O3  UNL     1      21.321   0.709  49.203  1.00  0.00    -0.353 OA
HETATM   25  C16 UNL     1      21.498   1.899  48.503  1.00  0.00     0.210 C 
ENDBRANCH  18  24
ENDBRANCH  13  14
ENDBRANCH   6  13
BRANCH  10  26
HETATM   26  N2  UNL     1      26.722   0.651  55.174  1.00  0.00    -0.386 N 
HETATM   27  H20 UNL     1      26.608  -0.371  55.346  1.00  0.00     0.157 HD
HETATM   28  H21 UNL     1      27.312   1.266  55.754  1.00  0.00     0.157 HD
ENDBRANCH  10  26
BRANCH   1  29
HETATM   29  C2  UNL     1      26.159   4.764  49.443  1.00  0.00     0.021 C 
HETATM   30  C1  UNL     1      27.250   4.690  48.747  1.00  0.00     0.013 C 
ENDBRANCH   1  29
TORSDOF 7
ENDMDL
MODEL 5
REMARK VINA RESULT:      -7.6      2.601      3.761
REMARK  7 active torsions:
REMARK  status: ('A' for Active; 'I' for Inactive)
REMARK    1  A    between atoms: C2_2  and  C3_3 
REMARK    2  A    between atoms: C7_8  and  C8_9 
REMARK    3  A    between atoms: C8_9  and  C9_10 
REMARK    4  A    between atoms: C11_12  and  O1_13 
REMARK    5  A    between atoms: C13_15  and  O2_16 
REMARK    6  A    between atoms: C15_18  and  O3_19 
REMARK    7  A    between atoms: C20_25  and  N2_26 
ROOT
HETATM    1  C3  UNL     1      21.761   3.855  47.980  1.00  0.00     0.050 C 
HETATM    2  C4  UNL     1      20.827   3.553  48.958  1.00  0.00     0.037 C 
HETATM    3 BR1  UNL     1      19.515   2.438  48.316  1.00  0.00    -0.049 Br
HETATM    4  C5  UNL     1      20.900   4.104  50.364  1.00  0.00     0.019 C 
HETATM    5  C6  UNL     1      21.830   4.770  51.102  1.00  0.00    -0.003 C 
HETATM    6  C7  UNL     1      23.263   4.799  51.402  1.00  0.00     0.063 C 
HETATM    7  C18 UNL     1      24.124   4.050  50.463  1.00  0.00     0.045 C 
HETATM    8  C19 UNL     1      23.602   4.866  49.505  1.00  0.00     0.127 C 
HETATM    9  N1  UNL     1      23.510   6.247  50.045  1.00  0.00    -0.217 NA
HETATM   10  C20 UNL     1      23.948   6.152  51.263  1.00  0.00     0.116 C 
HETATM   11  N3  UNL     1      23.024   4.648  48.163  1.00  0.00    -0.340 N 
HETATM   12  H22 UNL     1      23.527   5.088  47.411  1.00  0.00     0.167 HD
ENDROOT
BRANCH   6  13
HETATM   13  C8  UNL     1      23.360   4.294  52.826  1.00  0.00     0.064 C 
BRANCH  13  14
HETATM   14  C9  UNL     1      23.999   3.016  53.056  1.00  0.00    -0.051 A 
HETATM   15  C10 UNL     1      25.302   2.840  53.481  1.00  0.00     0.047 A 
HETATM   16  C11 UNL     1      25.950   1.648  53.720  1.00  0.00     0.104 A 
HETATM   17  C13 UNL     1      25.233   0.487  53.519  1.00  0.00     0.135 A 
HETATM   18  C15 UNL     1      23.922   0.553  53.095  1.00  0.00     0.104 A 
HETATM   19  C17 UNL     1      23.361   1.780  52.882  1.00  0.00     0.047 A 
BRANCH  16  20
HETATM   20  O1  UNL     1      27.249   1.568  54.142  1.00  0.00    -0.353 OA
HETATM   21  C12 UNL     1      28.253   2.283  53.489  1.00  0.00     0.210 C 
ENDBRANCH  16  20
BRANCH  17  22
HETATM   22  O2  UNL     1      25.841  -0.734  53.746  1.00  0.00    -0.351 OA
HETATM   23  C14 UNL     1      26.622  -1.417  52.802  1.00  0.00     0.210 C 
ENDBRANCH  17  22
BRANCH  18  24
HETATM   24  O3  UNL     1      23.267  -0.633  52.914  1.00  0.00    -0.353 OA
HETATM   25  C16 UNL     1      22.255  -1.180  53.697  1.00  0.00     0.210 C 
ENDBRANCH  18  24
ENDBRANCH  13  14
ENDBRANCH   6  13
BRANCH  10  26
HETATM   26  N2  UNL     1      24.722   7.249  51.728  1.00  0.00    -0.386 N 
HETATM   27  H20 UNL     1      25.186   7.836  51.003  1.00  0.00     0.157 HD
HETATM   28  H21 UNL     1      24.799   7.425  52.741  1.00  0.00     0.157 HD
ENDBRANCH  10  26
BRANCH   1  29
HETATM   29  C2  UNL     1      21.589   3.437  46.655  1.00  0.00     0.021 C 
HETATM   30  C1  UNL     1      21.789   3.990  45.499  1.00  0.00     0.013 C 
ENDBRANCH   1  29
TORSDOF 7
ENDMDL
MODEL 6
REMARK VINA RESULT:      -7.6      1.689      2.926
REMARK  7 active torsions:
REMARK  status: ('A' for Active; 'I' for Inactive)
REMARK    1  A    between atoms: C2_2  and  C3_3 
REMARK    2  A    between atoms: C7_8  and  C8_9 
REMARK    3  A    between atoms: C8_9  and  C9_10 
REMARK    4  A    between atoms: C11_12  and  O1_13 
REMARK    5  A    between atoms: C13_15  and  O2_16 
REMARK    6  A    between atoms: C15_18  and  O3_19 
REMARK    7  A    between atoms: C20_25  and  N2_26 
ROOT
HETATM    1  C3  UNL     1      24.855   6.368  48.545  1.00  0.00     0.050 C 
HETATM    2  C4  UNL     1      25.891   5.615  49.073  1.00  0.00     0.037 C 
HETATM    3 BR1  UNL     1      27.525   6.194  48.462  1.00  0.00    -0.049 Br
HETATM    4  C5  UNL     1      25.668   4.457  50.020  1.00  0.00     0.019 C 
HETATM    5  C6  UNL     1      24.616   3.972  50.733  1.00  0.00    -0.003 C 
HETATM    6  C7  UNL     1      23.486   4.398  51.562  1.00  0.00     0.063 C 
HETATM    7  C18 UNL     1      23.131   5.829  51.465  1.00  0.00     0.045 C 
HETATM    8  C19 UNL     1      22.959   5.584  50.136  1.00  0.00     0.127 C 
HETATM    9  N1  UNL     1      22.281   4.272  49.971  1.00  0.00    -0.217 NA
HETATM   10  C20 UNL     1      22.125   3.830  51.181  1.00  0.00     0.116 C 
HETATM   11  N3  UNL     1      23.397   6.255  48.896  1.00  0.00    -0.340 N 
HETATM   12  H22 UNL     1      22.651   6.596  48.314  1.00  0.00     0.167 HD
ENDROOT
BRANCH   6  13
HETATM   13  C8  UNL     1      23.868   3.976  52.965  1.00  0.00     0.064 C 
BRANCH  13  14
HETATM   14  C9  UNL     1      24.459   2.667  53.148  1.00  0.00    -0.051 A 
HETATM   15  C10 UNL     1      23.781   1.466  53.065  1.00  0.00     0.047 A 
HETATM   16  C11 UNL     1      24.300   0.200  53.222  1.00  0.00     0.104 A 
HETATM   17  C13 UNL     1      25.648   0.098  53.493  1.00  0.00     0.135 A 
HETATM   18  C15 UNL     1      26.417   1.239  53.596  1.00  0.00     0.104 A 
HETATM   19  C17 UNL     1      25.816   2.453  53.426  1.00  0.00     0.047 A 
BRANCH  16  20
HETATM   20  O1  UNL     1      23.550  -0.940  53.122  1.00  0.00    -0.353 OA
HETATM   21  C12 UNL     1      22.157  -0.879  53.164  1.00  0.00     0.210 C 
ENDBRANCH  16  20
BRANCH  17  22
HETATM   22  O2  UNL     1      26.216  -1.152  53.659  1.00  0.00    -0.351 OA
HETATM   23  C14 UNL     1      26.852  -1.873  52.638  1.00  0.00     0.210 C 
ENDBRANCH  17  22
BRANCH  18  24
HETATM   24  O3  UNL     1      27.746   1.071  53.867  1.00  0.00    -0.353 OA
HETATM   25  C16 UNL     1      28.774   1.999  53.723  1.00  0.00     0.210 C 
ENDBRANCH  18  24
ENDBRANCH  13  14
ENDBRANCH   6  13
BRANCH  10  26
HETATM   26  N2  UNL     1      20.913   3.133  51.432  1.00  0.00    -0.386 N 
HETATM   27  H20 UNL     1      20.594   2.468  50.696  1.00  0.00     0.157 HD
HETATM   28  H21 UNL     1      20.401   3.303  52.311  1.00  0.00     0.157 HD
ENDBRANCH  10  26
BRANCH   1  29
HETATM   29  C2  UNL     1      25.087   7.344  47.569  1.00  0.00     0.021 C 
HETATM   30  C1  UNL     1      24.421   7.775  46.544  1.00  0.00     0.013 C 
ENDBRANCH   1  29
TORSDOF 7
ENDMDL
MODEL 7
REMARK VINA RESULT:      -7.6      1.338      2.886
REMARK  7 active torsions:
REMARK  status: ('A' for Active; 'I' for Inactive)
REMARK    1  A    between atoms: C2_2  and  C3_3 
REMARK    2  A    between atoms: C7_8  and  C8_9 
REMARK    3  A    between atoms: C8_9  and  C9_10 
REMARK    4  A    between atoms: C11_12  and  O1_13 
REMARK    5  A    between atoms: C13_15  and  O2_16 
REMARK    6  A    between atoms: C15_18  and  O3_19 
REMARK    7  A    between atoms: C20_25  and  N2_26 
ROOT
HETATM    1  C3  UNL     1      24.367   6.305  50.428  1.00  0.00     0.050 C 
HETATM    2  C4  UNL     1      24.703   5.275  49.564  1.00  0.00     0.037 C 
HETATM    3 BR1  UNL     1      26.394   5.496  48.878  1.00  0.00    -0.049 Br
HETATM    4  C5  UNL     1      23.764   4.137  49.235  1.00  0.00     0.019 C 
HETATM    5  C6  UNL     1      22.586   3.672  49.731  1.00  0.00    -0.003 C 
HETATM    6  C7  UNL     1      21.884   3.410  50.990  1.00  0.00     0.063 C 
HETATM    7  C18 UNL     1      22.469   4.049  52.188  1.00  0.00     0.045 C 
HETATM    8  C19 UNL     1      22.277   5.222  51.522  1.00  0.00     0.127 C 
HETATM    9  N1  UNL     1      20.959   5.176  50.835  1.00  0.00    -0.217 NA
HETATM   10  C20 UNL     1      20.486   4.000  51.113  1.00  0.00     0.116 C 
HETATM   11  N3  UNL     1      23.114   6.408  51.253  1.00  0.00    -0.340 N 
HETATM   12  H22 UNL     1      22.765   7.267  51.640  1.00  0.00     0.167 HD
ENDROOT
BRANCH   6  13
HETATM   13  C8  UNL     1      21.838   1.899  51.087  1.00  0.00     0.064 C 
BRANCH  13  14
HETATM   14  C9  UNL     1      22.848   1.235  51.883  1.00  0.00    -0.051 A 
HETATM   15  C10 UNL     1      22.598   0.378  52.938  1.00  0.00     0.047 A 
HETATM   16  C11 UNL     1      23.523  -0.282  53.717  1.00  0.00     0.104 A 
HETATM   17  C13 UNL     1      24.855  -0.078  53.426  1.00  0.00     0.135 A 
HETATM   18  C15 UNL     1      25.212   0.760  52.390  1.00  0.00     0.104 A 
HETATM   19  C17 UNL     1      24.227   1.373  51.671  1.00  0.00     0.047 A 
BRANCH  16  20
HETATM   20  O1  UNL     1      23.183  -1.117  54.746  1.00  0.00    -0.353 OA
HETATM   21  C12 UNL     1      21.906  -1.673  54.817  1.00  0.00     0.210 C 
ENDBRANCH  16  20
BRANCH  17  22
HETATM   22  O2  UNL     1      25.822  -0.719  54.180  1.00  0.00    -0.351 OA
HETATM   23  C14 UNL     1      26.474  -0.145  55.282  1.00  0.00     0.210 C 
ENDBRANCH  17  22
BRANCH  18  24
HETATM   24  O3  UNL     1      26.550   0.921  52.153  1.00  0.00    -0.353 OA
HETATM   25  C16 UNL     1      27.327   2.056  52.366  1.00  0.00     0.210 C 
ENDBRANCH  18  24
ENDBRANCH  13  14
ENDBRANCH   6  13
BRANCH  10  26
HETATM   26  N2  UNL     1      19.085   3.937  51.337  1.00  0.00    -0.386 N 
HETATM   27  H20 UNL     1      18.771   3.872  52.328  1.00  0.00     0.157 HD
HETATM   28  H21 UNL     1      18.439   3.957  50.533  1.00  0.00     0.157 HD
ENDBRANCH  10  26
BRANCH   1  29
HETATM   29  C2  UNL     1      25.206   7.411  50.605  1.00  0.00     0.021 C 
HETATM   30  C1  UNL     1      25.189   8.637  50.183  1.00  0.00     0.013 C 
ENDBRANCH   1  29
TORSDOF 7
ENDMDL
MODEL 8
REMARK VINA RESULT:      -7.5      3.564      7.120
REMARK  7 active torsions:
REMARK  status: ('A' for Active; 'I' for Inactive)
REMARK    1  A    between atoms: C2_2  and  C3_3 
REMARK    2  A    between atoms: C7_8  and  C8_9 
REMARK    3  A    between atoms: C8_9  and  C9_10 
REMARK    4  A    between atoms: C11_12  and  O1_13 
REMARK    5  A    between atoms: C13_15  and  O2_16 
REMARK    6  A    between atoms: C15_18  and  O3_19 
REMARK    7  A    between atoms: C20_25  and  N2_26 
ROOT
HETATM    1  C3  UNL     1      24.701   0.675  52.948  1.00  0.00     0.050 C 
HETATM    2  C4  UNL     1      25.907   0.656  52.266  1.00  0.00     0.037 C 
HETATM    3 BR1  UNL     1      26.778  -0.948  52.485  1.00  0.00    -0.049 Br
HETATM    4  C5  UNL     1      26.420   1.831  51.466  1.00  0.00     0.019 C 
HETATM    5  C6  UNL     1      25.899   3.007  51.021  1.00  0.00    -0.003 C 
HETATM    6  C7  UNL     1      24.694   3.584  50.420  1.00  0.00     0.063 C 
HETATM    7  C18 UNL     1      23.482   2.743  50.494  1.00  0.00     0.045 C 
HETATM    8  C19 UNL     1      23.668   2.784  51.842  1.00  0.00     0.127 C 
HETATM    9  N1  UNL     1      24.074   4.160  52.232  1.00  0.00    -0.217 NA
HETATM   10  C20 UNL     1      24.125   4.815  51.113  1.00  0.00     0.116 C 
HETATM   11  N3  UNL     1      23.673   1.771  52.917  1.00  0.00    -0.340 N 
HETATM   12  H22 UNL     1      22.962   1.895  53.617  1.00  0.00     0.167 HD
ENDROOT
BRANCH   6  13
HETATM   13  C8  UNL     1      25.103   3.911  48.998  1.00  0.00     0.064 C 
BRANCH  13  14
HETATM   14  C9  UNL     1      26.096   4.945  48.794  1.00  0.00    -0.051 A 
HETATM   15  C10 UNL     1      27.464   4.761  48.852  1.00  0.00     0.047 A 
HETATM   16  C11 UNL     1      28.444   5.709  48.657  1.00  0.00     0.104 A 
HETATM   17  C13 UNL     1      28.034   6.993  48.370  1.00  0.00     0.135 A 
HETATM   18  C15 UNL     1      26.687   7.283  48.288  1.00  0.00     0.104 A 
HETATM   19  C17 UNL     1      25.785   6.279  48.497  1.00  0.00     0.047 A 
BRANCH  16  20
HETATM   20  O1  UNL     1      29.783   5.436  48.734  1.00  0.00    -0.353 OA
HETATM   21  C12 UNL     1      30.494   5.045  47.599  1.00  0.00     0.210 C 
ENDBRANCH  16  20
BRANCH  17  22
HETATM   22  O2  UNL     1      28.981   7.980  48.165  1.00  0.00    -0.351 OA
HETATM   23  C14 UNL     1      29.457   8.839  49.168  1.00  0.00     0.210 C 
ENDBRANCH  17  22
BRANCH  18  24
HETATM   24  O3  UNL     1      26.346   8.575  48.000  1.00  0.00    -0.353 OA
HETATM   25  C16 UNL     1      25.752   9.512  48.841  1.00  0.00     0.210 C 
ENDBRANCH  18  24
ENDBRANCH  13  14
ENDBRANCH   6  13
BRANCH  10  26
HETATM   26  N2  UNL     1      23.680   6.163  51.167  1.00  0.00    -0.386 N 
HETATM   27  H20 UNL     1      22.767   6.337  51.637  1.00  0.00     0.157 HD
HETATM   28  H21 UNL     1      24.260   6.907  50.751  1.00  0.00     0.157 HD
ENDBRANCH  10  26
BRANCH   1  29
HETATM   29  C2  UNL     1      24.321  -0.379  53.787  1.00  0.00     0.021 C 
HETATM   30  C1  UNL     1      23.183  -0.838  54.204  1.00  0.00     0.013 C 
ENDBRANCH   1  29
TORSDOF 7
ENDMDL
MODEL 9
REMARK VINA RESULT:      -7.5      3.462      7.083
REMARK  7 active torsions:
REMARK  status: ('A' for Active; 'I' for Inactive)
REMARK    1  A    between atoms: C2_2  and  C3_3 
REMARK    2  A    between atoms: C7_8  and  C8_9 
REMARK    3  A    between atoms: C8_9  and  C9_10 
REMARK    4  A    between atoms: C11_12  and  O1_13 
REMARK    5  A    between atoms: C13_15  and  O2_16 
REMARK    6  A    between atoms: C15_18  and  O3_19 
REMARK    7  A    between atoms: C20_25  and  N2_26 
ROOT
HETATM    1  C3  UNL     1      25.008   0.190  53.346  1.00  0.00     0.050 C 
HETATM    2  C4  UNL     1      26.149   0.250  52.563  1.00  0.00     0.037 C 
HETATM    3 BR1  UNL     1      27.156  -1.280  52.722  1.00  0.00    -0.049 Br
HETATM    4  C5  UNL     1      26.501   1.447  51.709  1.00  0.00     0.019 C 
HETATM    5  C6  UNL     1      25.856   2.572  51.298  1.00  0.00    -0.003 C 
HETATM    6  C7  UNL     1      24.564   3.047  50.797  1.00  0.00     0.063 C 
HETATM    7  C18 UNL     1      23.430   2.119  50.984  1.00  0.00     0.045 C 
HETATM    8  C19 UNL     1      23.727   2.197  52.311  1.00  0.00     0.127 C 
HETATM    9  N1  UNL     1      24.059   3.606  52.649  1.00  0.00    -0.217 NA
HETATM   10  C20 UNL     1      23.964   4.243  51.523  1.00  0.00     0.116 C 
HETATM   11  N3  UNL     1      23.901   1.206  53.392  1.00  0.00    -0.340 N 
HETATM   12  H22 UNL     1      23.245   1.288  54.150  1.00  0.00     0.167 HD
ENDROOT
BRANCH   6  13
HETATM   13  C8  UNL     1      24.824   3.380  49.342  1.00  0.00     0.064 C 
BRANCH  13  14
HETATM   14  C9  UNL     1      25.715   4.481  49.042  1.00  0.00    -0.051 A 
HETATM   15  C10 UNL     1      25.318   5.768  48.734  1.00  0.00     0.047 A 
HETATM   16  C11 UNL     1      26.125   6.847  48.450  1.00  0.00     0.104 A 
HETATM   17  C13 UNL     1      27.488   6.639  48.470  1.00  0.00     0.135 A 
HETATM   18  C15 UNL     1      27.989   5.388  48.766  1.00  0.00     0.104 A 
HETATM   19  C17 UNL     1      27.113   4.376  49.035  1.00  0.00     0.047 A 
BRANCH  16  20
HETATM   20  O1  UNL     1      25.643   8.093  48.156  1.00  0.00    -0.353 OA
HETATM   21  C12 UNL     1      24.971   8.841  49.124  1.00  0.00     0.210 C 
ENDBRANCH  16  20
BRANCH  17  22
HETATM   22  O2  UNL     1      28.341   7.692  48.192  1.00  0.00    -0.351 OA
HETATM   23  C14 UNL     1      28.768   8.635  49.140  1.00  0.00     0.210 C 
ENDBRANCH  17  22
BRANCH  18  24
HETATM   24  O3  UNL     1      29.349   5.248  48.769  1.00  0.00    -0.353 OA
HETATM   25  C16 UNL     1      30.215   5.274  47.680  1.00  0.00     0.210 C 
ENDBRANCH  18  24
ENDBRANCH  13  14
ENDBRANCH   6  13
BRANCH  10  26
HETATM   26  N2  UNL     1      23.424   5.555  51.601  1.00  0.00    -0.386 N 
HETATM   27  H20 UNL     1      23.046   5.852  52.525  1.00  0.00     0.157 HD
HETATM   28  H21 UNL     1      23.424   6.156  50.763  1.00  0.00     0.157 HD
ENDBRANCH  10  26
BRANCH   1  29
HETATM   29  C2  UNL     1      24.783  -0.874  54.226  1.00  0.00     0.021 C 
HETATM   30  C1  UNL     1      23.962  -1.078  55.209  1.00  0.00     0.013 C 
ENDBRANCH   1  29
TORSDOF 7
ENDMDL
