MODEL 1
REMARK VINA RESULT:      -9.3      0.000      0.000
REMARK  5 active torsions:
REMARK  status: ('A' for Active; 'I' for Inactive)
REMARK    1  A    between atoms: C2_2  and  C3_3 
REMARK       I    between atoms: C3_3  and  N1_5 
REMARK    2  A    between atoms: N1_5  and  C4_6 
REMARK    3  A    between atoms: C9_13  and  N4_14 
REMARK    4  A    between atoms: N4_14  and  C10_15 
REMARK    5  A    between atoms: C22_29  and  O3_30 
ROOT
HETATM    1  C4  UNL     1      32.386   5.416  48.445  1.00  0.00     0.065 C 
HETATM    2  C5  UNL     1      31.120   5.779  48.581  1.00  0.00     0.020 C 
HETATM    3  C6  UNL     1      31.003   7.237  48.578  1.00  0.00     0.107 A 
HETATM    4  C7  UNL     1      31.984   7.948  47.775  1.00  0.00     0.050 A 
HETATM    5  N2  UNL     1      31.806   8.976  46.977  1.00  0.00    -0.246 NA
HETATM    6  C8  UNL     1      30.467   9.430  46.881  1.00  0.00     0.229 A 
HETATM    7  N3  UNL     1      29.551   8.839  47.517  1.00  0.00    -0.256 NA
HETATM    8  C9  UNL     1      29.612   7.706  48.373  1.00  0.00     0.220 A 
HETATM    9  C21 UNL     1      33.386   7.473  47.701  1.00  0.00     0.067 C 
HETATM   10  C22 UNL     1      33.590   6.174  48.032  1.00  0.00     0.096 C 
ENDROOT
BRANCH   8  11
HETATM   11  N4  UNL     1      28.850   6.587  47.757  1.00  0.00    -0.366 N 
HETATM   12  H11 UNL     1      28.991   6.029  46.906  1.00  0.00     0.161 HD
BRANCH  11  13
HETATM   13  C10 UNL     1      27.669   6.147  48.422  1.00  0.00     0.030 A 
HETATM   14  C11 UNL     1      26.582   6.935  48.797  1.00  0.00     0.032 A 
HETATM   15  C12 UNL     1      25.454   6.504  49.427  1.00  0.00     0.040 A 
HETATM   16  C13 UNL     1      25.355   5.164  49.736  1.00  0.00     0.081 A 
HETATM   17  C14 UNL     1      26.377   4.297  49.407  1.00  0.00    -0.019 A 
HETATM   18  O2  UNL     1      24.123   5.002  50.365  1.00  0.00    -0.319 OA
HETATM   19  C15 UNL     1      27.495   4.805  48.766  1.00  0.00     0.039 A 
HETATM   20  C16 UNL     1      26.580   2.853  49.588  1.00  0.00     0.068 C 
HETATM   21  C17 UNL     1      26.501   2.452  50.995  1.00  0.00    -0.019 C 
HETATM   22  C18 UNL     1      25.616   2.535  51.974  1.00  0.00     0.040 C 
HETATM   23  C19 UNL     1      24.272   3.098  52.054  1.00  0.00     0.138 C 
HETATM   24  F1  UNL     1      23.463   2.505  52.963  1.00  0.00    -0.204 F 
HETATM   25  C20 UNL     1      23.708   4.109  51.373  1.00  0.00     0.184 C 
ENDBRANCH  11  13
ENDBRANCH   8  11
BRANCH   1  26
HETATM   26  N1  UNL     1      32.787   4.017  48.439  1.00  0.00    -0.325 N 
HETATM   27  C3  UNL     1      32.626   3.196  47.290  1.00  0.00     0.221 C 
HETATM   28  O1  UNL     1      32.135   3.603  46.215  1.00  0.00    -0.273 OA
HETATM   29  H6  UNL     1      33.202   3.658  49.336  1.00  0.00     0.169 HD
BRANCH  27  30
HETATM   30  C2  UNL     1      33.089   1.783  47.451  1.00  0.00     0.098 C 
HETATM   31  C1  UNL     1      32.125   0.837  46.769  1.00  0.00     0.014 C 
ENDBRANCH  27  30
ENDBRANCH   1  26
BRANCH  10  32
HETATM   32  O3  UNL     1      34.890   5.700  47.949  1.00  0.00    -0.354 OA
HETATM   33  C23 UNL     1      35.750   5.940  49.048  1.00  0.00     0.210 C 
ENDBRANCH  10  32
TORSDOF 5
ENDMDL
MODEL 2
REMARK VINA RESULT:      -9.2      4.793      9.045
REMARK  5 active torsions:
REMARK  status: ('A' for Active; 'I' for Inactive)
REMARK    1  A    between atoms: C2_2  and  C3_3 
REMARK       I    between atoms: C3_3  and  N1_5 
REMARK    2  A    between atoms: N1_5  and  C4_6 
REMARK    3  A    between atoms: C9_13  and  N4_14 
REMARK    4  A    between atoms: N4_14  and  C10_15 
REMARK    5  A    between atoms: C22_29  and  O3_30 
ROOT
HETATM    1  C4  UNL     1      24.943   1.113  52.794  1.00  0.00     0.065 C 
HETATM    2  C5  UNL     1      25.013   2.061  51.874  1.00  0.00     0.020 C 
HETATM    3  C6  UNL     1      23.822   2.038  51.024  1.00  0.00     0.107 A 
HETATM    4  C7  UNL     1      22.594   1.603  51.669  1.00  0.00     0.050 A 
HETATM    5  N2  UNL     1      21.385   2.102  51.559  1.00  0.00    -0.246 NA
HETATM    6  C8  UNL     1      21.281   3.231  50.709  1.00  0.00     0.229 A 
HETATM    7  N3  UNL     1      22.311   3.694  50.143  1.00  0.00    -0.256 NA
HETATM    8  C9  UNL     1      23.665   3.269  50.213  1.00  0.00     0.220 A 
HETATM    9  C21 UNL     1      22.616   0.516  52.677  1.00  0.00     0.067 C 
HETATM   10  C22 UNL     1      23.815   0.274  53.262  1.00  0.00     0.096 C 
ENDROOT
BRANCH   8  11
HETATM   11  N4  UNL     1      24.479   4.334  50.857  1.00  0.00    -0.366 N 
HETATM   12  H11 UNL     1      24.460   4.761  51.791  1.00  0.00     0.161 HD
BRANCH  11  13
HETATM   13  C10 UNL     1      25.511   4.937  50.081  1.00  0.00     0.030 A 
HETATM   14  C11 UNL     1      26.519   4.277  49.380  1.00  0.00     0.032 A 
HETATM   15  C12 UNL     1      27.499   4.863  48.637  1.00  0.00     0.040 A 
HETATM   16  C13 UNL     1      27.517   6.239  48.554  1.00  0.00     0.081 A 
HETATM   17  C14 UNL     1      26.561   6.987  49.212  1.00  0.00    -0.019 A 
HETATM   18  O2  UNL     1      28.603   6.564  47.747  1.00  0.00    -0.319 OA
HETATM   19  C15 UNL     1      25.594   6.325  49.950  1.00  0.00     0.039 A 
HETATM   20  C16 UNL     1      26.304   8.429  49.325  1.00  0.00     0.068 C 
HETATM   21  C17 UNL     1      27.453   9.159  49.868  1.00  0.00    -0.019 C 
HETATM   22  C18 UNL     1      28.726   9.326  49.553  1.00  0.00     0.040 C 
HETATM   23  C19 UNL     1      29.556   8.817  48.467  1.00  0.00     0.138 C 
HETATM   24  F1  UNL     1      30.587   9.623  48.116  1.00  0.00    -0.204 F 
HETATM   25  C20 UNL     1      29.465   7.679  47.758  1.00  0.00     0.184 C 
ENDBRANCH  11  13
ENDBRANCH   8  11
BRANCH   1  26
HETATM   26  N1  UNL     1      26.011   0.899  53.759  1.00  0.00    -0.325 N 
HETATM   27  C3  UNL     1      27.101   0.026  53.489  1.00  0.00     0.221 C 
HETATM   28  O1  UNL     1      27.224  -0.614  52.423  1.00  0.00    -0.273 OA
HETATM   29  H6  UNL     1      25.923   1.430  54.662  1.00  0.00     0.169 HD
BRANCH  27  30
HETATM   30  C2  UNL     1      28.112  -0.082  54.585  1.00  0.00     0.098 C 
HETATM   31  C1  UNL     1      29.464  -0.447  54.015  1.00  0.00     0.014 C 
ENDBRANCH  27  30
ENDBRANCH   1  26
BRANCH  10  32
HETATM   32  O3  UNL     1      23.856  -0.723  54.224  1.00  0.00    -0.354 OA
HETATM   33  C23 UNL     1      22.630  -1.131  54.804  1.00  0.00     0.210 C 
ENDBRANCH  10  32
TORSDOF 5
ENDMDL
MODEL 3
REMARK VINA RESULT:      -8.9      6.378      9.959
REMARK  5 active torsions:
REMARK  status: ('A' for Active; 'I' for Inactive)
REMARK    1  A    between atoms: C2_2  and  C3_3 
REMARK       I    between atoms: C3_3  and  N1_5 
REMARK    2  A    between atoms: N1_5  and  C4_6 
REMARK    3  A    between atoms: C9_13  and  N4_14 
REMARK    4  A    between atoms: N4_14  and  C10_15 
REMARK    5  A    between atoms: C22_29  and  O3_30 
ROOT
HETATM    1  C4  UNL     1      25.686   1.922  52.203  1.00  0.00     0.065 C 
HETATM    2  C5  UNL     1      24.545   1.257  52.297  1.00  0.00     0.020 C 
HETATM    3  C6  UNL     1      24.748  -0.010  52.999  1.00  0.00     0.107 A 
HETATM    4  C7  UNL     1      25.789  -0.010  54.014  1.00  0.00     0.050 A 
HETATM    5  N2  UNL     1      25.771  -0.550  55.211  1.00  0.00    -0.246 NA
HETATM    6  C8  UNL     1      24.560  -1.201  55.554  1.00  0.00     0.229 A 
HETATM    7  N3  UNL     1      23.594  -1.209  54.741  1.00  0.00    -0.256 NA
HETATM    8  C9  UNL     1      23.480  -0.634  53.447  1.00  0.00     0.220 A 
HETATM    9  C21 UNL     1      27.043   0.752  53.809  1.00  0.00     0.067 C 
HETATM   10  C22 UNL     1      26.987   1.749  52.891  1.00  0.00     0.096 C 
ENDROOT
BRANCH   8  11
HETATM   11  N4  UNL     1      22.444   0.433  53.476  1.00  0.00    -0.366 N 
HETATM   12  H11 UNL     1      22.491   1.450  53.614  1.00  0.00     0.161 HD
BRANCH  11  13
HETATM   13  C10 UNL     1      21.087   0.042  53.288  1.00  0.00     0.030 A 
HETATM   14  C11 UNL     1      20.432  -1.019  53.910  1.00  0.00     0.032 A 
HETATM   15  C12 UNL     1      19.132  -1.382  53.727  1.00  0.00     0.040 A 
HETATM   16  C13 UNL     1      18.370  -0.644  52.846  1.00  0.00     0.081 A 
HETATM   17  C14 UNL     1      18.923   0.429  52.178  1.00  0.00    -0.019 A 
HETATM   18  O2  UNL     1      17.103  -1.223  52.851  1.00  0.00    -0.319 OA
HETATM   19  C15 UNL     1      20.252   0.741  52.413  1.00  0.00     0.039 A 
HETATM   20  C16 UNL     1      18.400   1.394  51.202  1.00  0.00     0.068 C 
HETATM   21  C17 UNL     1      17.867   0.741  50.003  1.00  0.00    -0.019 C 
HETATM   22  C18 UNL     1      16.944  -0.164  49.728  1.00  0.00     0.040 C 
HETATM   23  C19 UNL     1      16.023  -0.929  50.561  1.00  0.00     0.138 C 
HETATM   24  F1  UNL     1      14.868  -1.285  49.949  1.00  0.00    -0.204 F 
HETATM   25  C20 UNL     1      16.134  -1.338  51.835  1.00  0.00     0.184 C 
ENDBRANCH  11  13
ENDBRANCH   8  11
BRANCH   1  26
HETATM   26  N1  UNL     1      25.772   3.207  51.527  1.00  0.00    -0.325 N 
HETATM   27  C3  UNL     1      26.345   3.336  50.232  1.00  0.00     0.221 C 
HETATM   28  O1  UNL     1      26.812   2.374  49.586  1.00  0.00    -0.273 OA
HETATM   29  H6  UNL     1      25.384   4.028  52.058  1.00  0.00     0.169 HD
BRANCH  27  30
HETATM   30  C2  UNL     1      26.357   4.726  49.681  1.00  0.00     0.098 C 
HETATM   31  C1  UNL     1      27.466   4.874  48.664  1.00  0.00     0.014 C 
ENDBRANCH  27  30
ENDBRANCH   1  26
BRANCH  10  32
HETATM   32  O3  UNL     1      28.141   2.491  52.697  1.00  0.00    -0.354 OA
HETATM   33  C23 UNL     1      29.104   2.498  53.735  1.00  0.00     0.210 C 
ENDBRANCH  10  32
TORSDOF 5
ENDMDL
MODEL 4
REMARK VINA RESULT:      -8.8      5.105     10.048
REMARK  5 active torsions:
REMARK  status: ('A' for Active; 'I' for Inactive)
REMARK    1  A    between atoms: C2_2  and  C3_3 
REMARK       I    between atoms: C3_3  and  N1_5 
REMARK    2  A    between atoms: N1_5  and  C4_6 
REMARK    3  A    between atoms: C9_13  and  N4_14 
REMARK    4  A    between atoms: N4_14  and  C10_15 
REMARK    5  A    between atoms: C22_29  and  O3_30 
ROOT
HETATM    1  C4  UNL     1      22.487   1.053  52.219  1.00  0.00     0.065 C 
HETATM    2  C5  UNL     1      23.404   1.910  51.802  1.00  0.00     0.020 C 
HETATM    3  C6  UNL     1      24.643   1.743  52.562  1.00  0.00     0.107 A 
HETATM    4  C7  UNL     1      24.924   0.394  53.024  1.00  0.00     0.050 A 
HETATM    5  N2  UNL     1      26.065  -0.256  53.023  1.00  0.00    -0.246 NA
HETATM    6  C8  UNL     1      27.159   0.461  52.477  1.00  0.00     0.229 A 
HETATM    7  N3  UNL     1      26.987   1.625  52.018  1.00  0.00    -0.256 NA
HETATM    8  C9  UNL     1      25.806   2.410  51.929  1.00  0.00     0.220 A 
HETATM    9  C21 UNL     1      23.827  -0.487  53.491  1.00  0.00     0.067 C 
HETATM   10  C22 UNL     1      22.582  -0.157  53.069  1.00  0.00     0.096 C 
ENDROOT
BRANCH   8  11
HETATM   11  N4  UNL     1      25.470   2.627  50.497  1.00  0.00    -0.366 N 
HETATM   12  H11 UNL     1      24.932   2.079  49.813  1.00  0.00     0.161 HD
BRANCH  11  13
HETATM   13  C10 UNL     1      25.964   3.809  49.873  1.00  0.00     0.030 A 
HETATM   14  C11 UNL     1      27.166   3.946  49.181  1.00  0.00     0.032 A 
HETATM   15  C12 UNL     1      27.627   5.080  48.584  1.00  0.00     0.040 A 
HETATM   16  C13 UNL     1      26.849   6.215  48.657  1.00  0.00     0.081 A 
HETATM   17  C14 UNL     1      25.638   6.186  49.320  1.00  0.00    -0.019 A 
HETATM   18  O2  UNL     1      27.547   7.208  47.975  1.00  0.00    -0.319 OA
HETATM   19  C15 UNL     1      25.231   4.998  49.904  1.00  0.00     0.039 A 
HETATM   20  C16 UNL     1      24.597   7.192  49.573  1.00  0.00     0.068 C 
HETATM   21  C17 UNL     1      25.117   8.366  50.279  1.00  0.00    -0.019 C 
HETATM   22  C18 UNL     1      26.061   9.271  50.081  1.00  0.00     0.040 C 
HETATM   23  C19 UNL     1      27.030   9.479  49.011  1.00  0.00     0.138 C 
HETATM   24  F1  UNL     1      27.406  10.767  48.831  1.00  0.00    -0.204 F 
HETATM   25  C20 UNL     1      27.609   8.601  48.175  1.00  0.00     0.184 C 
ENDBRANCH  11  13
ENDBRANCH   8  11
BRANCH   1  26
HETATM   26  N1  UNL     1      21.149   1.021  51.647  1.00  0.00    -0.325 N 
HETATM   27  C3  UNL     1      20.106   1.856  52.132  1.00  0.00     0.221 C 
HETATM   28  O1  UNL     1      20.253   2.668  53.070  1.00  0.00    -0.273 OA
HETATM   29  H6  UNL     1      21.008   0.342  50.856  1.00  0.00     0.169 HD
BRANCH  27  30
HETATM   30  C2  UNL     1      18.793   1.699  51.434  1.00  0.00     0.098 C 
HETATM   31  C1  UNL     1      18.483   0.233  51.229  1.00  0.00     0.014 C 
ENDBRANCH  27  30
ENDBRANCH   1  26
BRANCH  10  32
HETATM   32  O3  UNL     1      21.542  -0.979  53.474  1.00  0.00    -0.354 OA
HETATM   33  C23 UNL     1      21.674  -1.646  54.716  1.00  0.00     0.210 C 
ENDBRANCH  10  32
TORSDOF 5
ENDMDL
MODEL 5
REMARK VINA RESULT:      -8.6      1.259      2.299
REMARK  5 active torsions:
REMARK  status: ('A' for Active; 'I' for Inactive)
REMARK    1  A    between atoms: C2_2  and  C3_3 
REMARK       I    between atoms: C3_3  and  N1_5 
REMARK    2  A    between atoms: N1_5  and  C4_6 
REMARK    3  A    between atoms: C9_13  and  N4_14 
REMARK    4  A    between atoms: N4_14  and  C10_15 
REMARK    5  A    between atoms: C22_29  and  O3_30 
ROOT
HETATM    1  C4  UNL     1      32.390   5.485  48.438  1.00  0.00     0.065 C 
HETATM    2  C5  UNL     1      31.128   5.857  48.574  1.00  0.00     0.020 C 
HETATM    3  C6  UNL     1      31.016   7.314  48.525  1.00  0.00     0.107 A 
HETATM    4  C7  UNL     1      31.990   7.995  47.688  1.00  0.00     0.050 A 
HETATM    5  N2  UNL     1      31.806   8.996  46.858  1.00  0.00    -0.246 NA
HETATM    6  C8  UNL     1      30.468   9.452  46.761  1.00  0.00     0.229 A 
HETATM    7  N3  UNL     1      29.557   8.886  47.426  1.00  0.00    -0.256 NA
HETATM    8  C9  UNL     1      29.624   7.782  48.318  1.00  0.00     0.220 A 
HETATM    9  C21 UNL     1      33.390   7.513  47.615  1.00  0.00     0.067 C 
HETATM   10  C22 UNL     1      33.593   6.225  47.987  1.00  0.00     0.096 C 
ENDROOT
BRANCH   8  11
HETATM   11  N4  UNL     1      28.852   6.646  47.749  1.00  0.00    -0.366 N 
HETATM   12  H11 UNL     1      28.953   6.091  46.889  1.00  0.00     0.161 HD
BRANCH  11  13
HETATM   13  C10 UNL     1      27.724   6.178  48.483  1.00  0.00     0.030 A 
HETATM   14  C11 UNL     1      27.361   4.849  48.694  1.00  0.00     0.032 A 
HETATM   15  C12 UNL     1      26.283   4.412  49.403  1.00  0.00     0.040 A 
HETATM   16  C13 UNL     1      25.456   5.354  49.976  1.00  0.00     0.081 A 
HETATM   17  C14 UNL     1      25.728   6.699  49.827  1.00  0.00    -0.019 A 
HETATM   18  O2  UNL     1      24.452   4.644  50.628  1.00  0.00    -0.319 OA
HETATM   19  C15 UNL     1      26.842   7.073  49.093  1.00  0.00     0.039 A 
HETATM   20  C16 UNL     1      25.068   7.925  50.298  1.00  0.00     0.068 C 
HETATM   21  C17 UNL     1      23.674   8.013  49.853  1.00  0.00    -0.019 C 
HETATM   22  C18 UNL     1      22.579   7.280  49.964  1.00  0.00     0.040 C 
HETATM   23  C19 UNL     1      22.297   6.005  50.614  1.00  0.00     0.138 C 
HETATM   24  F1  UNL     1      21.019   5.855  51.036  1.00  0.00    -0.204 F 
HETATM   25  C20 UNL     1      23.099   4.957  50.863  1.00  0.00     0.184 C 
ENDBRANCH  11  13
ENDBRANCH   8  11
BRANCH   1  26
HETATM   26  N1  UNL     1      32.788   4.086  48.475  1.00  0.00    -0.325 N 
HETATM   27  C3  UNL     1      32.626   3.232  47.350  1.00  0.00     0.221 C 
HETATM   28  O1  UNL     1      32.140   3.608  46.262  1.00  0.00    -0.273 OA
HETATM   29  H6  UNL     1      33.199   3.752  49.383  1.00  0.00     0.169 HD
BRANCH  27  30
HETATM   30  C2  UNL     1      33.084   1.823  47.554  1.00  0.00     0.098 C 
HETATM   31  C1  UNL     1      32.173   0.866  46.819  1.00  0.00     0.014 C 
ENDBRANCH  27  30
ENDBRANCH   1  26
BRANCH  10  32
HETATM   32  O3  UNL     1      34.890   5.744  47.907  1.00  0.00    -0.354 OA
HETATM   33  C23 UNL     1      35.766   6.025  48.984  1.00  0.00     0.210 C 
ENDBRANCH  10  32
TORSDOF 5
ENDMDL
MODEL 6
REMARK VINA RESULT:      -8.6      3.664      8.323
REMARK  5 active torsions:
REMARK  status: ('A' for Active; 'I' for Inactive)
REMARK    1  A    between atoms: C2_2  and  C3_3 
REMARK       I    between atoms: C3_3  and  N1_5 
REMARK    2  A    between atoms: N1_5  and  C4_6 
REMARK    3  A    between atoms: C9_13  and  N4_14 
REMARK    4  A    between atoms: N4_14  and  C10_15 
REMARK    5  A    between atoms: C22_29  and  O3_30 
ROOT
HETATM    1  C4  UNL     1      25.383   3.288  50.452  1.00  0.00     0.065 C 
HETATM    2  C5  UNL     1      26.200   3.923  49.627  1.00  0.00     0.020 C 
HETATM    3  C6  UNL     1      25.674   5.250  49.308  1.00  0.00     0.107 A 
HETATM    4  C7  UNL     1      24.899   5.891  50.356  1.00  0.00     0.050 A 
HETATM    5  N2  UNL     1      24.925   7.143  50.752  1.00  0.00    -0.246 NA
HETATM    6  C8  UNL     1      25.855   7.964  50.067  1.00  0.00     0.229 A 
HETATM    7  N3  UNL     1      26.595   7.472  49.171  1.00  0.00    -0.256 NA
HETATM    8  C9  UNL     1      26.684   6.139  48.686  1.00  0.00     0.220 A 
HETATM    9  C21 UNL     1      23.993   5.095  51.219  1.00  0.00     0.067 C 
HETATM   10  C22 UNL     1      24.249   3.765  51.279  1.00  0.00     0.096 C 
ENDROOT
BRANCH   8  11
HETATM   11  N4  UNL     1      28.026   5.589  49.016  1.00  0.00    -0.366 N 
HETATM   12  H11 UNL     1      28.357   4.937  49.738  1.00  0.00     0.161 HD
BRANCH  11  13
HETATM   13  C10 UNL     1      29.128   6.009  48.216  1.00  0.00     0.030 A 
HETATM   14  C11 UNL     1      29.246   7.215  47.529  1.00  0.00     0.032 A 
HETATM   15  C12 UNL     1      30.306   7.611  46.771  1.00  0.00     0.040 A 
HETATM   16  C13 UNL     1      31.378   6.751  46.656  1.00  0.00     0.081 A 
HETATM   17  C14 UNL     1      31.362   5.530  47.298  1.00  0.00    -0.019 A 
HETATM   18  O2  UNL     1      32.304   7.395  45.839  1.00  0.00    -0.319 OA
HETATM   19  C15 UNL     1      30.250   5.194  48.053  1.00  0.00     0.039 A 
HETATM   20  C16 UNL     1      32.315   4.415  47.380  1.00  0.00     0.068 C 
HETATM   21  C17 UNL     1      32.657   3.876  46.061  1.00  0.00    -0.019 C 
HETATM   22  C18 UNL     1      33.167   4.339  44.932  1.00  0.00     0.040 C 
HETATM   23  C19 UNL     1      33.625   5.660  44.517  1.00  0.00     0.138 C 
HETATM   24  F1  UNL     1      34.596   5.652  43.573  1.00  0.00    -0.204 F 
HETATM   25  C20 UNL     1      33.240   6.883  44.918  1.00  0.00     0.184 C 
ENDBRANCH  11  13
ENDBRANCH   8  11
BRANCH   1  26
HETATM   26  N1  UNL     1      25.656   1.935  50.913  1.00  0.00    -0.325 N 
HETATM   27  C3  UNL     1      26.756   1.641  51.765  1.00  0.00     0.221 C 
HETATM   28  O1  UNL     1      27.560   2.505  52.176  1.00  0.00    -0.273 OA
HETATM   29  H6  UNL     1      24.989   1.195  50.576  1.00  0.00     0.169 HD
BRANCH  27  30
HETATM   30  C2  UNL     1      26.895   0.202  52.146  1.00  0.00     0.098 C 
HETATM   31  C1  UNL     1      25.843  -0.173  53.166  1.00  0.00     0.014 C 
ENDBRANCH  27  30
ENDBRANCH   1  26
BRANCH  10  32
HETATM   32  O3  UNL     1      23.430   3.003  52.096  1.00  0.00    -0.354 OA
HETATM   33  C23 UNL     1      22.046   2.974  51.801  1.00  0.00     0.210 C 
ENDBRANCH  10  32
TORSDOF 5
ENDMDL
MODEL 7
REMARK VINA RESULT:      -8.4      1.789      2.366
REMARK  5 active torsions:
REMARK  status: ('A' for Active; 'I' for Inactive)
REMARK    1  A    between atoms: C2_2  and  C3_3 
REMARK       I    between atoms: C3_3  and  N1_5 
REMARK    2  A    between atoms: N1_5  and  C4_6 
REMARK    3  A    between atoms: C9_13  and  N4_14 
REMARK    4  A    between atoms: N4_14  and  C10_15 
REMARK    5  A    between atoms: C22_29  and  O3_30 
ROOT
HETATM    1  C4  UNL     1      30.983   7.554  48.030  1.00  0.00     0.065 C 
HETATM    2  C5  UNL     1      29.785   7.633  48.585  1.00  0.00     0.020 C 
HETATM    3  C6  UNL     1      29.605   8.933  49.231  1.00  0.00     0.107 A 
HETATM    4  C7  UNL     1      30.302  10.048  48.613  1.00  0.00     0.050 A 
HETATM    5  N2  UNL     1      29.871  11.269  48.392  1.00  0.00    -0.246 NA
HETATM    6  C8  UNL     1      28.536  11.512  48.799  1.00  0.00     0.229 A 
HETATM    7  N3  UNL     1      27.850  10.582  49.309  1.00  0.00    -0.256 NA
HETATM    8  C9  UNL     1      28.189   9.226  49.561  1.00  0.00     0.220 A 
HETATM    9  C21 UNL     1      31.654   9.864  48.033  1.00  0.00     0.067 C 
HETATM   10  C22 UNL     1      31.998   8.590  47.723  1.00  0.00     0.096 C 
ENDROOT
BRANCH   8  11
HETATM   11  N4  UNL     1      27.343   8.344  48.714  1.00  0.00    -0.366 N 
HETATM   12  H11 UNL     1      27.252   8.228  47.697  1.00  0.00     0.161 HD
BRANCH  11  13
HETATM   13  C10 UNL     1      26.444   7.457  49.374  1.00  0.00     0.030 A 
HETATM   14  C11 UNL     1      25.415   7.810  50.244  1.00  0.00     0.032 A 
HETATM   15  C12 UNL     1      24.557   6.953  50.866  1.00  0.00     0.040 A 
HETATM   16  C13 UNL     1      24.702   5.603  50.629  1.00  0.00     0.081 A 
HETATM   17  C14 UNL     1      25.691   5.148  49.781  1.00  0.00    -0.019 A 
HETATM   18  O2  UNL     1      23.713   4.971  51.378  1.00  0.00    -0.319 OA
HETATM   19  C15 UNL     1      26.528   6.076  49.182  1.00  0.00     0.039 A 
HETATM   20  C16 UNL     1      26.102   3.813  49.327  1.00  0.00     0.068 C 
HETATM   21  C17 UNL     1      26.453   2.928  50.441  1.00  0.00    -0.019 C 
HETATM   22  C18 UNL     1      25.861   2.468  51.530  1.00  0.00     0.040 C 
HETATM   23  C19 UNL     1      24.533   2.667  52.100  1.00  0.00     0.138 C 
HETATM   24  F1  UNL     1      24.074   1.632  52.842  1.00  0.00    -0.204 F 
HETATM   25  C20 UNL     1      23.692   3.711  52.009  1.00  0.00     0.184 C 
ENDBRANCH  11  13
ENDBRANCH   8  11
BRANCH   1  26
HETATM   26  N1  UNL     1      31.432   6.355  47.339  1.00  0.00    -0.325 N 
HETATM   27  C3  UNL     1      31.814   5.182  48.045  1.00  0.00     0.221 C 
HETATM   28  O1  UNL     1      31.795   5.090  49.291  1.00  0.00    -0.273 OA
HETATM   29  H6  UNL     1      31.455   6.415  46.289  1.00  0.00     0.169 HD
BRANCH  27  30
HETATM   30  C2  UNL     1      32.250   4.039  47.185  1.00  0.00     0.098 C 
HETATM   31  C1  UNL     1      32.718   4.547  45.840  1.00  0.00     0.014 C 
ENDBRANCH  27  30
ENDBRANCH   1  26
BRANCH  10  32
HETATM   32  O3  UNL     1      33.249   8.395  47.160  1.00  0.00    -0.354 OA
HETATM   33  C23 UNL     1      34.348   8.223  48.036  1.00  0.00     0.210 C 
ENDBRANCH  10  32
TORSDOF 5
ENDMDL
MODEL 8
REMARK VINA RESULT:      -8.4      7.732     11.423
REMARK  5 active torsions:
REMARK  status: ('A' for Active; 'I' for Inactive)
REMARK    1  A    between atoms: C2_2  and  C3_3 
REMARK       I    between atoms: C3_3  and  N1_5 
REMARK    2  A    between atoms: N1_5  and  C4_6 
REMARK    3  A    between atoms: C9_13  and  N4_14 
REMARK    4  A    between atoms: N4_14  and  C10_15 
REMARK    5  A    between atoms: C22_29  and  O3_30 
ROOT
HETATM    1  C4  UNL     1      19.415   0.831  50.608  1.00  0.00     0.065 C 
HETATM    2  C5  UNL     1      20.680   0.978  50.968  1.00  0.00     0.020 C 
HETATM    3  C6  UNL     1      21.366   1.897  50.061  1.00  0.00     0.107 A 
HETATM    4  C7  UNL     1      20.545   2.950  49.488  1.00  0.00     0.050 A 
HETATM    5  N2  UNL     1      20.834   4.220  49.317  1.00  0.00    -0.246 NA
HETATM    6  C8  UNL     1      22.118   4.605  49.776  1.00  0.00     0.229 A 
HETATM    7  N3  UNL     1      22.876   3.757  50.322  1.00  0.00    -0.256 NA
HETATM    8  C9  UNL     1      22.663   2.379  50.595  1.00  0.00     0.220 A 
HETATM    9  C21 UNL     1      19.140   2.683  49.098  1.00  0.00     0.067 C 
HETATM   10  C22 UNL     1      18.558   1.606  49.681  1.00  0.00     0.096 C 
ENDROOT
BRANCH   8  11
HETATM   11  N4  UNL     1      22.644   2.169  52.067  1.00  0.00    -0.366 N 
HETATM   12  H11 UNL     1      21.892   2.187  52.767  1.00  0.00     0.161 HD
BRANCH  11  13
HETATM   13  C10 UNL     1      23.884   1.889  52.711  1.00  0.00     0.030 A 
HETATM   14  C11 UNL     1      24.758   2.817  53.275  1.00  0.00     0.032 A 
HETATM   15  C12 UNL     1      25.939   2.538  53.894  1.00  0.00     0.040 A 
HETATM   16  C13 UNL     1      26.330   1.219  53.983  1.00  0.00     0.081 A 
HETATM   17  C14 UNL     1      25.534   0.221  53.458  1.00  0.00    -0.019 A 
HETATM   18  O2  UNL     1      27.552   1.222  54.650  1.00  0.00    -0.319 OA
HETATM   19  C15 UNL     1      24.346   0.577  52.842  1.00  0.00     0.039 A 
HETATM   20  C16 UNL     1      25.656  -1.241  53.389  1.00  0.00     0.068 C 
HETATM   21  C17 UNL     1      26.884  -1.667  52.711  1.00  0.00    -0.019 C 
HETATM   22  C18 UNL     1      28.184  -1.482  52.865  1.00  0.00     0.040 C 
HETATM   23  C19 UNL     1      28.974  -0.730  53.834  1.00  0.00     0.138 C 
HETATM   24  F1  UNL     1      30.214  -1.224  54.059  1.00  0.00    -0.204 F 
HETATM   25  C20 UNL     1      28.670   0.372  54.540  1.00  0.00     0.184 C 
ENDBRANCH  11  13
ENDBRANCH   8  11
BRANCH   1  26
HETATM   26  N1  UNL     1      18.509  -0.050  51.329  1.00  0.00    -0.325 N 
HETATM   27  C3  UNL     1      18.798  -0.509  52.644  1.00  0.00     0.221 C 
HETATM   28  O1  UNL     1      19.832  -0.197  53.271  1.00  0.00    -0.273 OA
HETATM   29  H6  UNL     1      17.634  -0.323  50.815  1.00  0.00     0.169 HD
BRANCH  27  30
HETATM   30  C2  UNL     1      17.763  -1.408  53.242  1.00  0.00     0.098 C 
HETATM   31  C1  UNL     1      16.553  -1.484  52.339  1.00  0.00     0.014 C 
ENDBRANCH  27  30
ENDBRANCH   1  26
BRANCH  10  32
HETATM   32  O3  UNL     1      17.237   1.347  49.349  1.00  0.00    -0.354 OA
HETATM   33  C23 UNL     1      16.314   2.418  49.432  1.00  0.00     0.210 C 
ENDBRANCH  10  32
TORSDOF 5
ENDMDL
MODEL 9
REMARK VINA RESULT:      -8.3      9.120     14.700
REMARK  5 active torsions:
REMARK  status: ('A' for Active; 'I' for Inactive)
REMARK    1  A    between atoms: C2_2  and  C3_3 
REMARK       I    between atoms: C3_3  and  N1_5 
REMARK    2  A    between atoms: N1_5  and  C4_6 
REMARK    3  A    between atoms: C9_13  and  N4_14 
REMARK    4  A    between atoms: N4_14  and  C10_15 
REMARK    5  A    between atoms: C22_29  and  O3_30 
ROOT
HETATM    1  C4  UNL     1      16.237  -2.172  52.642  1.00  0.00     0.065 C 
HETATM    2  C5  UNL     1      17.485  -1.734  52.690  1.00  0.00     0.020 C 
HETATM    3  C6  UNL     1      17.684  -0.651  51.727  1.00  0.00     0.107 A 
HETATM    4  C7  UNL     1      16.525   0.188  51.471  1.00  0.00     0.050 A 
HETATM    5  N2  UNL     1      16.464   1.494  51.348  1.00  0.00    -0.246 NA
HETATM    6  C8  UNL     1      17.701   2.166  51.508  1.00  0.00     0.229 A 
HETATM    7  N3  UNL     1      18.748   1.511  51.772  1.00  0.00    -0.256 NA
HETATM    8  C9  UNL     1      18.931   0.115  51.965  1.00  0.00     0.220 A 
HETATM    9  C21 UNL     1      15.165  -0.400  51.418  1.00  0.00     0.067 C 
HETATM   10  C22 UNL     1      15.015  -1.602  52.028  1.00  0.00     0.096 C 
ENDROOT
BRANCH   8  11
HETATM   11  N4  UNL     1      19.345  -0.134  53.371  1.00  0.00    -0.366 N 
HETATM   12  H11 UNL     1      18.821  -0.216  54.251  1.00  0.00     0.161 HD
BRANCH  11  13
HETATM   13  C10 UNL     1      20.737  -0.295  53.633  1.00  0.00     0.030 A 
HETATM   14  C11 UNL     1      21.312  -1.098  54.615  1.00  0.00     0.032 A 
HETATM   15  C12 UNL     1      22.644  -1.250  54.854  1.00  0.00     0.040 A 
HETATM   16  C13 UNL     1      23.530  -0.551  54.061  1.00  0.00     0.081 A 
HETATM   17  C14 UNL     1      23.062   0.273  53.057  1.00  0.00    -0.019 A 
HETATM   18  O2  UNL     1      24.803  -0.885  54.515  1.00  0.00    -0.319 OA
HETATM   19  C15 UNL     1      21.694   0.379  52.871  1.00  0.00     0.039 A 
HETATM   20  C16 UNL     1      23.720   1.131  52.062  1.00  0.00     0.068 C 
HETATM   21  C17 UNL     1      24.586   2.138  52.680  1.00  0.00    -0.019 C 
HETATM   22  C18 UNL     1      25.626   2.146  53.497  1.00  0.00     0.040 C 
HETATM   23  C19 UNL     1      26.380   1.085  54.156  1.00  0.00     0.138 C 
HETATM   24  F1  UNL     1      27.676   1.384  54.409  1.00  0.00    -0.204 F 
HETATM   25  C20 UNL     1      25.998  -0.140  54.553  1.00  0.00     0.184 C 
ENDBRANCH  11  13
ENDBRANCH   8  11
BRANCH   1  26
HETATM   26  N1  UNL     1      15.775  -3.266  53.483  1.00  0.00    -0.325 N 
HETATM   27  C3  UNL     1      16.500  -4.484  53.593  1.00  0.00     0.221 C 
HETATM   28  O1  UNL     1      17.570  -4.707  52.987  1.00  0.00    -0.273 OA
HETATM   29  H6  UNL     1      14.875  -3.095  54.000  1.00  0.00     0.169 HD
BRANCH  27  30
HETATM   30  C2  UNL     1      15.887  -5.506  54.497  1.00  0.00     0.098 C 
HETATM   31  C1  UNL     1      14.444  -5.154  54.780  1.00  0.00     0.014 C 
ENDBRANCH  27  30
ENDBRANCH   1  26
BRANCH  10  32
HETATM   32  O3  UNL     1      13.748  -2.162  52.011  1.00  0.00    -0.354 OA
HETATM   33  C23 UNL     1      13.336  -2.827  50.831  1.00  0.00     0.210 C 
ENDBRANCH  10  32
TORSDOF 5
ENDMDL
