MODEL 1
REMARK VINA RESULT:      -7.0      0.000      0.000
REMARK  5 active torsions:
REMARK  status: ('A' for Active; 'I' for Inactive)
REMARK    1  A    between atoms: C2_2  and  N1_3 
REMARK    2  A    between atoms: C6_7  and  C7_8 
REMARK    3  A    between atoms: C11_13  and  C12_14 
REMARK    4  A    between atoms: C12_14  and  C13_16 
REMARK    5  A    between atoms: C13_16  and  P1_17 
ROOT
HETATM    1  C7  UNL     1      24.147  -0.421  53.499  1.00  0.00     0.103 A 
HETATM    2  C8  UNL     1      23.297   0.301  52.730  1.00  0.00     0.133 A 
HETATM    3  N2  UNL     1      23.980   0.904  51.595  1.00  0.00    -0.380 N 
HETATM    4  C9  UNL     1      23.752   2.277  51.098  1.00  0.00     0.123 C 
HETATM    5  C10 UNL     1      22.275   2.492  50.979  1.00  0.00     0.054 C 
HETATM    6  C11 UNL     1      21.592   3.051  52.180  1.00  0.00     0.162 C 
HETATM    7  O1  UNL     1      20.717   2.127  52.804  1.00  0.00    -0.299 OA
HETATM    8  S1  UNL     1      21.505   0.574  53.021  1.00  0.00     0.089 SA
HETATM    9  N3  UNL     1      21.046  -0.214  54.406  1.00  0.00    -0.189 NA
HETATM   10  C14 UNL     1      22.246  -0.867  54.930  1.00  0.00     0.244 A 
HETATM   11  N4  UNL     1      23.462  -0.971  54.609  1.00  0.00    -0.238 NA
HETATM   12  H9  UNL     1      24.598   0.092  51.285  1.00  0.00     0.160 HD
ENDROOT
BRANCH   1  13
HETATM   13  C6  UNL     1      25.564  -0.576  53.252  1.00  0.00     0.015 A 
HETATM   14  C2  UNL     1      26.404   0.136  54.262  1.00  0.00     0.199 A 
HETATM   15  C1  UNL     1      26.150   1.615  54.226  1.00  0.00     0.059 C 
HETATM   16  C3  UNL     1      27.786  -0.159  53.943  1.00  0.00     0.019 A 
HETATM   17  C4  UNL     1      27.871  -0.930  52.898  1.00  0.00    -0.001 A 
HETATM   18  C5  UNL     1      26.494  -1.132  52.543  1.00  0.00     0.012 A 
BRANCH  14  19
HETATM   19  N1  UNL     1      26.121  -0.343  55.602  1.00  0.00     0.096 N 
HETATM   20  H4  UNL     1      26.968  -0.363  56.193  1.00  0.00     0.314 HD
HETATM   21  H5  UNL     1      25.579  -1.223  55.606  1.00  0.00     0.314 HD
ENDBRANCH  14  19
ENDBRANCH   1  13
BRANCH   6  22
HETATM   22  C12 UNL     1      20.651   4.185  51.756  1.00  0.00     0.136 C 
HETATM   23 CL1  UNL     1      21.553   5.674  51.380  1.00  0.00    -0.118 Cl
BRANCH  22  24
HETATM   24  C13 UNL     1      19.753   3.809  50.660  1.00  0.00     0.004 C 
BRANCH  24  25
HETATM   25  P1  UNL     1      18.114   3.877  50.892  1.00  0.00    -0.078 P 
HETATM   26  H17 UNL     1      17.536   4.760  51.906  1.00  0.00     0.066 HD
ENDBRANCH  24  25
ENDBRANCH  22  24
ENDBRANCH   6  22
TORSDOF 5
ENDMDL
MODEL 2
REMARK VINA RESULT:      -7.0      2.710      2.989
REMARK  5 active torsions:
REMARK  status: ('A' for Active; 'I' for Inactive)
REMARK    1  A    between atoms: C2_2  and  N1_3 
REMARK    2  A    between atoms: C6_7  and  C7_8 
REMARK    3  A    between atoms: C11_13  and  C12_14 
REMARK    4  A    between atoms: C12_14  and  C13_16 
REMARK    5  A    between atoms: C13_16  and  P1_17 
ROOT
HETATM    1  C7  UNL     1      25.639   0.137  52.880  1.00  0.00     0.103 A 
HETATM    2  C8  UNL     1      25.241   1.024  51.935  1.00  0.00     0.133 A 
HETATM    3  N2  UNL     1      26.365   1.518  51.154  1.00  0.00    -0.380 N 
HETATM    4  C9  UNL     1      26.554   2.921  50.731  1.00  0.00     0.123 C 
HETATM    5  C10 UNL     1      25.268   3.410  50.142  1.00  0.00     0.054 C 
HETATM    6  C11 UNL     1      24.313   4.056  51.088  1.00  0.00     0.162 C 
HETATM    7  O1  UNL     1      23.136   3.296  51.298  1.00  0.00    -0.299 OA
HETATM    8  S1  UNL     1      23.531   1.618  51.631  1.00  0.00     0.089 SA
HETATM    9  N3  UNL     1      22.497   0.895  52.706  1.00  0.00    -0.189 NA
HETATM   10  C14 UNL     1      23.314   0.017  53.543  1.00  0.00     0.244 A 
HETATM   11  N4  UNL     1      24.531  -0.304  53.641  1.00  0.00    -0.238 NA
HETATM   12  H9  UNL     1      26.909   0.614  51.000  1.00  0.00     0.160 HD
ENDROOT
BRANCH   1  13
HETATM   13  C6  UNL     1      27.008  -0.272  53.110  1.00  0.00     0.015 A 
HETATM   14  C2  UNL     1      27.620   0.413  54.289  1.00  0.00     0.199 A 
HETATM   15  C1  UNL     1      27.677   1.899  54.078  1.00  0.00     0.059 C 
HETATM   16  C3  UNL     1      28.952  -0.136  54.449  1.00  0.00     0.019 A 
HETATM   17  C4  UNL     1      29.202  -1.031  53.538  1.00  0.00    -0.001 A 
HETATM   18  C5  UNL     1      27.986  -1.052  52.775  1.00  0.00     0.012 A 
BRANCH  14  19
HETATM   19  N1  UNL     1      26.858   0.152  55.495  1.00  0.00     0.096 N 
HETATM   20  H4  UNL     1      27.039  -0.793  55.870  1.00  0.00     0.314 HD
HETATM   21  H5  UNL     1      25.856   0.384  55.392  1.00  0.00     0.314 HD
ENDBRANCH  14  19
ENDBRANCH   1  13
BRANCH   6  22
HETATM   22  C12 UNL     1      23.779   5.356  50.474  1.00  0.00     0.136 C 
HETATM   23 CL1  UNL     1      22.017   5.501  50.686  1.00  0.00    -0.118 Cl
BRANCH  22  24
HETATM   24  C13 UNL     1      24.479   6.550  50.957  1.00  0.00     0.004 C 
BRANCH  24  25
HETATM   25  P1  UNL     1      25.563   7.314  49.963  1.00  0.00    -0.078 P 
HETATM   26  H17 UNL     1      25.104   8.193  48.887  1.00  0.00     0.066 HD
ENDBRANCH  24  25
ENDBRANCH  22  24
ENDBRANCH   6  22
TORSDOF 5
ENDMDL
MODEL 3
REMARK VINA RESULT:      -6.9      2.658      3.548
REMARK  5 active torsions:
REMARK  status: ('A' for Active; 'I' for Inactive)
REMARK    1  A    between atoms: C2_2  and  N1_3 
REMARK    2  A    between atoms: C6_7  and  C7_8 
REMARK    3  A    between atoms: C11_13  and  C12_14 
REMARK    4  A    between atoms: C12_14  and  C13_16 
REMARK    5  A    between atoms: C13_16  and  P1_17 
ROOT
HETATM    1  C7  UNL     1      25.481   1.170  52.375  1.00  0.00     0.103 A 
HETATM    2  C8  UNL     1      24.219   1.114  52.863  1.00  0.00     0.133 A 
HETATM    3  N2  UNL     1      24.012  -0.069  53.685  1.00  0.00    -0.380 N 
HETATM    4  C9  UNL     1      22.801  -0.916  53.667  1.00  0.00     0.123 C 
HETATM    5  C10 UNL     1      21.604  -0.021  53.748  1.00  0.00     0.054 C 
HETATM    6  C11 UNL     1      21.033   0.436  52.449  1.00  0.00     0.162 C 
HETATM    7  O1  UNL     1      21.204   1.824  52.223  1.00  0.00    -0.299 OA
HETATM    8  S1  UNL     1      22.860   2.308  52.550  1.00  0.00     0.089 SA
HETATM    9  N3  UNL     1      23.406   3.514  51.551  1.00  0.00    -0.189 NA
HETATM   10  C14 UNL     1      24.806   3.209  51.258  1.00  0.00     0.244 A 
HETATM   11  N4  UNL     1      25.644   2.313  51.557  1.00  0.00    -0.238 NA
HETATM   12  H9  UNL     1      24.920  -0.078  54.245  1.00  0.00     0.160 HD
ENDROOT
BRANCH   1  13
HETATM   13  C6  UNL     1      26.510   0.182  52.617  1.00  0.00     0.015 A 
HETATM   14  C2  UNL     1      27.532   0.648  53.602  1.00  0.00     0.199 A 
HETATM   15  C1  UNL     1      28.255   1.862  53.094  1.00  0.00     0.059 C 
HETATM   16  C3  UNL     1      28.453  -0.453  53.805  1.00  0.00     0.019 A 
HETATM   17  C4  UNL     1      28.118  -1.482  53.082  1.00  0.00    -0.001 A 
HETATM   18  C5  UNL     1      26.944  -1.018  52.399  1.00  0.00     0.012 A 
BRANCH  14  19
HETATM   19  N1  UNL     1      26.915   0.982  54.872  1.00  0.00     0.096 N 
HETATM   20  H4  UNL     1      26.693   0.141  55.428  1.00  0.00     0.314 HD
HETATM   21  H5  UNL     1      26.128   1.645  54.770  1.00  0.00     0.314 HD
ENDBRANCH  14  19
ENDBRANCH   1  13
BRANCH   6  22
HETATM   22  C12 UNL     1      19.509   0.275  52.470  1.00  0.00     0.136 C 
HETATM   23 CL1  UNL     1      18.832   0.268  50.822  1.00  0.00    -0.118 Cl
BRANCH  22  24
HETATM   24  C13 UNL     1      19.064  -0.892  53.239  1.00  0.00     0.004 C 
BRANCH  24  25
HETATM   25  P1  UNL     1      17.501  -1.420  53.083  1.00  0.00    -0.078 P 
HETATM   26  H17 UNL     1      17.113  -2.757  53.536  1.00  0.00     0.066 HD
ENDBRANCH  24  25
ENDBRANCH  22  24
ENDBRANCH   6  22
TORSDOF 5
ENDMDL
MODEL 4
REMARK VINA RESULT:      -6.4      2.484      3.564
REMARK  5 active torsions:
REMARK  status: ('A' for Active; 'I' for Inactive)
REMARK    1  A    between atoms: C2_2  and  N1_3 
REMARK    2  A    between atoms: C6_7  and  C7_8 
REMARK    3  A    between atoms: C11_13  and  C12_14 
REMARK    4  A    between atoms: C12_14  and  C13_16 
REMARK    5  A    between atoms: C13_16  and  P1_17 
ROOT
HETATM    1  C7  UNL     1      26.204   1.816  51.708  1.00  0.00     0.103 A 
HETATM    2  C8  UNL     1      24.863   1.990  51.778  1.00  0.00     0.133 A 
HETATM    3  N2  UNL     1      24.239   1.017  52.661  1.00  0.00    -0.380 N 
HETATM    4  C9  UNL     1      22.966   0.317  52.391  1.00  0.00     0.123 C 
HETATM    5  C10 UNL     1      21.956   1.334  51.957  1.00  0.00     0.054 C 
HETATM    6  C11 UNL     1      21.869   1.592  50.491  1.00  0.00     0.162 C 
HETATM    7  O1  UNL     1      22.319   2.885  50.126  1.00  0.00    -0.299 OA
HETATM    8  S1  UNL     1      23.864   3.242  50.879  1.00  0.00     0.089 SA
HETATM    9  N3  UNL     1      24.863   4.168  49.934  1.00  0.00    -0.189 NA
HETATM   10  C14 UNL     1      26.220   3.663  50.144  1.00  0.00     0.244 A 
HETATM   11  N4  UNL     1      26.779   2.757  50.821  1.00  0.00    -0.238 NA
HETATM   12  H9  UNL     1      24.932   1.017  53.472  1.00  0.00     0.160 HD
ENDROOT
BRANCH   1  13
HETATM   13  C6  UNL     1      26.946   0.788  52.406  1.00  0.00     0.015 A 
HETATM   14  C2  UNL     1      27.584   1.292  53.660  1.00  0.00     0.199 A 
HETATM   15  C1  UNL     1      28.584   2.371  53.358  1.00  0.00     0.059 C 
HETATM   16  C3  UNL     1      28.226   0.156  54.291  1.00  0.00     0.019 A 
HETATM   17  C4  UNL     1      28.058  -0.926  53.588  1.00  0.00    -0.001 A 
HETATM   18  C5  UNL     1      27.281  -0.461  52.474  1.00  0.00     0.012 A 
BRANCH  14  19
HETATM   19  N1  UNL     1      26.590   1.832  54.568  1.00  0.00     0.096 N 
HETATM   20  H4  UNL     1      26.080   1.088  55.070  1.00  0.00     0.314 HD
HETATM   21  H5  UNL     1      25.981   2.537  54.119  1.00  0.00     0.314 HD
ENDBRANCH  14  19
ENDBRANCH   1  13
BRANCH   6  22
HETATM   22  C12 UNL     1      20.399   1.602  50.056  1.00  0.00     0.136 C 
HETATM   23 CL1  UNL     1      19.427   0.458  51.015  1.00  0.00    -0.118 Cl
BRANCH  22  24
HETATM   24  C13 UNL     1      19.807   2.944  50.059  1.00  0.00     0.004 C 
BRANCH  24  25
HETATM   25  P1  UNL     1      18.686   3.336  51.214  1.00  0.00    -0.078 P 
HETATM   26  H17 UNL     1      19.070   3.457  52.621  1.00  0.00     0.066 HD
ENDBRANCH  24  25
ENDBRANCH  22  24
ENDBRANCH   6  22
TORSDOF 5
ENDMDL
MODEL 5
REMARK VINA RESULT:      -6.3      4.481      7.526
REMARK  5 active torsions:
REMARK  status: ('A' for Active; 'I' for Inactive)
REMARK    1  A    between atoms: C2_2  and  N1_3 
REMARK    2  A    between atoms: C6_7  and  C7_8 
REMARK    3  A    between atoms: C11_13  and  C12_14 
REMARK    4  A    between atoms: C12_14  and  C13_16 
REMARK    5  A    between atoms: C13_16  and  P1_17 
ROOT
HETATM    1  C7  UNL     1      23.903   3.908  49.801  1.00  0.00     0.103 A 
HETATM    2  C8  UNL     1      24.656   2.960  50.410  1.00  0.00     0.133 A 
HETATM    3  N2  UNL     1      23.831   1.977  51.097  1.00  0.00    -0.380 N 
HETATM    4  C9  UNL     1      24.120   1.408  52.430  1.00  0.00     0.123 C 
HETATM    5  C10 UNL     1      25.554   0.979  52.455  1.00  0.00     0.054 C 
HETATM    6  C11 UNL     1      26.538   1.997  52.921  1.00  0.00     0.162 C 
HETATM    7  O1  UNL     1      27.402   2.449  51.892  1.00  0.00    -0.299 OA
HETATM    8  S1  UNL     1      26.489   2.866  50.452  1.00  0.00     0.089 SA
HETATM    9  N3  UNL     1      27.126   4.145  49.611  1.00  0.00    -0.189 NA
HETATM   10  C14 UNL     1      25.991   4.923  49.115  1.00  0.00     0.244 A 
HETATM   11  N4  UNL     1      24.731   4.864  49.167  1.00  0.00    -0.238 NA
HETATM   12  H9  UNL     1      23.065   1.824  50.371  1.00  0.00     0.160 HD
ENDROOT
BRANCH   1  13
HETATM   13  C6  UNL     1      22.457   3.965  49.829  1.00  0.00     0.015 A 
HETATM   14  C2  UNL     1      21.944   5.118  50.629  1.00  0.00     0.199 A 
HETATM   15  C1  UNL     1      22.367   5.007  52.065  1.00  0.00     0.059 C 
HETATM   16  C3  UNL     1      20.499   5.099  50.514  1.00  0.00     0.019 A 
HETATM   17  C4  UNL     1      20.102   4.106  49.773  1.00  0.00    -0.001 A 
HETATM   18  C5  UNL     1      21.337   3.475  49.403  1.00  0.00     0.012 A 
BRANCH  14  19
HETATM   19  N1  UNL     1      22.438   6.376  50.103  1.00  0.00     0.096 N 
HETATM   20  H4  UNL     1      22.062   6.577  49.163  1.00  0.00     0.314 HD
HETATM   21  H5  UNL     1      23.466   6.463  50.177  1.00  0.00     0.314 HD
ENDBRANCH  14  19
ENDBRANCH   1  13
BRANCH   6  22
HETATM   22  C12 UNL     1      27.504   1.358  53.926  1.00  0.00     0.136 C 
HETATM   23 CL1  UNL     1      26.706   0.076  54.871  1.00  0.00    -0.118 Cl
BRANCH  22  24
HETATM   24  C13 UNL     1      28.744   0.879  53.308  1.00  0.00     0.004 C 
BRANCH  24  25
HETATM   25  P1  UNL     1      29.368  -0.585  53.767  1.00  0.00    -0.078 P 
HETATM   26  H17 UNL     1      29.557  -0.910  55.182  1.00  0.00     0.066 HD
ENDBRANCH  24  25
ENDBRANCH  22  24
ENDBRANCH   6  22
TORSDOF 5
ENDMDL
MODEL 6
REMARK VINA RESULT:      -6.2      4.007      5.456
REMARK  5 active torsions:
REMARK  status: ('A' for Active; 'I' for Inactive)
REMARK    1  A    between atoms: C2_2  and  N1_3 
REMARK    2  A    between atoms: C6_7  and  C7_8 
REMARK    3  A    between atoms: C11_13  and  C12_14 
REMARK    4  A    between atoms: C12_14  and  C13_16 
REMARK    5  A    between atoms: C13_16  and  P1_17 
ROOT
HETATM    1  C7  UNL     1      22.116   0.998  50.822  1.00  0.00     0.103 A 
HETATM    2  C8  UNL     1      23.005   1.991  50.580  1.00  0.00     0.133 A 
HETATM    3  N2  UNL     1      23.732   2.368  51.783  1.00  0.00    -0.380 N 
HETATM    4  C9  UNL     1      24.056   3.753  52.181  1.00  0.00     0.123 C 
HETATM    5  C10 UNL     1      24.632   4.459  50.994  1.00  0.00     0.054 C 
HETATM    6  C11 UNL     1      23.661   5.174  50.116  1.00  0.00     0.162 C 
HETATM    7  O1  UNL     1      23.523   4.579  48.838  1.00  0.00    -0.299 OA
HETATM    8  S1  UNL     1      23.298   2.843  48.980  1.00  0.00     0.089 SA
HETATM    9  N3  UNL     1      22.291   2.210  47.825  1.00  0.00    -0.189 NA
HETATM   10  C14 UNL     1      21.502   1.171  48.487  1.00  0.00     0.244 A 
HETATM   11  N4  UNL     1      21.405   0.673  49.642  1.00  0.00    -0.238 NA
HETATM   12  H9  UNL     1      23.937   1.406  52.196  1.00  0.00     0.160 HD
ENDROOT
BRANCH   1  13
HETATM   13  C6  UNL     1      21.890   0.381  52.112  1.00  0.00     0.015 A 
HETATM   14  C2  UNL     1      20.522   0.655  52.646  1.00  0.00     0.199 A 
HETATM   15  C1  UNL     1      20.315   2.127  52.864  1.00  0.00     0.059 C 
HETATM   16  C3  UNL     1      20.405  -0.072  53.895  1.00  0.00     0.019 A 
HETATM   17  C4  UNL     1      21.501  -0.721  54.162  1.00  0.00    -0.001 A 
HETATM   18  C5  UNL     1      22.341  -0.395  53.045  1.00  0.00     0.012 A 
BRANCH  14  19
HETATM   19  N1  UNL     1      19.502   0.181  51.731  1.00  0.00     0.096 N 
HETATM   20  H4  UNL     1      19.448   0.761  50.878  1.00  0.00     0.314 HD
HETATM   21  H5  UNL     1      18.592   0.022  52.195  1.00  0.00     0.314 HD
ENDBRANCH  14  19
ENDBRANCH   1  13
BRANCH   6  22
HETATM   22  C12 UNL     1      24.195   6.573  49.790  1.00  0.00     0.136 C 
HETATM   23 CL1  UNL     1      23.338   7.830  50.716  1.00  0.00    -0.118 Cl
BRANCH  22  24
HETATM   24  C13 UNL     1      25.649   6.686  49.947  1.00  0.00     0.004 C 
BRANCH  24  25
HETATM   25  P1  UNL     1      26.605   6.809  48.600  1.00  0.00    -0.078 P 
HETATM   26  H17 UNL     1      27.339   8.042  48.312  1.00  0.00     0.066 HD
ENDBRANCH  24  25
ENDBRANCH  22  24
ENDBRANCH   6  22
TORSDOF 5
ENDMDL
MODEL 7
REMARK VINA RESULT:      -5.9      5.415      8.250
REMARK  5 active torsions:
REMARK  status: ('A' for Active; 'I' for Inactive)
REMARK    1  A    between atoms: C2_2  and  N1_3 
REMARK    2  A    between atoms: C6_7  and  C7_8 
REMARK    3  A    between atoms: C11_13  and  C12_14 
REMARK    4  A    between atoms: C12_14  and  C13_16 
REMARK    5  A    between atoms: C13_16  and  P1_17 
ROOT
HETATM    1  C7  UNL     1      24.993   6.028  48.713  1.00  0.00     0.103 A 
HETATM    2  C8  UNL     1      24.971   4.767  49.206  1.00  0.00     0.133 A 
HETATM    3  N2  UNL     1      23.623   4.351  49.563  1.00  0.00    -0.380 N 
HETATM    4  C9  UNL     1      23.261   3.590  50.776  1.00  0.00     0.123 C 
HETATM    5  C10 UNL     1      24.202   2.432  50.900  1.00  0.00     0.054 C 
HETATM    6  C11 UNL     1      25.443   2.673  51.690  1.00  0.00     0.162 C 
HETATM    7  O1  UNL     1      26.618   2.663  50.898  1.00  0.00    -0.299 OA
HETATM    8  S1  UNL     1      26.412   3.659  49.467  1.00  0.00     0.089 SA
HETATM    9  N3  UNL     1      27.798   4.438  48.998  1.00  0.00    -0.189 NA
HETATM   10  C14 UNL     1      27.392   5.763  48.529  1.00  0.00     0.244 A 
HETATM   11  N4  UNL     1      26.319   6.414  48.402  1.00  0.00    -0.238 NA
HETATM   12  H9  UNL     1      23.076   4.726  48.727  1.00  0.00     0.160 HD
ENDROOT
BRANCH   1  13
HETATM   13  C6  UNL     1      23.834   6.881  48.562  1.00  0.00     0.015 A 
HETATM   14  C2  UNL     1      23.854   8.047  49.496  1.00  0.00     0.199 A 
HETATM   15  C1  UNL     1      23.832   7.590  50.927  1.00  0.00     0.059 C 
HETATM   16  C3  UNL     1      22.686   8.849  49.193  1.00  0.00     0.019 A 
HETATM   17  C4  UNL     1      21.993   8.320  48.227  1.00  0.00    -0.001 A 
HETATM   18  C5  UNL     1      22.748   7.142  47.906  1.00  0.00     0.012 A 
BRANCH  14  19
HETATM   19  N1  UNL     1      25.042   8.854  49.294  1.00  0.00     0.096 N 
HETATM   20  H4  UNL     1      25.279   9.411  50.130  1.00  0.00     0.314 HD
HETATM   21  H5  UNL     1      25.010   9.398  48.416  1.00  0.00     0.314 HD
ENDBRANCH  14  19
ENDBRANCH   1  13
BRANCH   6  22
HETATM   22  C12 UNL     1      25.671   1.507  52.660  1.00  0.00     0.136 C 
HETATM   23 CL1  UNL     1      24.130   0.778  53.175  1.00  0.00    -0.118 Cl
BRANCH  22  24
HETATM   24  C13 UNL     1      26.597   0.497  52.139  1.00  0.00     0.004 C 
BRANCH  24  25
HETATM   25  P1  UNL     1      27.651  -0.251  53.175  1.00  0.00    -0.078 P 
HETATM   26  H17 UNL     1      27.422  -1.629  53.611  1.00  0.00     0.066 HD
ENDBRANCH  24  25
ENDBRANCH  22  24
ENDBRANCH   6  22
TORSDOF 5
ENDMDL
MODEL 8
REMARK VINA RESULT:      -5.9      2.987      3.716
REMARK  5 active torsions:
REMARK  status: ('A' for Active; 'I' for Inactive)
REMARK    1  A    between atoms: C2_2  and  N1_3 
REMARK    2  A    between atoms: C6_7  and  C7_8 
REMARK    3  A    between atoms: C11_13  and  C12_14 
REMARK    4  A    between atoms: C12_14  and  C13_16 
REMARK    5  A    between atoms: C13_16  and  P1_17 
ROOT
HETATM    1  C7  UNL     1      23.599   2.350  52.708  1.00  0.00     0.103 A 
HETATM    2  C8  UNL     1      22.479   2.335  51.946  1.00  0.00     0.133 A 
HETATM    3  N2  UNL     1      22.099   0.981  51.574  1.00  0.00    -0.380 N 
HETATM    4  C9  UNL     1      21.612   0.570  50.241  1.00  0.00     0.123 C 
HETATM    5  C10 UNL     1      20.550   1.535  49.814  1.00  0.00     0.054 C 
HETATM    6  C11 UNL     1      21.010   2.720  49.036  1.00  0.00     0.162 C 
HETATM    7  O1  UNL     1      20.873   3.940  49.745  1.00  0.00    -0.299 OA
HETATM    8  S1  UNL     1      21.517   3.790  51.371  1.00  0.00     0.089 SA
HETATM    9  N3  UNL     1      22.228   5.178  51.932  1.00  0.00    -0.189 NA
HETATM   10  C14 UNL     1      23.398   4.762  52.706  1.00  0.00     0.244 A 
HETATM   11  N4  UNL     1      23.961   3.680  53.030  1.00  0.00    -0.238 NA
HETATM   12  H9  UNL     1      22.255   0.473  52.500  1.00  0.00     0.160 HD
ENDROOT
BRANCH   1  13
HETATM   13  C6  UNL     1      24.349   1.178  53.105  1.00  0.00     0.015 A 
HETATM   14  C2  UNL     1      25.826   1.378  52.996  1.00  0.00     0.199 A 
HETATM   15  C1  UNL     1      26.229   1.649  51.575  1.00  0.00     0.059 C 
HETATM   16  C3  UNL     1      26.452   0.167  53.488  1.00  0.00     0.019 A 
HETATM   17  C4  UNL     1      25.559  -0.704  53.859  1.00  0.00    -0.001 A 
HETATM   18  C5  UNL     1      24.324  -0.020  53.596  1.00  0.00     0.012 A 
BRANCH  14  19
HETATM   19  N1  UNL     1      26.260   2.494  53.815  1.00  0.00     0.096 N 
HETATM   20  H4  UNL     1      26.785   2.183  54.648  1.00  0.00     0.314 HD
HETATM   21  H5  UNL     1      25.497   3.161  54.018  1.00  0.00     0.314 HD
ENDBRANCH  14  19
ENDBRANCH   1  13
BRANCH   6  22
HETATM   22  C12 UNL     1      20.100   2.924  47.819  1.00  0.00     0.136 C 
HETATM   23 CL1  UNL     1      18.382   2.955  48.289  1.00  0.00    -0.118 Cl
BRANCH  22  24
HETATM   24  C13 UNL     1      20.461   4.100  47.021  1.00  0.00     0.004 C 
BRANCH  24  25
HETATM   25  P1  UNL     1      21.656   3.972  45.881  1.00  0.00    -0.078 P 
HETATM   26  H17 UNL     1      22.447   2.747  45.758  1.00  0.00     0.066 HD
ENDBRANCH  24  25
ENDBRANCH  22  24
ENDBRANCH   6  22
TORSDOF 5
ENDMDL
MODEL 9
REMARK VINA RESULT:      -5.9     10.911     12.247
REMARK  5 active torsions:
REMARK  status: ('A' for Active; 'I' for Inactive)
REMARK    1  A    between atoms: C2_2  and  N1_3 
REMARK    2  A    between atoms: C6_7  and  C7_8 
REMARK    3  A    between atoms: C11_13  and  C12_14 
REMARK    4  A    between atoms: C12_14  and  C13_16 
REMARK    5  A    between atoms: C13_16  and  P1_17 
ROOT
HETATM    1  C7  UNL     1      33.270   6.548  46.485  1.00  0.00     0.103 A 
HETATM    2  C8  UNL     1      32.745   7.545  47.237  1.00  0.00     0.133 A 
HETATM    3  N2  UNL     1      32.792   7.231  48.657  1.00  0.00    -0.380 N 
HETATM    4  C9  UNL     1      31.709   7.504  49.624  1.00  0.00     0.123 C 
HETATM    5  C10 UNL     1      31.251   8.915  49.428  1.00  0.00     0.054 C 
HETATM    6  C11 UNL     1      30.136   9.118  48.460  1.00  0.00     0.162 C 
HETATM    7  O1  UNL     1      30.534   9.806  47.287  1.00  0.00    -0.299 OA
HETATM    8  S1  UNL     1      32.008   9.113  46.630  1.00  0.00     0.089 SA
HETATM    9  N3  UNL     1      32.074   9.149  44.973  1.00  0.00    -0.189 NA
HETATM   10  C14 UNL     1      32.708   7.898  44.556  1.00  0.00     0.244 A 
HETATM   11  N4  UNL     1      33.184   6.868  45.110  1.00  0.00    -0.238 NA
HETATM   12  H9  UNL     1      33.771   6.815  48.732  1.00  0.00     0.160 HD
ENDROOT
BRANCH   1  13
HETATM   13  C6  UNL     1      33.805   5.309  47.007  1.00  0.00     0.015 A 
HETATM   14  C2  UNL     1      32.953   4.129  46.668  1.00  0.00     0.199 A 
HETATM   15  C1  UNL     1      31.586   4.261  47.275  1.00  0.00     0.059 C 
HETATM   16  C3  UNL     1      33.634   2.957  47.182  1.00  0.00     0.019 A 
HETATM   17  C4  UNL     1      34.748   3.283  47.770  1.00  0.00    -0.001 A 
HETATM   18  C5  UNL     1      34.775   4.711  47.622  1.00  0.00     0.012 A 
BRANCH  14  19
HETATM   19  N1  UNL     1      32.803   3.991  45.232  1.00  0.00     0.096 N 
HETATM   20  H4  UNL     1      31.993   4.521  44.875  1.00  0.00     0.314 HD
HETATM   21  H5  UNL     1      32.838   3.006  44.920  1.00  0.00     0.314 HD
ENDBRANCH  14  19
ENDBRANCH   1  13
BRANCH   6  22
HETATM   22  C12 UNL     1      29.086  10.055  49.070  1.00  0.00     0.136 C 
HETATM   23 CL1  UNL     1      28.534  11.271  47.891  1.00  0.00    -0.118 Cl
BRANCH  22  24
HETATM   24  C13 UNL     1      27.958   9.340  49.674  1.00  0.00     0.004 C 
BRANCH  24  25
HETATM   25  P1  UNL     1      27.293   8.049  48.876  1.00  0.00    -0.078 P 
HETATM   26  H17 UNL     1      27.898   6.720  48.964  1.00  0.00     0.066 HD
ENDBRANCH  24  25
ENDBRANCH  22  24
ENDBRANCH   6  22
TORSDOF 5
ENDMDL
