MODEL 1
REMARK VINA RESULT:      -6.7      0.000      0.000
REMARK  7 active torsions:
REMARK  status: ('A' for Active; 'I' for Inactive)
REMARK    1  A    between atoms: C2_2  and  N3_14 
REMARK    2  A    between atoms: C3_3  and  C4_4 
REMARK    3  A    between atoms: C4_4  and  C5_5 
REMARK    4  A    between atoms: N1_6  and  C6_7 
REMARK       I    between atoms: N3_14  and  C11_15 
REMARK    5  A    between atoms: C11_15  and  C12_17 
REMARK    6  A    between atoms: C13_18  and  C14_19 
REMARK    7  A    between atoms: C14_19  and  N4_20 
ROOT
HETATM    1  C6  UNL     1      27.917   0.549  53.165  1.00  0.00     0.051 A 
HETATM    2  C7  UNL     1      27.668   1.750  52.713  1.00  0.00     0.050 A 
HETATM    3  C8  UNL     1      26.807   2.357  51.714  1.00  0.00     0.097 C 
HETATM    4  N2  UNL     1      26.122   2.858  50.897  1.00  0.00    -0.192 NA
HETATM    5  C9  UNL     1      28.623   2.383  53.607  1.00  0.00     0.095 A 
HETATM    6  C10 UNL     1      28.907   1.027  54.133  1.00  0.00     0.225 A 
HETATM    7  F1  UNL     1      30.201   0.567  53.876  1.00  0.00    -0.242 F 
ENDROOT
BRANCH   1   8
HETATM    8  N1  UNL     1      27.343  -0.661  52.752  1.00  0.00    -0.391 NA
HETATM    9  C5  UNL     1      26.206  -1.135  53.068  1.00  0.00     0.260 C 
BRANCH   9  10
HETATM   10  C4  UNL     1      25.205  -0.495  53.967  1.00  0.00     0.075 C 
BRANCH  10  11
HETATM   11  C3  UNL     1      23.834  -0.572  53.433  1.00  0.00     0.003 C 
HETATM   12  C2  UNL     1      22.932   0.230  52.904  1.00  0.00     0.005 C 
HETATM   13  C1  UNL     1      23.160   1.679  52.693  1.00  0.00     0.068 C 
BRANCH  12  14
HETATM   14  N3  UNL     1      21.677  -0.304  52.513  1.00  0.00    -0.328 N 
HETATM   15  C11 UNL     1      20.651  -0.284  53.489  1.00  0.00     0.245 C 
HETATM   16  O1  UNL     1      21.006   0.215  54.586  1.00  0.00    -0.268 OA
HETATM   17  H11 UNL     1      21.434  -0.712  51.572  1.00  0.00     0.169 HD
BRANCH  15  18
HETATM   18  C12 UNL     1      19.290  -0.774  53.314  1.00  0.00     0.072 C 
HETATM   19  C13 UNL     1      18.410  -0.381  52.409  1.00  0.00     0.008 C 
BRANCH  19  20
HETATM   20  C14 UNL     1      17.025  -0.957  52.316  1.00  0.00     0.299 C 
BRANCH  20  21
HETATM   21  N4  UNL     1      16.302  -0.293  51.274  1.00  0.00     0.083 N 
HETATM   22  C15 UNL     1      15.054  -0.946  51.024  1.00  0.00     0.309 C 
HETATM   23  C16 UNL     1      17.108  -0.122  50.081  1.00  0.00     0.309 C 
ENDBRANCH  20  21
ENDBRANCH  19  20
ENDBRANCH  15  18
ENDBRANCH  12  14
ENDBRANCH  10  11
ENDBRANCH   9  10
ENDBRANCH   1   8
TORSDOF 7
ENDMDL
MODEL 2
REMARK VINA RESULT:      -6.6      4.275      9.027
REMARK  7 active torsions:
REMARK  status: ('A' for Active; 'I' for Inactive)
REMARK    1  A    between atoms: C2_2  and  N3_14 
REMARK    2  A    between atoms: C3_3  and  C4_4 
REMARK    3  A    between atoms: C4_4  and  C5_5 
REMARK    4  A    between atoms: N1_6  and  C6_7 
REMARK       I    between atoms: N3_14  and  C11_15 
REMARK    5  A    between atoms: C11_15  and  C12_17 
REMARK    6  A    between atoms: C13_18  and  C14_19 
REMARK    7  A    between atoms: C14_19  and  N4_20 
ROOT
HETATM    1  C6  UNL     1      22.495  -0.452  53.517  1.00  0.00     0.051 A 
HETATM    2  C7  UNL     1      23.506  -0.818  54.261  1.00  0.00     0.050 A 
HETATM    3  C8  UNL     1      24.952  -0.876  54.144  1.00  0.00     0.097 C 
HETATM    4  N2  UNL     1      26.125  -0.939  54.053  1.00  0.00    -0.192 NA
HETATM    5  C9  UNL     1      22.661  -1.203  55.379  1.00  0.00     0.095 A 
HETATM    6  C10 UNL     1      21.508  -0.782  54.547  1.00  0.00     0.225 A 
HETATM    7  F1  UNL     1      20.651  -1.823  54.180  1.00  0.00    -0.242 F 
ENDROOT
BRANCH   1   8
HETATM    8  N1  UNL     1      22.529   0.057  52.211  1.00  0.00    -0.391 NA
HETATM    9  C5  UNL     1      22.995   1.174  51.820  1.00  0.00     0.260 C 
BRANCH   9  10
HETATM   10  C4  UNL     1      23.625   2.215  52.680  1.00  0.00     0.075 C 
BRANCH  10  11
HETATM   11  C3  UNL     1      24.726   2.919  52.001  1.00  0.00     0.003 C 
HETATM   12  C2  UNL     1      25.908   2.645  51.486  1.00  0.00     0.005 C 
HETATM   13  C1  UNL     1      26.495   1.284  51.484  1.00  0.00     0.068 C 
BRANCH  12  14
HETATM   14  N3  UNL     1      26.667   3.692  50.901  1.00  0.00    -0.328 N 
HETATM   15  C11 UNL     1      26.270   4.112  49.608  1.00  0.00     0.245 C 
HETATM   16  O1  UNL     1      25.282   3.483  49.152  1.00  0.00    -0.268 OA
HETATM   17  H11 UNL     1      27.491   4.186  51.333  1.00  0.00     0.169 HD
BRANCH  15  18
HETATM   18  C12 UNL     1      26.896   5.163  48.817  1.00  0.00     0.072 C 
HETATM   19  C13 UNL     1      28.185   5.304  48.554  1.00  0.00     0.008 C 
BRANCH  19  20
HETATM   20  C14 UNL     1      28.727   6.431  47.722  1.00  0.00     0.299 C 
BRANCH  20  21
HETATM   21  N4  UNL     1      29.236   7.456  48.582  1.00  0.00     0.083 N 
HETATM   22  C15 UNL     1      28.247   8.464  48.813  1.00  0.00     0.309 C 
HETATM   23  C16 UNL     1      30.495   7.990  48.101  1.00  0.00     0.309 C 
ENDBRANCH  20  21
ENDBRANCH  19  20
ENDBRANCH  15  18
ENDBRANCH  12  14
ENDBRANCH  10  11
ENDBRANCH   9  10
ENDBRANCH   1   8
TORSDOF 7
ENDMDL
MODEL 3
REMARK VINA RESULT:      -6.6      3.662      5.626
REMARK  7 active torsions:
REMARK  status: ('A' for Active; 'I' for Inactive)
REMARK    1  A    between atoms: C2_2  and  N3_14 
REMARK    2  A    between atoms: C3_3  and  C4_4 
REMARK    3  A    between atoms: C4_4  and  C5_5 
REMARK    4  A    between atoms: N1_6  and  C6_7 
REMARK       I    between atoms: N3_14  and  C11_15 
REMARK    5  A    between atoms: C11_15  and  C12_17 
REMARK    6  A    between atoms: C13_18  and  C14_19 
REMARK    7  A    between atoms: C14_19  and  N4_20 
ROOT
HETATM    1  C6  UNL     1      28.183   0.292  54.410  1.00  0.00     0.051 A 
HETATM    2  C7  UNL     1      28.940  -0.579  53.795  1.00  0.00     0.050 A 
HETATM    3  C8  UNL     1      28.935  -2.008  53.543  1.00  0.00     0.097 C 
HETATM    4  N2  UNL     1      28.946  -3.170  53.345  1.00  0.00    -0.192 NA
HETATM    5  C9  UNL     1      29.914   0.419  53.387  1.00  0.00     0.095 A 
HETATM    6  C10 UNL     1      29.058   1.417  54.073  1.00  0.00     0.225 A 
HETATM    7  F1  UNL     1      29.648   2.013  55.191  1.00  0.00    -0.242 F 
ENDROOT
BRANCH   1   8
HETATM    8  N1  UNL     1      26.985   0.055  55.097  1.00  0.00    -0.391 NA
HETATM    9  C5  UNL     1      25.860  -0.290  54.613  1.00  0.00     0.260 C 
BRANCH   9  10
HETATM   10  C4  UNL     1      25.558  -0.528  53.174  1.00  0.00     0.075 C 
BRANCH  10  11
HETATM   11  C3  UNL     1      24.767   0.561  52.574  1.00  0.00     0.003 C 
HETATM   12  C2  UNL     1      23.536   1.031  52.620  1.00  0.00     0.005 C 
HETATM   13  C1  UNL     1      22.472   0.435  53.462  1.00  0.00     0.068 C 
BRANCH  12  14
HETATM   14  N3  UNL     1      23.199   2.162  51.831  1.00  0.00    -0.328 N 
HETATM   15  C11 UNL     1      23.588   3.425  52.341  1.00  0.00     0.245 C 
HETATM   16  O1  UNL     1      24.189   3.362  53.443  1.00  0.00    -0.268 OA
HETATM   17  H11 UNL     1      22.692   2.154  50.908  1.00  0.00     0.169 HD
BRANCH  15  18
HETATM   18  C12 UNL     1      23.351   4.715  51.709  1.00  0.00     0.072 C 
HETATM   19  C13 UNL     1      22.194   5.345  51.588  1.00  0.00     0.008 C 
BRANCH  19  20
HETATM   20  C14 UNL     1      22.061   6.681  50.914  1.00  0.00     0.299 C 
BRANCH  20  21
HETATM   21  N4  UNL     1      23.209   6.916  50.091  1.00  0.00     0.083 N 
HETATM   22  C15 UNL     1      23.905   8.093  50.512  1.00  0.00     0.309 C 
HETATM   23  C16 UNL     1      22.870   6.925  48.681  1.00  0.00     0.309 C 
ENDBRANCH  20  21
ENDBRANCH  19  20
ENDBRANCH  15  18
ENDBRANCH  12  14
ENDBRANCH  10  11
ENDBRANCH   9  10
ENDBRANCH   1   8
TORSDOF 7
ENDMDL
MODEL 4
REMARK VINA RESULT:      -6.5      4.614      7.398
REMARK  7 active torsions:
REMARK  status: ('A' for Active; 'I' for Inactive)
REMARK    1  A    between atoms: C2_2  and  N3_14 
REMARK    2  A    between atoms: C3_3  and  C4_4 
REMARK    3  A    between atoms: C4_4  and  C5_5 
REMARK    4  A    between atoms: N1_6  and  C6_7 
REMARK       I    between atoms: N3_14  and  C11_15 
REMARK    5  A    between atoms: C11_15  and  C12_17 
REMARK    6  A    between atoms: C13_18  and  C14_19 
REMARK    7  A    between atoms: C14_19  and  N4_20 
ROOT
HETATM    1  C6  UNL     1      28.281   0.476  54.284  1.00  0.00     0.051 A 
HETATM    2  C7  UNL     1      28.995  -0.477  53.744  1.00  0.00     0.050 A 
HETATM    3  C8  UNL     1      28.886  -1.910  53.543  1.00  0.00     0.097 C 
HETATM    4  N2  UNL     1      28.812  -3.076  53.387  1.00  0.00    -0.192 NA
HETATM    5  C9  UNL     1      30.069   0.423  53.358  1.00  0.00     0.095 A 
HETATM    6  C10 UNL     1      29.262   1.513  53.959  1.00  0.00     0.225 A 
HETATM    7  F1  UNL     1      29.839   2.103  55.087  1.00  0.00    -0.242 F 
ENDROOT
BRANCH   1   8
HETATM    8  N1  UNL     1      27.032   0.363  54.910  1.00  0.00    -0.391 NA
HETATM    9  C5  UNL     1      25.932  -0.018  54.397  1.00  0.00     0.260 C 
BRANCH   9  10
HETATM   10  C4  UNL     1      25.719  -0.441  52.985  1.00  0.00     0.075 C 
BRANCH  10  11
HETATM   11  C3  UNL     1      25.565   0.702  52.068  1.00  0.00     0.003 C 
HETATM   12  C2  UNL     1      24.803   1.770  51.939  1.00  0.00     0.005 C 
HETATM   13  C1  UNL     1      23.718   2.113  52.888  1.00  0.00     0.068 C 
BRANCH  12  14
HETATM   14  N3  UNL     1      25.021   2.644  50.842  1.00  0.00    -0.328 N 
HETATM   15  C11 UNL     1      26.347   3.109  50.660  1.00  0.00     0.245 C 
HETATM   16  O1  UNL     1      27.158   2.672  51.514  1.00  0.00    -0.268 OA
HETATM   17  H11 UNL     1      24.298   2.979  50.152  1.00  0.00     0.169 HD
BRANCH  15  18
HETATM   18  C12 UNL     1      26.804   4.008  49.608  1.00  0.00     0.072 C 
HETATM   19  C13 UNL     1      26.444   5.267  49.421  1.00  0.00     0.008 C 
BRANCH  19  20
HETATM   20  C14 UNL     1      26.980   6.109  48.299  1.00  0.00     0.299 C 
BRANCH  20  21
HETATM   21  N4  UNL     1      27.098   7.467  48.737  1.00  0.00     0.083 N 
HETATM   22  C15 UNL     1      26.071   8.278  48.159  1.00  0.00     0.309 C 
HETATM   23  C16 UNL     1      28.432   7.992  48.520  1.00  0.00     0.309 C 
ENDBRANCH  20  21
ENDBRANCH  19  20
ENDBRANCH  15  18
ENDBRANCH  12  14
ENDBRANCH  10  11
ENDBRANCH   9  10
ENDBRANCH   1   8
TORSDOF 7
ENDMDL
MODEL 5
REMARK VINA RESULT:      -6.4      1.839      2.665
REMARK  7 active torsions:
REMARK  status: ('A' for Active; 'I' for Inactive)
REMARK    1  A    between atoms: C2_2  and  N3_14 
REMARK    2  A    between atoms: C3_3  and  C4_4 
REMARK    3  A    between atoms: C4_4  and  C5_5 
REMARK    4  A    between atoms: N1_6  and  C6_7 
REMARK       I    between atoms: N3_14  and  C11_15 
REMARK    5  A    between atoms: C11_15  and  C12_17 
REMARK    6  A    between atoms: C13_18  and  C14_19 
REMARK    7  A    between atoms: C14_19  and  N4_20 
ROOT
HETATM    1  C6  UNL     1      28.168   0.386  54.169  1.00  0.00     0.051 A 
HETATM    2  C7  UNL     1      28.926  -0.567  53.693  1.00  0.00     0.050 A 
HETATM    3  C8  UNL     1      28.841  -2.003  53.501  1.00  0.00     0.097 C 
HETATM    4  N2  UNL     1      28.786  -3.170  53.352  1.00  0.00    -0.192 NA
HETATM    5  C9  UNL     1      30.020   0.337  53.378  1.00  0.00     0.095 A 
HETATM    6  C10 UNL     1      29.165   1.427  53.906  1.00  0.00     0.225 A 
HETATM    7  F1  UNL     1      29.652   2.033  55.067  1.00  0.00    -0.242 F 
ENDROOT
BRANCH   1   8
HETATM    8  N1  UNL     1      26.877   0.271  54.702  1.00  0.00    -0.391 NA
HETATM    9  C5  UNL     1      25.767   0.345  54.085  1.00  0.00     0.260 C 
BRANCH   9  10
HETATM   10  C4  UNL     1      25.585   0.572  52.624  1.00  0.00     0.075 C 
BRANCH  10  11
HETATM   11  C3  UNL     1      24.197   0.920  52.274  1.00  0.00     0.003 C 
HETATM   12  C2  UNL     1      23.396   1.965  52.327  1.00  0.00     0.005 C 
HETATM   13  C1  UNL     1      23.815   3.282  52.863  1.00  0.00     0.068 C 
BRANCH  12  14
HETATM   14  N3  UNL     1      22.064   1.840  51.852  1.00  0.00    -0.328 N 
HETATM   15  C11 UNL     1      21.148   1.184  52.710  1.00  0.00     0.245 C 
HETATM   16  O1  UNL     1      21.657   0.798  53.793  1.00  0.00    -0.268 OA
HETATM   17  H11 UNL     1      21.692   2.186  50.929  1.00  0.00     0.169 HD
BRANCH  15  18
HETATM   18  C12 UNL     1      19.738   0.941  52.436  1.00  0.00     0.072 C 
HETATM   19  C13 UNL     1      19.224  -0.025  51.694  1.00  0.00     0.008 C 
BRANCH  19  20
HETATM   20  C14 UNL     1      17.746  -0.186  51.476  1.00  0.00     0.299 C 
BRANCH  20  21
HETATM   21  N4  UNL     1      17.113  -0.509  52.719  1.00  0.00     0.083 N 
HETATM   22  C15 UNL     1      17.488  -1.819  53.155  1.00  0.00     0.309 C 
HETATM   23  C16 UNL     1      15.678  -0.312  52.663  1.00  0.00     0.309 C 
ENDBRANCH  20  21
ENDBRANCH  19  20
ENDBRANCH  15  18
ENDBRANCH  12  14
ENDBRANCH  10  11
ENDBRANCH   9  10
ENDBRANCH   1   8
TORSDOF 7
ENDMDL
MODEL 6
REMARK VINA RESULT:      -6.4      1.612      2.586
REMARK  7 active torsions:
REMARK  status: ('A' for Active; 'I' for Inactive)
REMARK    1  A    between atoms: C2_2  and  N3_14 
REMARK    2  A    between atoms: C3_3  and  C4_4 
REMARK    3  A    between atoms: C4_4  and  C5_5 
REMARK    4  A    between atoms: N1_6  and  C6_7 
REMARK       I    between atoms: N3_14  and  C11_15 
REMARK    5  A    between atoms: C11_15  and  C12_17 
REMARK    6  A    between atoms: C13_18  and  C14_19 
REMARK    7  A    between atoms: C14_19  and  N4_20 
ROOT
HETATM    1  C6  UNL     1      27.482   1.215  52.518  1.00  0.00     0.051 A 
HETATM    2  C7  UNL     1      27.877   0.095  53.066  1.00  0.00     0.050 A 
HETATM    3  C8  UNL     1      27.555  -1.316  52.962  1.00  0.00     0.097 C 
HETATM    4  N2  UNL     1      27.292  -2.463  52.893  1.00  0.00    -0.192 NA
HETATM    5  C9  UNL     1      28.851   0.752  53.921  1.00  0.00     0.095 A 
HETATM    6  C10 UNL     1      28.417   2.026  53.300  1.00  0.00     0.225 A 
HETATM    7  F1  UNL     1      27.784   2.910  54.178  1.00  0.00    -0.242 F 
ENDROOT
BRANCH   1   8
HETATM    8  N1  UNL     1      26.495   1.390  51.538  1.00  0.00    -0.391 NA
HETATM    9  C5  UNL     1      25.282   1.735  51.703  1.00  0.00     0.260 C 
BRANCH   9  10
HETATM   10  C4  UNL     1      24.623   2.040  53.003  1.00  0.00     0.075 C 
BRANCH  10  11
HETATM   11  C3  UNL     1      23.202   1.651  53.022  1.00  0.00     0.003 C 
HETATM   12  C2  UNL     1      22.466   0.606  53.345  1.00  0.00     0.005 C 
HETATM   13  C1  UNL     1      23.038  -0.658  53.865  1.00  0.00     0.068 C 
BRANCH  12  14
HETATM   14  N3  UNL     1      21.057   0.680  53.193  1.00  0.00    -0.328 N 
HETATM   15  C11 UNL     1      20.545   0.382  51.906  1.00  0.00     0.245 C 
HETATM   16  O1  UNL     1      21.431   0.088  51.065  1.00  0.00    -0.268 OA
HETATM   17  H11 UNL     1      20.357   0.933  53.939  1.00  0.00     0.169 HD
BRANCH  15  18
HETATM   18  C12 UNL     1      19.141   0.392  51.517  1.00  0.00     0.072 C 
HETATM   19  C13 UNL     1      18.219  -0.501  51.833  1.00  0.00     0.008 C 
BRANCH  19  20
HETATM   20  C14 UNL     1      16.791  -0.394  51.377  1.00  0.00     0.299 C 
BRANCH  20  21
HETATM   21  N4  UNL     1      15.918  -0.746  52.456  1.00  0.00     0.083 N 
HETATM   22  C15 UNL     1      15.199  -1.946  52.158  1.00  0.00     0.309 C 
HETATM   23  C16 UNL     1      15.059   0.357  52.839  1.00  0.00     0.309 C 
ENDBRANCH  20  21
ENDBRANCH  19  20
ENDBRANCH  15  18
ENDBRANCH  12  14
ENDBRANCH  10  11
ENDBRANCH   9  10
ENDBRANCH   1   8
TORSDOF 7
ENDMDL
MODEL 7
REMARK VINA RESULT:      -6.3      1.616      2.520
REMARK  7 active torsions:
REMARK  status: ('A' for Active; 'I' for Inactive)
REMARK    1  A    between atoms: C2_2  and  N3_14 
REMARK    2  A    between atoms: C3_3  and  C4_4 
REMARK    3  A    between atoms: C4_4  and  C5_5 
REMARK    4  A    between atoms: N1_6  and  C6_7 
REMARK       I    between atoms: N3_14  and  C11_15 
REMARK    5  A    between atoms: C11_15  and  C12_17 
REMARK    6  A    between atoms: C13_18  and  C14_19 
REMARK    7  A    between atoms: C14_19  and  N4_20 
ROOT
HETATM    1  C6  UNL     1      26.748   0.513  52.394  1.00  0.00     0.051 A 
HETATM    2  C7  UNL     1      27.667   0.558  53.323  1.00  0.00     0.050 A 
HETATM    3  C8  UNL     1      28.527   1.560  53.926  1.00  0.00     0.097 C 
HETATM    4  N2  UNL     1      29.239   2.364  54.412  1.00  0.00    -0.192 NA
HETATM    5  C9  UNL     1      27.573  -0.863  53.613  1.00  0.00     0.095 A 
HETATM    6  C10 UNL     1      26.523  -0.924  52.568  1.00  0.00     0.225 A 
HETATM    7  F1  UNL     1      26.869  -1.678  51.444  1.00  0.00    -0.242 F 
ENDROOT
BRANCH   1   8
HETATM    8  N1  UNL     1      26.268   1.570  51.609  1.00  0.00    -0.391 NA
HETATM    9  C5  UNL     1      25.245   2.296  51.815  1.00  0.00     0.260 C 
BRANCH   9  10
HETATM   10  C4  UNL     1      24.306   2.186  52.966  1.00  0.00     0.075 C 
BRANCH  10  11
HETATM   11  C3  UNL     1      23.182   1.274  52.694  1.00  0.00     0.003 C 
HETATM   12  C2  UNL     1      22.720   0.117  53.126  1.00  0.00     0.005 C 
HETATM   13  C1  UNL     1      23.374  -0.668  54.200  1.00  0.00     0.068 C 
BRANCH  12  14
HETATM   14  N3  UNL     1      21.540  -0.416  52.544  1.00  0.00    -0.328 N 
HETATM   15  C11 UNL     1      20.319  -0.085  53.181  1.00  0.00     0.245 C 
HETATM   16  O1  UNL     1      20.458   0.648  54.192  1.00  0.00    -0.268 OA
HETATM   17  H11 UNL     1      21.483  -1.029  51.689  1.00  0.00     0.169 HD
BRANCH  15  18
HETATM   18  C12 UNL     1      18.990  -0.514  52.765  1.00  0.00     0.072 C 
HETATM   19  C13 UNL     1      18.171   0.114  51.938  1.00  0.00     0.008 C 
BRANCH  19  20
HETATM   20  C14 UNL     1      16.815  -0.420  51.574  1.00  0.00     0.299 C 
BRANCH  20  21
HETATM   21  N4  UNL     1      16.681  -0.451  50.149  1.00  0.00     0.083 N 
HETATM   22  C15 UNL     1      16.818   0.861  49.597  1.00  0.00     0.309 C 
HETATM   23  C16 UNL     1      15.466  -1.123  49.734  1.00  0.00     0.309 C 
ENDBRANCH  20  21
ENDBRANCH  19  20
ENDBRANCH  15  18
ENDBRANCH  12  14
ENDBRANCH  10  11
ENDBRANCH   9  10
ENDBRANCH   1   8
TORSDOF 7
ENDMDL
MODEL 8
REMARK VINA RESULT:      -6.2      4.824      9.598
REMARK  7 active torsions:
REMARK  status: ('A' for Active; 'I' for Inactive)
REMARK    1  A    between atoms: C2_2  and  N3_14 
REMARK    2  A    between atoms: C3_3  and  C4_4 
REMARK    3  A    between atoms: C4_4  and  C5_5 
REMARK    4  A    between atoms: N1_6  and  C6_7 
REMARK       I    between atoms: N3_14  and  C11_15 
REMARK    5  A    between atoms: C11_15  and  C12_17 
REMARK    6  A    between atoms: C13_18  and  C14_19 
REMARK    7  A    between atoms: C14_19  and  N4_20 
ROOT
HETATM    1  C6  UNL     1      22.657   0.893  53.018  1.00  0.00     0.051 A 
HETATM    2  C7  UNL     1      22.057  -0.106  53.611  1.00  0.00     0.050 A 
HETATM    3  C8  UNL     1      22.346  -1.043  54.680  1.00  0.00     0.097 C 
HETATM    4  N2  UNL     1      22.578  -1.816  55.539  1.00  0.00    -0.192 NA
HETATM    5  C9  UNL     1      20.866   0.001  52.784  1.00  0.00     0.095 A 
HETATM    6  C10 UNL     1      21.534   1.142  52.112  1.00  0.00     0.225 A 
HETATM    7  F1  UNL     1      21.847   0.917  50.768  1.00  0.00    -0.242 F 
ENDROOT
BRANCH   1   8
HETATM    8  N1  UNL     1      23.932   1.411  53.288  1.00  0.00    -0.391 NA
HETATM    9  C5  UNL     1      24.391   2.556  52.981  1.00  0.00     0.260 C 
BRANCH   9  10
HETATM   10  C4  UNL     1      23.661   3.631  52.251  1.00  0.00     0.075 C 
BRANCH  10  11
HETATM   11  C3  UNL     1      24.457   4.213  51.156  1.00  0.00     0.003 C 
HETATM   12  C2  UNL     1      24.546   4.127  49.844  1.00  0.00     0.005 C 
HETATM   13  C1  UNL     1      23.681   3.242  49.029  1.00  0.00     0.068 C 
BRANCH  12  14
HETATM   14  N3  UNL     1      25.512   4.915  49.164  1.00  0.00    -0.328 N 
HETATM   15  C11 UNL     1      26.834   4.408  49.139  1.00  0.00     0.245 C 
HETATM   16  O1  UNL     1      26.967   3.310  49.736  1.00  0.00    -0.268 OA
HETATM   17  H11 UNL     1      25.342   5.834  48.678  1.00  0.00     0.169 HD
BRANCH  15  18
HETATM   18  C12 UNL     1      27.983   5.040  48.505  1.00  0.00     0.072 C 
HETATM   19  C13 UNL     1      28.124   6.319  48.201  1.00  0.00     0.008 C 
BRANCH  19  20
HETATM   20  C14 UNL     1      29.358   6.869  47.544  1.00  0.00     0.299 C 
BRANCH  20  21
HETATM   21  N4  UNL     1      29.693   8.129  48.136  1.00  0.00     0.083 N 
HETATM   22  C15 UNL     1      28.539   8.737  48.724  1.00  0.00     0.309 C 
HETATM   23  C16 UNL     1      30.387   8.997  47.205  1.00  0.00     0.309 C 
ENDBRANCH  20  21
ENDBRANCH  19  20
ENDBRANCH  15  18
ENDBRANCH  12  14
ENDBRANCH  10  11
ENDBRANCH   9  10
ENDBRANCH   1   8
TORSDOF 7
ENDMDL
MODEL 9
REMARK VINA RESULT:      -6.2      2.666      3.385
REMARK  7 active torsions:
REMARK  status: ('A' for Active; 'I' for Inactive)
REMARK    1  A    between atoms: C2_2  and  N3_14 
REMARK    2  A    between atoms: C3_3  and  C4_4 
REMARK    3  A    between atoms: C4_4  and  C5_5 
REMARK    4  A    between atoms: N1_6  and  C6_7 
REMARK       I    between atoms: N3_14  and  C11_15 
REMARK    5  A    between atoms: C11_15  and  C12_17 
REMARK    6  A    between atoms: C13_18  and  C14_19 
REMARK    7  A    between atoms: C14_19  and  N4_20 
ROOT
HETATM    1  C6  UNL     1      27.976   0.517  53.239  1.00  0.00     0.051 A 
HETATM    2  C7  UNL     1      27.673   1.699  52.768  1.00  0.00     0.050 A 
HETATM    3  C8  UNL     1      26.799   2.250  51.749  1.00  0.00     0.097 C 
HETATM    4  N2  UNL     1      26.102   2.706  50.916  1.00  0.00    -0.192 NA
HETATM    5  C9  UNL     1      28.582   2.390  53.667  1.00  0.00     0.095 A 
HETATM    6  C10 UNL     1      28.926   1.056  54.215  1.00  0.00     0.225 A 
HETATM    7  F1  UNL     1      30.245   0.658  53.982  1.00  0.00    -0.242 F 
ENDROOT
BRANCH   1   8
HETATM    8  N1  UNL     1      27.468  -0.725  52.834  1.00  0.00    -0.391 NA
HETATM    9  C5  UNL     1      26.333  -1.232  53.104  1.00  0.00     0.260 C 
BRANCH   9  10
HETATM   10  C4  UNL     1      25.263  -0.604  53.928  1.00  0.00     0.075 C 
BRANCH  10  11
HETATM   11  C3  UNL     1      24.006  -0.423  53.182  1.00  0.00     0.003 C 
HETATM   12  C2  UNL     1      22.708  -0.472  53.404  1.00  0.00     0.005 C 
HETATM   13  C1  UNL     1      22.123  -0.784  54.730  1.00  0.00     0.068 C 
BRANCH  12  14
HETATM   14  N3  UNL     1      21.813  -0.216  52.332  1.00  0.00    -0.328 N 
HETATM   15  C11 UNL     1      21.655   1.140  51.953  1.00  0.00     0.245 C 
HETATM   16  O1  UNL     1      22.344   1.940  52.636  1.00  0.00    -0.268 OA
HETATM   17  H11 UNL     1      21.260  -0.931  51.792  1.00  0.00     0.169 HD
BRANCH  15  18
HETATM   18  C12 UNL     1      20.797   1.639  50.887  1.00  0.00     0.072 C 
HETATM   19  C13 UNL     1      21.074   1.684  49.595  1.00  0.00     0.008 C 
BRANCH  19  20
HETATM   20  C14 UNL     1      20.112   2.222  48.574  1.00  0.00     0.299 C 
BRANCH  20  21
HETATM   21  N4  UNL     1      20.810   3.081  47.666  1.00  0.00     0.083 N 
HETATM   22  C15 UNL     1      22.151   2.625  47.464  1.00  0.00     0.309 C 
HETATM   23  C16 UNL     1      20.732   4.471  48.069  1.00  0.00     0.309 C 
ENDBRANCH  20  21
ENDBRANCH  19  20
ENDBRANCH  15  18
ENDBRANCH  12  14
ENDBRANCH  10  11
ENDBRANCH   9  10
ENDBRANCH   1   8
TORSDOF 7
ENDMDL
