MODEL 1
REMARK VINA RESULT:      -7.8      0.000      0.000
REMARK  6 active torsions:
REMARK  status: ('A' for Active; 'I' for Inactive)
REMARK    1  A    between atoms: O1_1  and  C1_2 
REMARK    2  A    between atoms: C1_2  and  O2_3 
REMARK    3  A    between atoms: O2_3  and  C2_4 
REMARK    4  A    between atoms: C8_10  and  C9_11 
REMARK    5  A    between atoms: C9_11  and  N1_12 
REMARK    6  A    between atoms: N1_12  and  C10_13 
ROOT
HETATM    1  C2  UNL     1      20.711  -0.446  53.533  1.00  0.00     0.072 A 
HETATM    2  C3  UNL     1      21.191  -1.252  54.544  1.00  0.00     0.039 A 
HETATM    3  C4  UNL     1      22.562  -1.281  54.715  1.00  0.00     0.035 A 
HETATM    4  C5  UNL     1      23.430  -0.552  53.929  1.00  0.00     0.065 A 
HETATM    5  C6  UNL     1      22.897   0.238  52.931  1.00  0.00     0.019 A 
HETATM    6  C7  UNL     1      21.537   0.301  52.721  1.00  0.00     0.052 A 
HETATM    7  C8  UNL     1      23.613   0.991  52.109  1.00  0.00     0.037 A 
HETATM    8  N2  UNL     1      25.032   0.922  52.369  1.00  0.00    -0.373 N 
HETATM    9  C16 UNL     1      25.662   0.104  53.365  1.00  0.00     0.271 A 
HETATM   10  N3  UNL     1      24.693  -0.637  54.156  1.00  0.00    -0.270 NA
HETATM   11  H13 UNL     1      25.679   1.512  51.791  1.00  0.00     0.161 HD
ENDROOT
BRANCH   7  12
HETATM   12  C9  UNL     1      23.167   1.873  51.008  1.00  0.00     0.177 C 
BRANCH  12  13
HETATM   13  N1  UNL     1      24.175   2.669  50.460  1.00  0.00    -0.382 N 
HETATM   14  H9  UNL     1      24.765   1.779  50.574  1.00  0.00     0.160 HD
BRANCH  13  15
HETATM   15  C10 UNL     1      25.180   3.462  49.913  1.00  0.00     0.067 A 
HETATM   16  C11 UNL     1      26.483   3.272  49.540  1.00  0.00     0.034 A 
HETATM   17  C12 UNL     1      27.177   4.334  49.020  1.00  0.00     0.021 A 
HETATM   18  C13 UNL     1      26.568   5.558  48.879  1.00  0.00     0.014 A 
HETATM   19 BR1  UNL     1      27.703   6.872  48.145  1.00  0.00    -0.051 Br
HETATM   20  C14 UNL     1      25.271   5.803  49.234  1.00  0.00     0.063 A 
HETATM   21  C15 UNL     1      24.566   4.714  49.766  1.00  0.00     0.143 A 
HETATM   22  F1  UNL     1      23.300   5.131  50.063  1.00  0.00    -0.204 F 
ENDBRANCH  13  15
ENDBRANCH  12  13
ENDBRANCH   7  12
BRANCH   1  23
HETATM   23  O2  UNL     1      19.324  -0.398  53.339  1.00  0.00    -0.326 OA
BRANCH  23  24
HETATM   24  C1  UNL     1      18.507  -1.535  53.430  1.00  0.00     0.341 C 
BRANCH  24  25
HETATM   25  O1  UNL     1      17.275  -1.158  53.962  1.00  0.00    -0.377 OA
HETATM   26  H1  UNL     1      16.736  -1.978  53.999  1.00  0.00     0.212 HD
ENDBRANCH  24  25
ENDBRANCH  23  24
ENDBRANCH   1  23
TORSDOF 6
ENDMDL
MODEL 2
REMARK VINA RESULT:      -7.8      3.319      4.701
REMARK  6 active torsions:
REMARK  status: ('A' for Active; 'I' for Inactive)
REMARK    1  A    between atoms: O1_1  and  C1_2 
REMARK    2  A    between atoms: C1_2  and  O2_3 
REMARK    3  A    between atoms: O2_3  and  C2_4 
REMARK    4  A    between atoms: C8_10  and  C9_11 
REMARK    5  A    between atoms: C9_11  and  N1_12 
REMARK    6  A    between atoms: N1_12  and  C10_13 
ROOT
HETATM    1  C2  UNL     1      26.422   1.733  53.881  1.00  0.00     0.072 A 
HETATM    2  C3  UNL     1      26.437   0.413  54.280  1.00  0.00     0.039 A 
HETATM    3  C4  UNL     1      25.308  -0.332  54.000  1.00  0.00     0.035 A 
HETATM    4  C5  UNL     1      24.207   0.190  53.356  1.00  0.00     0.065 A 
HETATM    5  C6  UNL     1      24.243   1.517  52.978  1.00  0.00     0.019 A 
HETATM    6  C7  UNL     1      25.346   2.302  53.235  1.00  0.00     0.052 A 
HETATM    7  C8  UNL     1      23.260   2.144  52.349  1.00  0.00     0.037 A 
HETATM    8  N2  UNL     1      22.128   1.290  52.074  1.00  0.00    -0.373 N 
HETATM    9  C16 UNL     1      22.004  -0.086  52.460  1.00  0.00     0.271 A 
HETATM   10  N3  UNL     1      23.196  -0.574  53.134  1.00  0.00    -0.270 NA
HETATM   11  H13 UNL     1      21.313   1.688  51.547  1.00  0.00     0.161 HD
ENDROOT
BRANCH   7  12
HETATM   12  C9  UNL     1      23.175   3.550  51.895  1.00  0.00     0.177 C 
BRANCH  12  13
HETATM   13  N1  UNL     1      24.237   3.961  51.086  1.00  0.00    -0.382 N 
HETATM   14  H9  UNL     1      23.649   3.516  50.305  1.00  0.00     0.160 HD
BRANCH  13  15
HETATM   15  C10 UNL     1      25.295   4.371  50.280  1.00  0.00     0.067 A 
HETATM   16  C11 UNL     1      26.331   3.752  49.634  1.00  0.00     0.034 A 
HETATM   17  C12 UNL     1      27.203   4.520  48.907  1.00  0.00     0.021 A 
HETATM   18  C13 UNL     1      27.032   5.882  48.835  1.00  0.00     0.014 A 
HETATM   19 BR1  UNL     1      28.342   6.741  47.786  1.00  0.00    -0.051 Br
HETATM   20  C14 UNL     1      26.017   6.552  49.458  1.00  0.00     0.063 A 
HETATM   21  C15 UNL     1      25.127   5.761  50.201  1.00  0.00     0.143 A 
HETATM   22  F1  UNL     1      24.185   6.582  50.751  1.00  0.00    -0.204 F 
ENDBRANCH  13  15
ENDBRANCH  12  13
ENDBRANCH   7  12
BRANCH   1  23
HETATM   23  O2  UNL     1      27.555   2.511  54.153  1.00  0.00    -0.326 OA
BRANCH  23  24
HETATM   24  C1  UNL     1      28.846   2.133  53.756  1.00  0.00     0.341 C 
BRANCH  24  25
HETATM   25  O1  UNL     1      29.734   2.422  54.792  1.00  0.00    -0.377 OA
HETATM   26  H1  UNL     1      30.526   2.815  54.365  1.00  0.00     0.212 HD
ENDBRANCH  24  25
ENDBRANCH  23  24
ENDBRANCH   1  23
TORSDOF 6
ENDMDL
MODEL 3
REMARK VINA RESULT:      -7.7      3.255      5.032
REMARK  6 active torsions:
REMARK  status: ('A' for Active; 'I' for Inactive)
REMARK    1  A    between atoms: O1_1  and  C1_2 
REMARK    2  A    between atoms: C1_2  and  O2_3 
REMARK    3  A    between atoms: O2_3  and  C2_4 
REMARK    4  A    between atoms: C8_10  and  C9_11 
REMARK    5  A    between atoms: C9_11  and  N1_12 
REMARK    6  A    between atoms: N1_12  and  C10_13 
ROOT
HETATM    1  C2  UNL     1      21.371   0.421  52.060  1.00  0.00     0.072 A 
HETATM    2  C3  UNL     1      20.823   0.215  50.811  1.00  0.00     0.039 A 
HETATM    3  C4  UNL     1      21.317   0.992  49.781  1.00  0.00     0.035 A 
HETATM    4  C5  UNL     1      22.306   1.935  49.963  1.00  0.00     0.065 A 
HETATM    5  C6  UNL     1      22.820   2.102  51.233  1.00  0.00     0.019 A 
HETATM    6  C7  UNL     1      22.361   1.351  52.293  1.00  0.00     0.052 A 
HETATM    7  C8  UNL     1      23.775   2.965  51.547  1.00  0.00     0.037 A 
HETATM    8  N2  UNL     1      24.251   3.721  50.413  1.00  0.00    -0.373 N 
HETATM    9  C16 UNL     1      23.748   3.626  49.073  1.00  0.00     0.271 A 
HETATM   10  N3  UNL     1      22.709   2.616  48.949  1.00  0.00    -0.270 NA
HETATM   11  H13 UNL     1      25.033   4.406  50.556  1.00  0.00     0.161 HD
ENDROOT
BRANCH   7  12
HETATM   12  C9  UNL     1      24.405   3.239  52.858  1.00  0.00     0.177 C 
BRANCH  12  13
HETATM   13  N1  UNL     1      25.609   2.564  53.073  1.00  0.00    -0.382 N 
HETATM   14  H9  UNL     1      26.035   3.540  52.937  1.00  0.00     0.160 HD
BRANCH  13  15
HETATM   15  C10 UNL     1      26.808   1.891  53.287  1.00  0.00     0.067 A 
HETATM   16  C11 UNL     1      28.081   2.246  53.642  1.00  0.00     0.034 A 
HETATM   17  C12 UNL     1      29.028   1.262  53.758  1.00  0.00     0.021 A 
HETATM   18  C13 UNL     1      28.696  -0.050  53.523  1.00  0.00     0.014 A 
HETATM   19 BR1  UNL     1      30.147  -1.234  53.740  1.00  0.00    -0.051 Br
HETATM   20  C14 UNL     1      27.443  -0.462  53.168  1.00  0.00     0.063 A 
HETATM   21  C15 UNL     1      26.477   0.549  53.049  1.00  0.00     0.143 A 
HETATM   22  F1  UNL     1      25.294  -0.032  52.691  1.00  0.00    -0.204 F 
ENDBRANCH  13  15
ENDBRANCH  12  13
ENDBRANCH   7  12
BRANCH   1  23
HETATM   23  O2  UNL     1      20.888  -0.355  53.121  1.00  0.00    -0.326 OA
BRANCH  23  24
HETATM   24  C1  UNL     1      21.437  -0.299  54.411  1.00  0.00     0.341 C 
BRANCH  24  25
HETATM   25  O1  UNL     1      21.213  -1.521  55.044  1.00  0.00    -0.377 OA
HETATM   26  H1  UNL     1      21.902  -2.132  54.702  1.00  0.00     0.212 HD
ENDBRANCH  24  25
ENDBRANCH  23  24
ENDBRANCH   1  23
TORSDOF 6
ENDMDL
MODEL 4
REMARK VINA RESULT:      -7.6      1.885      2.610
REMARK  6 active torsions:
REMARK  status: ('A' for Active; 'I' for Inactive)
REMARK    1  A    between atoms: O1_1  and  C1_2 
REMARK    2  A    between atoms: C1_2  and  O2_3 
REMARK    3  A    between atoms: O2_3  and  C2_4 
REMARK    4  A    between atoms: C8_10  and  C9_11 
REMARK    5  A    between atoms: C9_11  and  N1_12 
REMARK    6  A    between atoms: N1_12  and  C10_13 
ROOT
HETATM    1  C2  UNL     1      23.390  -0.580  53.879  1.00  0.00     0.072 A 
HETATM    2  C3  UNL     1      24.213  -1.098  54.857  1.00  0.00     0.039 A 
HETATM    3  C4  UNL     1      25.462  -0.520  54.986  1.00  0.00     0.035 A 
HETATM    4  C5  UNL     1      25.891   0.521  54.189  1.00  0.00     0.065 A 
HETATM    5  C6  UNL     1      25.029   1.001  53.225  1.00  0.00     0.019 A 
HETATM    6  C7  UNL     1      23.773   0.459  53.058  1.00  0.00     0.052 A 
HETATM    7  C8  UNL     1      25.309   1.997  52.399  1.00  0.00     0.037 A 
HETATM    8  N2  UNL     1      26.622   2.559  52.613  1.00  0.00    -0.373 N 
HETATM    9  C16 UNL     1      27.583   2.097  53.572  1.00  0.00     0.271 A 
HETATM   10  N3  UNL     1      27.070   1.000  54.376  1.00  0.00    -0.270 NA
HETATM   11  H13 UNL     1      26.921   3.378  52.030  1.00  0.00     0.161 HD
ENDROOT
BRANCH   7  12
HETATM   12  C9  UNL     1      24.479   2.599  51.331  1.00  0.00     0.177 C 
BRANCH  12  13
HETATM   13  N1  UNL     1      25.061   3.700  50.698  1.00  0.00    -0.382 N 
HETATM   14  H9  UNL     1      25.187   3.008  49.887  1.00  0.00     0.160 HD
BRANCH  13  15
HETATM   15  C10 UNL     1      25.641   4.797  50.068  1.00  0.00     0.067 A 
HETATM   16  C11 UNL     1      25.418   6.148  50.050  1.00  0.00     0.034 A 
HETATM   17  C12 UNL     1      26.231   6.936  49.278  1.00  0.00     0.021 A 
HETATM   18  C13 UNL     1      27.247   6.374  48.543  1.00  0.00     0.014 A 
HETATM   19 BR1  UNL     1      28.238   7.638  47.557  1.00  0.00    -0.051 Br
HETATM   20  C14 UNL     1      27.515   5.034  48.524  1.00  0.00     0.063 A 
HETATM   21  C15 UNL     1      26.680   4.231  49.315  1.00  0.00     0.143 A 
HETATM   22  F1  UNL     1      27.085   2.934  49.180  1.00  0.00    -0.204 F 
ENDBRANCH  13  15
ENDBRANCH  12  13
ENDBRANCH   7  12
BRANCH   1  23
HETATM   23  O2  UNL     1      22.119  -1.147  53.728  1.00  0.00    -0.326 OA
BRANCH  23  24
HETATM   24  C1  UNL     1      20.942  -0.384  53.746  1.00  0.00     0.341 C 
BRANCH  24  25
HETATM   25  O1  UNL     1      20.779   0.155  55.022  1.00  0.00    -0.377 OA
HETATM   26  H1  UNL     1      21.673   0.157  55.429  1.00  0.00     0.212 HD
ENDBRANCH  24  25
ENDBRANCH  23  24
ENDBRANCH   1  23
TORSDOF 6
ENDMDL
MODEL 5
REMARK VINA RESULT:      -7.6      5.097      7.844
REMARK  6 active torsions:
REMARK  status: ('A' for Active; 'I' for Inactive)
REMARK    1  A    between atoms: O1_1  and  C1_2 
REMARK    2  A    between atoms: C1_2  and  O2_3 
REMARK    3  A    between atoms: O2_3  and  C2_4 
REMARK    4  A    between atoms: C8_10  and  C9_11 
REMARK    5  A    between atoms: C9_11  and  N1_12 
REMARK    6  A    between atoms: N1_12  and  C10_13 
ROOT
HETATM    1  C2  UNL     1      26.436  -0.706  52.932  1.00  0.00     0.072 A 
HETATM    2  C3  UNL     1      27.215   0.252  52.320  1.00  0.00     0.039 A 
HETATM    3  C4  UNL     1      26.570   1.398  51.896  1.00  0.00     0.035 A 
HETATM    4  C5  UNL     1      25.216   1.600  52.063  1.00  0.00     0.065 A 
HETATM    5  C6  UNL     1      24.482   0.609  52.681  1.00  0.00     0.019 A 
HETATM    6  C7  UNL     1      25.079  -0.552  53.122  1.00  0.00     0.052 A 
HETATM    7  C8  UNL     1      23.179   0.674  52.910  1.00  0.00     0.037 A 
HETATM    8  N2  UNL     1      22.585   1.911  52.458  1.00  0.00    -0.373 N 
HETATM    9  C16 UNL     1      23.275   2.972  51.783  1.00  0.00     0.271 A 
HETATM   10  N3  UNL     1      24.695   2.696  51.638  1.00  0.00    -0.270 NA
HETATM   11  H13 UNL     1      21.563   2.070  52.627  1.00  0.00     0.161 HD
ENDROOT
BRANCH   7  12
HETATM   12  C9  UNL     1      22.283  -0.312  53.556  1.00  0.00     0.177 C 
BRANCH  12  13
HETATM   13  N1  UNL     1      20.952  -0.245  53.139  1.00  0.00    -0.382 N 
HETATM   14  H9  UNL     1      20.749  -0.456  54.172  1.00  0.00     0.160 HD
BRANCH  13  15
HETATM   15  C10 UNL     1      19.626  -0.179  52.722  1.00  0.00     0.067 A 
HETATM   16  C11 UNL     1      18.900   0.629  51.889  1.00  0.00     0.034 A 
HETATM   17  C12 UNL     1      17.564   0.369  51.724  1.00  0.00     0.021 A 
HETATM   18  C13 UNL     1      16.976  -0.682  52.385  1.00  0.00     0.014 A 
HETATM   19 BR1  UNL     1      15.136  -0.856  52.015  1.00  0.00    -0.051 Br
HETATM   20  C14 UNL     1      17.652  -1.520  53.227  1.00  0.00     0.063 A 
HETATM   21  C15 UNL     1      19.018  -1.250  53.393  1.00  0.00     0.143 A 
HETATM   22  F1  UNL     1      19.533  -2.173  54.258  1.00  0.00    -0.204 F 
ENDBRANCH  13  15
ENDBRANCH  12  13
ENDBRANCH   7  12
BRANCH   1  23
HETATM   23  O2  UNL     1      27.066  -1.878  53.372  1.00  0.00    -0.326 OA
BRANCH  23  24
HETATM   24  C1  UNL     1      28.346  -2.257  52.942  1.00  0.00     0.341 C 
BRANCH  24  25
HETATM   25  O1  UNL     1      28.617  -3.538  53.420  1.00  0.00    -0.377 OA
HETATM   26  H1  UNL     1      29.277  -3.423  54.139  1.00  0.00     0.212 HD
ENDBRANCH  24  25
ENDBRANCH  23  24
ENDBRANCH   1  23
TORSDOF 6
ENDMDL
MODEL 6
REMARK VINA RESULT:      -7.5      5.312      9.017
REMARK  6 active torsions:
REMARK  status: ('A' for Active; 'I' for Inactive)
REMARK    1  A    between atoms: O1_1  and  C1_2 
REMARK    2  A    between atoms: C1_2  and  O2_3 
REMARK    3  A    between atoms: O2_3  and  C2_4 
REMARK    4  A    between atoms: C8_10  and  C9_11 
REMARK    5  A    between atoms: C9_11  and  N1_12 
REMARK    6  A    between atoms: N1_12  and  C10_13 
ROOT
HETATM    1  C2  UNL     1      28.533   5.567  48.272  1.00  0.00     0.072 A 
HETATM    2  C3  UNL     1      28.119   6.783  47.771  1.00  0.00     0.039 A 
HETATM    3  C4  UNL     1      26.798   7.125  47.987  1.00  0.00     0.035 A 
HETATM    4  C5  UNL     1      25.915   6.311  48.665  1.00  0.00     0.065 A 
HETATM    5  C6  UNL     1      26.380   5.103  49.144  1.00  0.00     0.019 A 
HETATM    6  C7  UNL     1      27.689   4.717  48.955  1.00  0.00     0.052 A 
HETATM    7  C8  UNL     1      25.644   4.230  49.815  1.00  0.00     0.037 A 
HETATM    8  N2  UNL     1      24.285   4.672  50.018  1.00  0.00    -0.373 N 
HETATM    9  C16 UNL     1      23.720   5.896  49.526  1.00  0.00     0.271 A 
HETATM   10  N3  UNL     1      24.701   6.706  48.822  1.00  0.00    -0.270 NA
HETATM   11  H13 UNL     1      23.634   4.063  50.570  1.00  0.00     0.161 HD
ENDROOT
BRANCH   7  12
HETATM   12  C9  UNL     1      26.020   2.913  50.377  1.00  0.00     0.177 C 
BRANCH  12  13
HETATM   13  N1  UNL     1      25.020   2.302  51.136  1.00  0.00    -0.382 N 
HETATM   14  H9  UNL     1      24.799   1.802  50.212  1.00  0.00     0.160 HD
BRANCH  13  15
HETATM   15  C10 UNL     1      24.024   1.693  51.893  1.00  0.00     0.067 A 
HETATM   16  C11 UNL     1      22.700   1.932  52.144  1.00  0.00     0.034 A 
HETATM   17  C12 UNL     1      22.024   1.076  52.974  1.00  0.00     0.021 A 
HETATM   18  C13 UNL     1      22.672   0.002  53.538  1.00  0.00     0.014 A 
HETATM   19 BR1  UNL     1      21.557  -1.041  54.644  1.00  0.00    -0.051 Br
HETATM   20  C14 UNL     1      23.991  -0.284  53.323  1.00  0.00     0.063 A 
HETATM   21  C15 UNL     1      24.677   0.595  52.473  1.00  0.00     0.143 A 
HETATM   22  F1  UNL     1      25.969   0.165  52.369  1.00  0.00    -0.204 F 
ENDBRANCH  13  15
ENDBRANCH  12  13
ENDBRANCH   7  12
BRANCH   1  23
HETATM   23  O2  UNL     1      29.868   5.196  48.066  1.00  0.00    -0.326 OA
BRANCH  23  24
HETATM   24  C1  UNL     1      30.944   5.898  48.629  1.00  0.00     0.341 C 
BRANCH  24  25
HETATM   25  O1  UNL     1      31.005   5.606  49.991  1.00  0.00    -0.377 OA
HETATM   26  H1  UNL     1      30.602   4.716  50.094  1.00  0.00     0.212 HD
ENDBRANCH  24  25
ENDBRANCH  23  24
ENDBRANCH   1  23
TORSDOF 6
ENDMDL
MODEL 7
REMARK VINA RESULT:      -7.4      3.572      4.762
REMARK  6 active torsions:
REMARK  status: ('A' for Active; 'I' for Inactive)
REMARK    1  A    between atoms: O1_1  and  C1_2 
REMARK    2  A    between atoms: C1_2  and  O2_3 
REMARK    3  A    between atoms: O2_3  and  C2_4 
REMARK    4  A    between atoms: C8_10  and  C9_11 
REMARK    5  A    between atoms: C9_11  and  N1_12 
REMARK    6  A    between atoms: N1_12  and  C10_13 
ROOT
HETATM    1  C2  UNL     1      26.239  -0.010  54.261  1.00  0.00     0.072 A 
HETATM    2  C3  UNL     1      25.085  -0.686  54.602  1.00  0.00     0.039 A 
HETATM    3  C4  UNL     1      23.960  -0.410  53.849  1.00  0.00     0.035 A 
HETATM    4  C5  UNL     1      23.960   0.492  52.805  1.00  0.00     0.065 A 
HETATM    5  C6  UNL     1      25.140   1.142  52.507  1.00  0.00     0.019 A 
HETATM    6  C7  UNL     1      26.290   0.900  53.228  1.00  0.00     0.052 A 
HETATM    7  C8  UNL     1      25.283   2.025  51.530  1.00  0.00     0.037 A 
HETATM    8  N2  UNL     1      24.069   2.239  50.778  1.00  0.00    -0.373 N 
HETATM    9  C16 UNL     1      22.800   1.627  51.046  1.00  0.00     0.271 A 
HETATM   10  N3  UNL     1      22.868   0.690  52.156  1.00  0.00    -0.270 NA
HETATM   11  H13 UNL     1      24.092   2.896  49.961  1.00  0.00     0.161 HD
ENDROOT
BRANCH   7  12
HETATM   12  C9  UNL     1      26.483   2.785  51.112  1.00  0.00     0.177 C 
BRANCH  12  13
HETATM   13  N1  UNL     1      26.207   3.998  50.478  1.00  0.00    -0.382 N 
HETATM   14  H9  UNL     1      25.313   3.489  50.170  1.00  0.00     0.160 HD
BRANCH  13  15
HETATM   15  C10 UNL     1      25.933   5.207  49.846  1.00  0.00     0.067 A 
HETATM   16  C11 UNL     1      24.973   6.176  49.960  1.00  0.00     0.034 A 
HETATM   17  C12 UNL     1      25.039   7.265  49.130  1.00  0.00     0.021 A 
HETATM   18  C13 UNL     1      26.052   7.373  48.207  1.00  0.00     0.014 A 
HETATM   19 BR1  UNL     1      25.950   8.946  47.173  1.00  0.00    -0.051 Br
HETATM   20  C14 UNL     1      27.035   6.437  48.051  1.00  0.00     0.063 A 
HETATM   21  C15 UNL     1      26.963   5.325  48.902  1.00  0.00     0.143 A 
HETATM   22  F1  UNL     1      28.012   4.499  48.613  1.00  0.00    -0.204 F 
ENDBRANCH  13  15
ENDBRANCH  12  13
ENDBRANCH   7  12
BRANCH   1  23
HETATM   23  O2  UNL     1      27.394  -0.272  55.009  1.00  0.00    -0.326 OA
BRANCH  23  24
HETATM   24  C1  UNL     1      28.683  -0.195  54.462  1.00  0.00     0.341 C 
BRANCH  24  25
HETATM   25  O1  UNL     1      28.958  -1.389  53.795  1.00  0.00    -0.377 OA
HETATM   26  H1  UNL     1      28.967  -1.166  52.838  1.00  0.00     0.212 HD
ENDBRANCH  24  25
ENDBRANCH  23  24
ENDBRANCH   1  23
TORSDOF 6
ENDMDL
MODEL 8
REMARK VINA RESULT:      -7.1      4.072      5.435
REMARK  6 active torsions:
REMARK  status: ('A' for Active; 'I' for Inactive)
REMARK    1  A    between atoms: O1_1  and  C1_2 
REMARK    2  A    between atoms: C1_2  and  O2_3 
REMARK    3  A    between atoms: O2_3  and  C2_4 
REMARK    4  A    between atoms: C8_10  and  C9_11 
REMARK    5  A    between atoms: C9_11  and  N1_12 
REMARK    6  A    between atoms: N1_12  and  C10_13 
ROOT
HETATM    1  C2  UNL     1      27.047   0.716  52.976  1.00  0.00     0.072 A 
HETATM    2  C3  UNL     1      26.885  -0.615  53.296  1.00  0.00     0.039 A 
HETATM    3  C4  UNL     1      25.586  -1.066  53.434  1.00  0.00     0.035 A 
HETATM    4  C5  UNL     1      24.488  -0.247  53.267  1.00  0.00     0.065 A 
HETATM    5  C6  UNL     1      24.706   1.077  52.948  1.00  0.00     0.019 A 
HETATM    6  C7  UNL     1      25.983   1.574  52.800  1.00  0.00     0.052 A 
HETATM    7  C8  UNL     1      23.746   1.969  52.755  1.00  0.00     0.037 A 
HETATM    8  N2  UNL     1      22.421   1.414  52.894  1.00  0.00    -0.373 N 
HETATM    9  C16 UNL     1      22.114   0.059  53.252  1.00  0.00     0.271 A 
HETATM   10  N3  UNL     1      23.312  -0.748  53.413  1.00  0.00    -0.270 NA
HETATM   11  H13 UNL     1      21.593   2.036  52.724  1.00  0.00     0.161 HD
ENDROOT
BRANCH   7  12
HETATM   12  C9  UNL     1      23.848   3.406  52.413  1.00  0.00     0.177 C 
BRANCH  12  13
HETATM   13  N1  UNL     1      23.471   3.717  51.104  1.00  0.00    -0.382 N 
HETATM   14  H9  UNL     1      22.540   3.273  51.401  1.00  0.00     0.160 HD
BRANCH  13  15
HETATM   15  C10 UNL     1      23.096   4.026  49.800  1.00  0.00     0.067 A 
HETATM   16  C11 UNL     1      23.002   5.170  49.053  1.00  0.00     0.034 A 
HETATM   17  C12 UNL     1      22.579   5.070  47.753  1.00  0.00     0.021 A 
HETATM   18  C13 UNL     1      22.259   3.845  47.220  1.00  0.00     0.014 A 
HETATM   19 BR1  UNL     1      21.702   3.939  45.422  1.00  0.00    -0.051 Br
HETATM   20  C14 UNL     1      22.335   2.672  47.919  1.00  0.00     0.063 A 
HETATM   21  C15 UNL     1      22.768   2.779  49.248  1.00  0.00     0.143 A 
HETATM   22  F1  UNL     1      22.786   1.527  49.792  1.00  0.00    -0.204 F 
ENDBRANCH  13  15
ENDBRANCH  12  13
ENDBRANCH   7  12
BRANCH   1  23
HETATM   23  O2  UNL     1      28.354   1.198  52.831  1.00  0.00    -0.326 OA
BRANCH  23  24
HETATM   24  C1  UNL     1      28.927   2.116  53.723  1.00  0.00     0.341 C 
BRANCH  24  25
HETATM   25  O1  UNL     1      29.420   3.199  52.995  1.00  0.00    -0.377 OA
HETATM   26  H1  UNL     1      29.487   2.889  52.065  1.00  0.00     0.212 HD
ENDBRANCH  24  25
ENDBRANCH  23  24
ENDBRANCH   1  23
TORSDOF 6
ENDMDL
MODEL 9
REMARK VINA RESULT:      -7.0      5.067      7.243
REMARK  6 active torsions:
REMARK  status: ('A' for Active; 'I' for Inactive)
REMARK    1  A    between atoms: O1_1  and  C1_2 
REMARK    2  A    between atoms: C1_2  and  O2_3 
REMARK    3  A    between atoms: O2_3  and  C2_4 
REMARK    4  A    between atoms: C8_10  and  C9_11 
REMARK    5  A    between atoms: C9_11  and  N1_12 
REMARK    6  A    between atoms: N1_12  and  C10_13 
ROOT
HETATM    1  C2  UNL     1      23.711   6.545  50.151  1.00  0.00     0.072 A 
HETATM    2  C3  UNL     1      23.158   6.408  48.895  1.00  0.00     0.039 A 
HETATM    3  C4  UNL     1      22.719   5.146  48.546  1.00  0.00     0.035 A 
HETATM    4  C5  UNL     1      22.817   4.059  49.389  1.00  0.00     0.065 A 
HETATM    5  C6  UNL     1      23.379   4.250  50.634  1.00  0.00     0.019 A 
HETATM    6  C7  UNL     1      23.832   5.490  51.030  1.00  0.00     0.052 A 
HETATM    7  C8  UNL     1      23.529   3.298  51.543  1.00  0.00     0.037 A 
HETATM    8  N2  UNL     1      23.025   2.016  51.109  1.00  0.00    -0.373 N 
HETATM    9  C16 UNL     1      22.457   1.733  49.823  1.00  0.00     0.271 A 
HETATM   10  N3  UNL     1      22.383   2.918  48.984  1.00  0.00    -0.270 NA
HETATM   11  H13 UNL     1      23.068   1.207  51.774  1.00  0.00     0.161 HD
ENDROOT
BRANCH   7  12
HETATM   12  C9  UNL     1      24.112   3.373  52.902  1.00  0.00     0.177 C 
BRANCH  12  13
HETATM   13  N1  UNL     1      25.311   2.674  53.056  1.00  0.00    -0.382 N 
HETATM   14  H9  UNL     1      25.209   2.977  54.081  1.00  0.00     0.160 HD
BRANCH  13  15
HETATM   15  C10 UNL     1      26.506   1.977  53.210  1.00  0.00     0.067 A 
HETATM   16  C11 UNL     1      27.807   2.309  53.471  1.00  0.00     0.034 A 
HETATM   17  C12 UNL     1      28.737   1.306  53.552  1.00  0.00     0.021 A 
HETATM   18  C13 UNL     1      28.360  -0.004  53.374  1.00  0.00     0.014 A 
HETATM   19 BR1  UNL     1      29.795  -1.217  53.528  1.00  0.00    -0.051 Br
HETATM   20  C14 UNL     1      27.077  -0.393  53.112  1.00  0.00     0.063 A 
HETATM   21  C15 UNL     1      26.130   0.638  53.029  1.00  0.00     0.143 A 
HETATM   22  F1  UNL     1      24.913   0.077  52.764  1.00  0.00    -0.204 F 
ENDBRANCH  13  15
ENDBRANCH  12  13
ENDBRANCH   7  12
BRANCH   1  23
HETATM   23  O2  UNL     1      24.164   7.815  50.531  1.00  0.00    -0.326 OA
BRANCH  23  24
HETATM   24  C1  UNL     1      25.398   8.336  50.113  1.00  0.00     0.341 C 
BRANCH  24  25
HETATM   25  O1  UNL     1      26.411   7.738  50.861  1.00  0.00    -0.377 OA
HETATM   26  H1  UNL     1      26.860   7.110  50.253  1.00  0.00     0.212 HD
ENDBRANCH  24  25
ENDBRANCH  23  24
ENDBRANCH   1  23
TORSDOF 6
ENDMDL
