MODEL 1
REMARK VINA RESULT:      -9.3      0.000      0.000
REMARK  2 active torsions:
REMARK  status: ('A' for Active; 'I' for Inactive)
REMARK    1  A    between atoms: C3_3  and  C4_5 
REMARK    2  A    between atoms: C20_26  and  O2_27 
ROOT
HETATM    1  C4  UNL     1      24.531  -0.178  54.090  1.00  0.00     0.208 A 
HETATM    2  C5  UNL     1      24.107   0.700  53.072  1.00  0.00     0.145 A 
HETATM    3  F1  UNL     1      25.277   0.089  53.588  1.00  0.00    -0.380 F 
HETATM    4  C6  UNL     1      25.088   1.417  52.348  1.00  0.00     0.236 A 
HETATM    5  C7  UNL     1      23.629   1.492  52.112  1.00  0.00     0.101 A 
HETATM    6  C8  UNL     1      22.287   0.950  52.577  1.00  0.00     0.280 C 
HETATM    7  N1  UNL     1      21.352   0.809  51.458  1.00  0.00     0.084 N 
HETATM    8  C9  UNL     1      20.136   0.221  51.831  1.00  0.00     0.269 C 
HETATM    9  C10 UNL     1      19.120   0.214  50.683  1.00  0.00     0.032 C 
HETATM   10  C11 UNL     1      18.855   1.592  50.189  1.00  0.00     0.028 C 
HETATM   11  C12 UNL     1      17.999   2.509  50.992  1.00  0.00     0.169 C 
HETATM   12  O1  UNL     1      18.258   3.896  50.452  1.00  0.00    -0.375 OA
HETATM   13  C13 UNL     1      19.696   4.238  50.852  1.00  0.00     0.114 A 
HETATM   14  C14 UNL     1      20.002   3.783  52.005  1.00  0.00     0.085 A 
HETATM   15  C15 UNL     1      21.439   4.451  51.719  1.00  0.00     0.032 A 
HETATM   16  N2  UNL     1      22.541   5.072  51.412  1.00  0.00    -0.250 NA
HETATM   17  C16 UNL     1      23.688   4.355  52.173  1.00  0.00     0.237 C 
HETATM   18  N3  UNL     1      24.278   3.353  51.636  1.00  0.00    -0.155 N 
HETATM   19  C17 UNL     1      23.901   2.829  50.264  1.00  0.00     0.313 A 
HETATM   20  C18 UNL     1      22.866   3.609  50.095  1.00  0.00     0.121 A 
HETATM   21  C19 UNL     1      22.500   3.039  48.743  1.00  0.00     0.019 A 
HETATM   22  C20 UNL     1      21.739   3.965  49.452  1.00  0.00     0.079 A 
HETATM   23  C21 UNL     1      20.965   4.972  50.281  1.00  0.00     0.107 A 
HETATM   24  N4  UNL     1      24.800   2.142  51.080  1.00  0.00     0.063 N 
HETATM   25  H9  UNL     1      21.803   0.402  50.651  1.00  0.00     0.315 HD
HETATM   26  H24 UNL     1      25.789   1.703  50.900  1.00  0.00     0.314 HD
ENDROOT
BRANCH   1  27
HETATM   27  C3  UNL     1      26.035  -0.377  53.923  1.00  0.00     0.018 C 
HETATM   28  C2  UNL     1      26.661   0.245  54.941  1.00  0.00    -0.013 C 
HETATM   29  C1  UNL     1      28.099  -0.064  54.645  1.00  0.00     0.037 C 
HETATM   30 BR1  UNL     1      27.237  -1.211  52.767  1.00  0.00    -0.053 Br
ENDBRANCH   1  27
BRANCH  22  31
HETATM   31  O2  UNL     1      20.583   4.149  48.482  1.00  0.00    -0.388 OA
HETATM   32  H22 UNL     1      20.907   4.376  47.580  1.00  0.00     0.210 HD
ENDBRANCH  22  31
TORSDOF 2
ENDMDL
MODEL 2
REMARK VINA RESULT:      -9.0      6.484      8.629
REMARK  2 active torsions:
REMARK  status: ('A' for Active; 'I' for Inactive)
REMARK    1  A    between atoms: C3_3  and  C4_5 
REMARK    2  A    between atoms: C20_26  and  O2_27 
ROOT
HETATM    1  C4  UNL     1      26.410   2.940  49.473  1.00  0.00     0.208 A 
HETATM    2  C5  UNL     1      26.523   4.344  49.422  1.00  0.00     0.145 A 
HETATM    3  F1  UNL     1      25.806   3.316  50.084  1.00  0.00    -0.380 F 
HETATM    4  C6  UNL     1      25.540   5.123  50.076  1.00  0.00     0.236 A 
HETATM    5  C7  UNL     1      26.710   5.661  49.347  1.00  0.00     0.101 A 
HETATM    6  C8  UNL     1      27.947   5.263  48.559  1.00  0.00     0.280 C 
HETATM    7  N1  UNL     1      29.057   6.190  48.804  1.00  0.00     0.084 N 
HETATM    8  C9  UNL     1      30.245   5.800  48.170  1.00  0.00     0.269 C 
HETATM    9  C10 UNL     1      31.350   6.851  48.318  1.00  0.00     0.032 C 
HETATM   10  C11 UNL     1      30.921   8.165  47.768  1.00  0.00     0.028 C 
HETATM   11  C12 UNL     1      30.875   8.365  46.292  1.00  0.00     0.169 C 
HETATM   12  O1  UNL     1      30.040   9.604  46.068  1.00  0.00    -0.375 OA
HETATM   13  C13 UNL     1      28.611   9.223  46.466  1.00  0.00     0.114 A 
HETATM   14  C14 UNL     1      28.321   8.021  46.146  1.00  0.00     0.085 A 
HETATM   15  C15 UNL     1      26.891   8.351  46.809  1.00  0.00     0.032 A 
HETATM   16  N2  UNL     1      25.757   8.738  47.317  1.00  0.00    -0.250 NA
HETATM   17  C16 UNL     1      25.054   7.468  47.865  1.00  0.00     0.237 C 
HETATM   18  N3  UNL     1      25.287   7.077  49.062  1.00  0.00    -0.155 N 
HETATM   19  C17 UNL     1      26.237   7.817  49.986  1.00  0.00     0.313 A 
HETATM   20  C18 UNL     1      26.662   8.673  49.095  1.00  0.00     0.121 A 
HETATM   21  C19 UNL     1      27.622   9.365  50.036  1.00  0.00     0.019 A 
HETATM   22  C20 UNL     1      27.520   9.618  48.671  1.00  0.00     0.079 A 
HETATM   23  C21 UNL     1      27.352   9.839  47.179  1.00  0.00     0.107 A 
HETATM   24  N4  UNL     1      25.695   6.580  50.341  1.00  0.00     0.063 N 
HETATM   25  H9  UNL     1      29.139   6.413  49.785  1.00  0.00     0.315 HD
HETATM   26  H24 UNL     1      25.208   6.210  51.251  1.00  0.00     0.314 HD
ENDROOT
BRANCH   1  27
HETATM   27  C3  UNL     1      25.380   2.604  50.548  1.00  0.00     0.018 C 
HETATM   28  C2  UNL     1      26.031   2.119  51.623  1.00  0.00    -0.013 C 
HETATM   29  C1  UNL     1      24.898   1.869  52.574  1.00  0.00     0.037 C 
HETATM   30 BR1  UNL     1      23.536   2.673  50.819  1.00  0.00    -0.053 Br
ENDBRANCH   1  27
BRANCH  22  31
HETATM   31  O2  UNL     1      28.583  10.695  48.525  1.00  0.00    -0.388 OA
HETATM   32  H22 UNL     1      28.230  11.481  48.048  1.00  0.00     0.210 HD
ENDBRANCH  22  31
TORSDOF 2
ENDMDL
MODEL 3
REMARK VINA RESULT:      -8.6      2.268      4.301
REMARK  2 active torsions:
REMARK  status: ('A' for Active; 'I' for Inactive)
REMARK    1  A    between atoms: C3_3  and  C4_5 
REMARK    2  A    between atoms: C20_26  and  O2_27 
ROOT
HETATM    1  C4  UNL     1      26.699   1.935  51.676  1.00  0.00     0.208 A 
HETATM    2  C5  UNL     1      25.395   2.394  51.403  1.00  0.00     0.145 A 
HETATM    3  F1  UNL     1      26.083   1.366  52.096  1.00  0.00    -0.380 F 
HETATM    4  C6  UNL     1      24.303   1.554  51.729  1.00  0.00     0.236 A 
HETATM    5  C7  UNL     1      24.194   2.906  51.136  1.00  0.00     0.101 A 
HETATM    6  C8  UNL     1      25.004   4.100  50.659  1.00  0.00     0.280 C 
HETATM    7  N1  UNL     1      24.307   5.360  50.931  1.00  0.00     0.084 N 
HETATM    8  C9  UNL     1      25.066   6.489  50.594  1.00  0.00     0.269 C 
HETATM    9  C10 UNL     1      24.270   7.789  50.750  1.00  0.00     0.032 C 
HETATM   10  C11 UNL     1      23.039   7.771  49.914  1.00  0.00     0.028 C 
HETATM   11  C12 UNL     1      23.148   7.968  48.442  1.00  0.00     0.169 C 
HETATM   12  O1  UNL     1      21.833   7.499  47.863  1.00  0.00    -0.375 OA
HETATM   13  C13 UNL     1      21.807   5.981  48.063  1.00  0.00     0.114 A 
HETATM   14  C14 UNL     1      22.958   5.450  47.909  1.00  0.00     0.085 A 
HETATM   15  C15 UNL     1      22.198   4.070  48.243  1.00  0.00     0.032 A 
HETATM   16  N2  UNL     1      21.479   3.009  48.469  1.00  0.00    -0.250 NA
HETATM   17  C16 UNL     1      22.424   1.951  49.096  1.00  0.00     0.237 C 
HETATM   18  N3  UNL     1      22.597   1.923  50.364  1.00  0.00    -0.155 N 
HETATM   19  C17 UNL     1      21.902   2.895  51.299  1.00  0.00     0.313 A 
HETATM   20  C18 UNL     1      21.363   3.629  50.362  1.00  0.00     0.121 A 
HETATM   21  C19 UNL     1      20.712   4.598  51.324  1.00  0.00     0.019 A 
HETATM   22  C20 UNL     1      20.735   4.741  49.939  1.00  0.00     0.079 A 
HETATM   23  C21 UNL     1      20.799   4.829  48.426  1.00  0.00     0.107 A 
HETATM   24  N4  UNL     1      22.892   2.026  51.761  1.00  0.00     0.063 N 
HETATM   25  H9  UNL     1      23.906   5.366  51.858  1.00  0.00     0.315 HD
HETATM   26  H24 UNL     1      22.950   1.348  52.621  1.00  0.00     0.314 HD
ENDROOT
BRANCH   1  27
HETATM   27  C3  UNL     1      26.574   0.722  52.594  1.00  0.00     0.018 C 
HETATM   28  C2  UNL     1      26.867  -0.383  51.880  1.00  0.00    -0.013 C 
HETATM   29  C1  UNL     1      26.723  -1.458  52.916  1.00  0.00     0.037 C 
HETATM   30 BR1  UNL     1      26.158   0.319  54.366  1.00  0.00    -0.053 Br
ENDBRANCH   1  27
BRANCH  22  31
HETATM   31  O2  UNL     1      19.966   6.044  49.799  1.00  0.00    -0.388 OA
HETATM   32  H22 UNL     1      20.510   6.734  49.354  1.00  0.00     0.210 HD
ENDBRANCH  22  31
TORSDOF 2
ENDMDL
MODEL 4
REMARK VINA RESULT:      -8.5      8.041     10.249
REMARK  2 active torsions:
REMARK  status: ('A' for Active; 'I' for Inactive)
REMARK    1  A    between atoms: C3_3  and  C4_5 
REMARK    2  A    between atoms: C20_26  and  O2_27 
ROOT
HETATM    1  C4  UNL     1      26.979   3.759  48.888  1.00  0.00     0.208 A 
HETATM    2  C5  UNL     1      27.471   5.075  48.785  1.00  0.00     0.145 A 
HETATM    3  F1  UNL     1      26.364   4.345  49.286  1.00  0.00    -0.380 F 
HETATM    4  C6  UNL     1      26.601   6.147  49.097  1.00  0.00     0.236 A 
HETATM    5  C7  UNL     1      28.015   6.288  48.685  1.00  0.00     0.101 A 
HETATM    6  C8  UNL     1      29.257   5.505  48.291  1.00  0.00     0.280 C 
HETATM    7  N1  UNL     1      30.476   6.160  48.773  1.00  0.00     0.084 N 
HETATM    8  C9  UNL     1      31.636   5.417  48.513  1.00  0.00     0.269 C 
HETATM    9  C10 UNL     1      32.909   6.180  48.893  1.00  0.00     0.032 C 
HETATM   10  C11 UNL     1      32.997   7.477  48.168  1.00  0.00     0.028 C 
HETATM   11  C12 UNL     1      33.374   7.489  46.728  1.00  0.00     0.169 C 
HETATM   12  O1  UNL     1      32.983   8.854  46.210  1.00  0.00    -0.375 OA
HETATM   13  C13 UNL     1      31.451   8.883  46.224  1.00  0.00     0.114 A 
HETATM   14  C14 UNL     1      30.940   7.756  45.910  1.00  0.00     0.085 A 
HETATM   15  C15 UNL     1      29.532   8.504  46.136  1.00  0.00     0.032 A 
HETATM   16  N2  UNL     1      28.454   9.215  46.291  1.00  0.00    -0.250 NA
HETATM   17  C16 UNL     1      27.323   8.234  46.701  1.00  0.00     0.237 C 
HETATM   18  N3  UNL     1      27.139   7.956  47.937  1.00  0.00    -0.155 N 
HETATM   19  C17 UNL     1      27.991   8.558  49.039  1.00  0.00     0.313 A 
HETATM   20  C18 UNL     1      28.837   9.163  48.248  1.00  0.00     0.121 A 
HETATM   21  C19 UNL     1      29.681   9.719  49.373  1.00  0.00     0.019 A 
HETATM   22  C20 UNL     1      29.994   9.810  48.019  1.00  0.00     0.079 A 
HETATM   23  C21 UNL     1      30.267   9.872  46.528  1.00  0.00     0.107 A 
HETATM   24  N4  UNL     1      27.069   7.545  49.306  1.00  0.00     0.063 N 
HETATM   25  H9  UNL     1      30.369   6.481  49.724  1.00  0.00     0.315 HD
HETATM   26  H24 UNL     1      26.290   7.424  50.069  1.00  0.00     0.314 HD
ENDROOT
BRANCH   1  27
HETATM   27  C3  UNL     1      25.662   3.823  49.658  1.00  0.00     0.018 C 
HETATM   28  C2  UNL     1      25.835   3.207  50.845  1.00  0.00    -0.013 C 
HETATM   29  C1  UNL     1      24.484   3.380  51.473  1.00  0.00     0.037 C 
HETATM   30 BR1  UNL     1      23.933   4.491  49.462  1.00  0.00    -0.053 Br
ENDBRANCH   1  27
BRANCH  22  31
HETATM   31  O2  UNL     1      31.307  10.571  48.104  1.00  0.00    -0.388 OA
HETATM   32  H22 UNL     1      31.711  10.485  48.998  1.00  0.00     0.210 HD
ENDBRANCH  22  31
TORSDOF 2
ENDMDL
MODEL 5
REMARK VINA RESULT:      -8.5      8.960     10.301
REMARK  2 active torsions:
REMARK  status: ('A' for Active; 'I' for Inactive)
REMARK    1  A    between atoms: C3_3  and  C4_5 
REMARK    2  A    between atoms: C20_26  and  O2_27 
ROOT
HETATM    1  C4  UNL     1      31.899   4.434  47.723  1.00  0.00     0.208 A 
HETATM    2  C5  UNL     1      31.343   5.694  47.428  1.00  0.00     0.145 A 
HETATM    3  F1  UNL     1      32.364   4.809  47.000  1.00  0.00    -0.380 F 
HETATM    4  C6  UNL     1      32.038   6.546  46.536  1.00  0.00     0.236 A 
HETATM    5  C7  UNL     1      30.743   6.859  47.181  1.00  0.00     0.101 A 
HETATM    6  C8  UNL     1      29.683   6.311  48.122  1.00  0.00     0.280 C 
HETATM    7  N1  UNL     1      28.341   6.747  47.726  1.00  0.00     0.084 N 
HETATM    8  C9  UNL     1      27.328   6.182  48.513  1.00  0.00     0.269 C 
HETATM    9  C10 UNL     1      25.947   6.758  48.178  1.00  0.00     0.032 C 
HETATM   10  C11 UNL     1      25.923   8.236  48.351  1.00  0.00     0.028 C 
HETATM   11  C12 UNL     1      25.875   8.814  49.723  1.00  0.00     0.169 C 
HETATM   12  O1  UNL     1      26.265  10.266  49.574  1.00  0.00    -0.375 OA
HETATM   13  C13 UNL     1      27.749  10.263  49.192  1.00  0.00     0.114 A 
HETATM   14  C14 UNL     1      28.401   9.339  49.785  1.00  0.00     0.085 A 
HETATM   15  C15 UNL     1      29.663   9.916  48.968  1.00  0.00     0.032 A 
HETATM   16  N2  UNL     1      30.623  10.494  48.306  1.00  0.00    -0.250 NA
HETATM   17  C16 UNL     1      31.706   9.412  48.050  1.00  0.00     0.237 C 
HETATM   18  N3  UNL     1      31.633   8.672  47.008  1.00  0.00    -0.155 N 
HETATM   19  C17 UNL     1      30.515   8.811  45.991  1.00  0.00     0.313 A 
HETATM   20  C18 UNL     1      29.822   9.691  46.665  1.00  0.00     0.121 A 
HETATM   21  C19 UNL     1      28.710   9.779  45.645  1.00  0.00     0.019 A 
HETATM   22  C20 UNL     1      28.698  10.395  46.893  1.00  0.00     0.079 A 
HETATM   23  C21 UNL     1      28.758  11.036  48.267  1.00  0.00     0.107 A 
HETATM   24  N4  UNL     1      31.430   7.759  45.925  1.00  0.00     0.063 N 
HETATM   25  H9  UNL     1      28.210   6.671  46.727  1.00  0.00     0.315 HD
HETATM   26  H24 UNL     1      32.028   7.338  45.107  1.00  0.00     0.314 HD
ENDROOT
BRANCH   1  27
HETATM   27  C3  UNL     1      33.004   4.172  46.702  1.00  0.00     0.018 C 
HETATM   28  C2  UNL     1      34.075   3.679  47.354  1.00  0.00    -0.013 C 
HETATM   29  C1  UNL     1      35.038   3.458  46.226  1.00  0.00     0.037 C 
HETATM   30 BR1  UNL     1      33.305   4.315  44.868  1.00  0.00    -0.053 Br
ENDBRANCH   1  27
BRANCH  22  31
HETATM   31  O2  UNL     1      27.345  11.084  46.832  1.00  0.00    -0.388 OA
HETATM   32  H22 UNL     1      26.618  10.432  46.700  1.00  0.00     0.210 HD
ENDBRANCH  22  31
TORSDOF 2
ENDMDL
MODEL 6
REMARK VINA RESULT:      -8.4      9.902     11.778
REMARK  2 active torsions:
REMARK  status: ('A' for Active; 'I' for Inactive)
REMARK    1  A    between atoms: C3_3  and  C4_5 
REMARK    2  A    between atoms: C20_26  and  O2_27 
ROOT
HETATM    1  C4  UNL     1      32.771   4.991  45.685  1.00  0.00     0.208 A 
HETATM    2  C5  UNL     1      32.146   5.949  46.507  1.00  0.00     0.145 A 
HETATM    3  F1  UNL     1      32.749   4.667  46.565  1.00  0.00    -0.380 F 
HETATM    4  C6  UNL     1      31.783   5.575  47.823  1.00  0.00     0.236 A 
HETATM    5  C7  UNL     1      31.581   6.916  47.230  1.00  0.00     0.101 A 
HETATM    6  C8  UNL     1      31.797   7.741  45.972  1.00  0.00     0.280 C 
HETATM    7  N1  UNL     1      32.105   9.137  46.296  1.00  0.00     0.084 N 
HETATM    8  C9  UNL     1      32.406   9.907  45.165  1.00  0.00     0.269 C 
HETATM    9  C10 UNL     1      32.583  11.391  45.506  1.00  0.00     0.032 C 
HETATM   10  C11 UNL     1      31.363  11.944  46.153  1.00  0.00     0.028 C 
HETATM   11  C12 UNL     1      30.161  12.239  45.324  1.00  0.00     0.169 C 
HETATM   12  O1  UNL     1      29.014  12.386  46.296  1.00  0.00    -0.375 OA
HETATM   13  C13 UNL     1      28.771  10.987  46.871  1.00  0.00     0.114 A 
HETATM   14  C14 UNL     1      28.941  10.067  46.001  1.00  0.00     0.085 A 
HETATM   15  C15 UNL     1      28.569   9.068  47.208  1.00  0.00     0.032 A 
HETATM   16  N2  UNL     1      28.203   8.356  48.234  1.00  0.00    -0.250 NA
HETATM   17  C16 UNL     1      28.838   6.952  48.055  1.00  0.00     0.237 C 
HETATM   18  N3  UNL     1      30.016   6.724  48.505  1.00  0.00    -0.155 N 
HETATM   19  C17 UNL     1      30.830   7.786  49.220  1.00  0.00     0.313 A 
HETATM   20  C18 UNL     1      29.993   8.767  49.014  1.00  0.00     0.121 A 
HETATM   21  C19 UNL     1      30.847   9.805  49.706  1.00  0.00     0.019 A 
HETATM   22  C20 UNL     1      29.674  10.075  49.006  1.00  0.00     0.079 A 
HETATM   23  C21 UNL     1      28.389  10.290  48.228  1.00  0.00     0.107 A 
HETATM   24  N4  UNL     1      31.389   6.555  48.871  1.00  0.00     0.063 N 
HETATM   25  H9  UNL     1      32.767   9.200  47.056  1.00  0.00     0.315 HD
HETATM   26  H24 UNL     1      31.987   5.821  49.425  1.00  0.00     0.314 HD
ENDROOT
BRANCH   1  27
HETATM   27  C3  UNL     1      33.205   3.833  46.581  1.00  0.00     0.018 C 
HETATM   28  C2  UNL     1      32.319   2.828  46.435  1.00  0.00    -0.013 C 
HETATM   29  C1  UNL     1      32.895   1.785  47.345  1.00  0.00     0.037 C 
HETATM   30 BR1  UNL     1      34.565   3.399  47.779  1.00  0.00    -0.053 Br
ENDBRANCH   1  27
BRANCH  22  31
HETATM   31  O2  UNL     1      29.601  11.582  49.187  1.00  0.00    -0.388 OA
HETATM   32  H22 UNL     1      29.806  11.840  50.115  1.00  0.00     0.210 HD
ENDBRANCH  22  31
TORSDOF 2
ENDMDL
MODEL 7
REMARK VINA RESULT:      -8.3      2.724      3.671
REMARK  2 active torsions:
REMARK  status: ('A' for Active; 'I' for Inactive)
REMARK    1  A    between atoms: C3_3  and  C4_5 
REMARK    2  A    between atoms: C20_26  and  O2_27 
ROOT
HETATM    1  C4  UNL     1      21.700   0.460  52.354  1.00  0.00     0.208 A 
HETATM    2  C5  UNL     1      22.406   1.558  51.822  1.00  0.00     0.145 A 
HETATM    3  F1  UNL     1      22.538   0.514  52.772  1.00  0.00    -0.380 F 
HETATM    4  C6  UNL     1      23.590   1.977  52.474  1.00  0.00     0.236 A 
HETATM    5  C7  UNL     1      23.029   2.586  51.248  1.00  0.00     0.101 A 
HETATM    6  C8  UNL     1      21.888   2.490  50.248  1.00  0.00     0.280 C 
HETATM    7  N1  UNL     1      22.335   2.835  48.895  1.00  0.00     0.084 N 
HETATM    8  C9  UNL     1      21.334   2.664  47.928  1.00  0.00     0.269 C 
HETATM    9  C10 UNL     1      21.773   3.164  46.548  1.00  0.00     0.032 C 
HETATM   10  C11 UNL     1      22.157   4.601  46.592  1.00  0.00     0.028 C 
HETATM   11  C12 UNL     1      21.096   5.643  46.675  1.00  0.00     0.169 C 
HETATM   12  O1  UNL     1      21.796   6.911  47.105  1.00  0.00    -0.375 OA
HETATM   13  C13 UNL     1      22.239   6.674  48.552  1.00  0.00     0.114 A 
HETATM   14  C14 UNL     1      21.388   5.991  49.216  1.00  0.00     0.085 A 
HETATM   15  C15 UNL     1      22.436   6.148  50.428  1.00  0.00     0.032 A 
HETATM   16  N2  UNL     1      23.322   6.381  51.352  1.00  0.00    -0.250 NA
HETATM   17  C16 UNL     1      23.226   5.214  52.371  1.00  0.00     0.237 C 
HETATM   18  N3  UNL     1      23.914   4.150  52.187  1.00  0.00    -0.155 N 
HETATM   19  C17 UNL     1      24.840   3.978  50.997  1.00  0.00     0.313 A 
HETATM   20  C18 UNL     1      24.498   5.086  50.392  1.00  0.00     0.121 A 
HETATM   21  C19 UNL     1      25.408   4.864  49.206  1.00  0.00     0.019 A 
HETATM   22  C20 UNL     1      24.478   5.894  49.317  1.00  0.00     0.079 A 
HETATM   23  C21 UNL     1      23.445   6.989  49.511  1.00  0.00     0.107 A 
HETATM   24  N4  UNL     1      24.568   2.919  51.864  1.00  0.00     0.063 N 
HETATM   25  H9  UNL     1      23.225   2.408  48.682  1.00  0.00     0.315 HD
HETATM   26  H24 UNL     1      25.208   2.191  52.378  1.00  0.00     0.314 HD
ENDROOT
BRANCH   1  27
HETATM   27  C3  UNL     1      22.617  -0.227  53.363  1.00  0.00     0.018 C 
HETATM   28  C2  UNL     1      21.872  -0.619  54.415  1.00  0.00    -0.013 C 
HETATM   29  C1  UNL     1      22.901  -1.284  55.281  1.00  0.00     0.037 C 
HETATM   30 BR1  UNL     1      24.413  -0.686  53.566  1.00  0.00    -0.053 Br
ENDBRANCH   1  27
BRANCH  22  31
HETATM   31  O2  UNL     1      24.706   6.598  47.990  1.00  0.00    -0.388 OA
HETATM   32  H22 UNL     1      24.628   5.970  47.235  1.00  0.00     0.210 HD
ENDBRANCH  22  31
TORSDOF 2
ENDMDL
MODEL 8
REMARK VINA RESULT:      -8.0      3.279      4.609
REMARK  2 active torsions:
REMARK  status: ('A' for Active; 'I' for Inactive)
REMARK    1  A    between atoms: C3_3  and  C4_5 
REMARK    2  A    between atoms: C20_26  and  O2_27 
ROOT
HETATM    1  C4  UNL     1      23.405   1.749  51.164  1.00  0.00     0.208 A 
HETATM    2  C5  UNL     1      23.788   3.004  50.649  1.00  0.00     0.145 A 
HETATM    3  F1  UNL     1      24.274   1.946  51.458  1.00  0.00    -0.380 F 
HETATM    4  C6  UNL     1      24.959   3.613  51.160  1.00  0.00     0.236 A 
HETATM    5  C7  UNL     1      24.097   4.177  50.098  1.00  0.00     0.101 A 
HETATM    6  C8  UNL     1      22.848   3.918  49.271  1.00  0.00     0.280 C 
HETATM    7  N1  UNL     1      22.991   4.443  47.910  1.00  0.00     0.084 N 
HETATM    8  C9  UNL     1      21.897   4.136  47.089  1.00  0.00     0.269 C 
HETATM    9  C10 UNL     1      21.998   4.812  45.717  1.00  0.00     0.032 C 
HETATM   10  C11 UNL     1      22.098   6.291  45.851  1.00  0.00     0.028 C 
HETATM   11  C12 UNL     1      20.884   7.082  46.195  1.00  0.00     0.169 C 
HETATM   12  O1  UNL     1      21.386   8.434  46.646  1.00  0.00    -0.375 OA
HETATM   13  C13 UNL     1      22.099   8.193  47.980  1.00  0.00     0.114 A 
HETATM   14  C14 UNL     1      21.517   7.303  48.688  1.00  0.00     0.085 A 
HETATM   15  C15 UNL     1      22.700   7.588  49.743  1.00  0.00     0.032 A 
HETATM   16  N2  UNL     1      23.663   7.933  50.546  1.00  0.00    -0.250 NA
HETATM   17  C16 UNL     1      23.964   6.703  51.443  1.00  0.00     0.237 C 
HETATM   18  N3  UNL     1      24.805   5.821  51.052  1.00  0.00    -0.155 N 
HETATM   19  C17 UNL     1      25.538   5.929  49.728  1.00  0.00     0.313 A 
HETATM   20  C18 UNL     1      24.893   6.981  49.297  1.00  0.00     0.121 A 
HETATM   21  C19 UNL     1      25.621   7.037  47.973  1.00  0.00     0.019 A 
HETATM   22  C20 UNL     1      24.541   7.842  48.325  1.00  0.00     0.079 A 
HETATM   23  C21 UNL     1      23.362   8.682  48.779  1.00  0.00     0.107 A 
HETATM   24  N4  UNL     1      25.623   4.778  50.513  1.00  0.00     0.063 N 
HETATM   25  H9  UNL     1      23.899   4.225  47.526  1.00  0.00     0.315 HD
HETATM   26  H24 UNL     1      26.467   4.163  50.850  1.00  0.00     0.314 HD
ENDROOT
BRANCH   1  27
HETATM   27  C3  UNL     1      24.591   1.198  51.951  1.00  0.00     0.018 C 
HETATM   28  C2  UNL     1      24.137   0.733  53.132  1.00  0.00    -0.013 C 
HETATM   29  C1  UNL     1      25.398   0.215  53.757  1.00  0.00     0.037 C 
HETATM   30 BR1  UNL     1      26.432   0.968  51.770  1.00  0.00    -0.053 Br
ENDBRANCH   1  27
BRANCH  22  31
HETATM   31  O2  UNL     1      24.407   8.669  47.057  1.00  0.00    -0.388 OA
HETATM   32  H22 UNL     1      23.617   9.256  47.096  1.00  0.00     0.210 HD
ENDBRANCH  22  31
TORSDOF 2
ENDMDL
MODEL 9
REMARK VINA RESULT:      -7.8      3.992      5.873
REMARK  2 active torsions:
REMARK  status: ('A' for Active; 'I' for Inactive)
REMARK    1  A    between atoms: C3_3  and  C4_5 
REMARK    2  A    between atoms: C20_26  and  O2_27 
ROOT
HETATM    1  C4  UNL     1      25.699   7.189  47.768  1.00  0.00     0.208 A 
HETATM    2  C5  UNL     1      24.987   6.402  48.695  1.00  0.00     0.145 A 
HETATM    3  F1  UNL     1      26.094   7.285  48.613  1.00  0.00    -0.380 F 
HETATM    4  C6  UNL     1      25.549   6.199  49.978  1.00  0.00     0.236 A 
HETATM    5  C7  UNL     1      24.245   5.667  49.522  1.00  0.00     0.101 A 
HETATM    6  C8  UNL     1      23.287   5.626  48.343  1.00  0.00     0.280 C 
HETATM    7  N1  UNL     1      21.891   5.620  48.790  1.00  0.00     0.084 N 
HETATM    8  C9  UNL     1      20.977   5.682  47.730  1.00  0.00     0.269 C 
HETATM    9  C10 UNL     1      19.528   5.530  48.206  1.00  0.00     0.032 C 
HETATM   10  C11 UNL     1      19.332   4.248  48.936  1.00  0.00     0.028 C 
HETATM   11  C12 UNL     1      19.255   2.972  48.172  1.00  0.00     0.169 C 
HETATM   12  O1  UNL     1      19.464   1.870  49.185  1.00  0.00    -0.375 OA
HETATM   13  C13 UNL     1      20.925   1.983  49.630  1.00  0.00     0.114 A 
HETATM   14  C14 UNL     1      21.701   2.317  48.672  1.00  0.00     0.085 A 
HETATM   15  C15 UNL     1      22.860   2.243  49.788  1.00  0.00     0.032 A 
HETATM   16  N2  UNL     1      23.724   2.101  50.750  1.00  0.00    -0.250 NA
HETATM   17  C16 UNL     1      24.921   3.032  50.422  1.00  0.00     0.237 C 
HETATM   18  N3  UNL     1      24.906   4.251  50.814  1.00  0.00    -0.155 N 
HETATM   19  C17 UNL     1      23.750   4.834  51.605  1.00  0.00     0.313 A 
HETATM   20  C18 UNL     1      22.976   3.784  51.517  1.00  0.00     0.121 A 
HETATM   21  C19 UNL     1      21.832   4.410  52.282  1.00  0.00     0.019 A 
HETATM   22  C20 UNL     1      21.783   3.174  51.642  1.00  0.00     0.079 A 
HETATM   23  C21 UNL     1      21.807   1.838  50.924  1.00  0.00     0.107 A 
HETATM   24  N4  UNL     1      24.782   5.642  51.126  1.00  0.00     0.063 N 
HETATM   25  H9  UNL     1      21.741   6.286  49.534  1.00  0.00     0.315 HD
HETATM   26  H24 UNL     1      25.401   6.419  51.591  1.00  0.00     0.314 HD
ENDROOT
BRANCH   1  27
HETATM   27  C3  UNL     1      26.797   7.920  48.537  1.00  0.00     0.018 C 
HETATM   28  C2  UNL     1      27.984   7.612  47.979  1.00  0.00    -0.013 C 
HETATM   29  C1  UNL     1      28.930   8.415  48.821  1.00  0.00     0.037 C 
HETATM   30 BR1  UNL     1      26.983   9.092  49.975  1.00  0.00    -0.053 Br
ENDBRANCH   1  27
BRANCH  22  31
HETATM   31  O2  UNL     1      20.356   2.767  51.968  1.00  0.00    -0.388 OA
HETATM   32  H22 UNL     1      19.807   3.549  52.208  1.00  0.00     0.210 HD
ENDBRANCH  22  31
TORSDOF 2
ENDMDL
