MODEL 1
REMARK VINA RESULT:      -9.0      0.000      0.000
REMARK  2 active torsions:
REMARK  status: ('A' for Active; 'I' for Inactive)
REMARK    1  A    between atoms: O1_2  and  C2_3 
REMARK    2  A    between atoms: C6_7  and  O2_8 
ROOT
HETATM    1  C2  UNL     1      21.918   2.370  52.054  1.00  0.00     0.059 C 
HETATM    2  C3  UNL     1      22.935   1.559  51.922  1.00  0.00    -0.009 C 
HETATM    3  C4  UNL     1      24.237   1.810  51.203  1.00  0.00     0.101 C 
HETATM    4  C5  UNL     1      24.773   2.811  52.249  1.00  0.00     0.043 C 
HETATM    5  C6  UNL     1      23.854   3.804  52.259  1.00  0.00     0.072 C 
HETATM    6  C7  UNL     1      22.475   3.724  51.604  1.00  0.00     0.131 C 
HETATM    7  N1  UNL     1      25.926   2.823  53.137  1.00  0.00    -0.353 N 
HETATM    8  C8  UNL     1      26.509   1.599  53.693  1.00  0.00     0.096 A 
HETATM    9  C9  UNL     1      27.823   1.688  53.257  1.00  0.00     0.151 A 
HETATM   10  N2  UNL     1      28.899   0.854  53.427  1.00  0.00    -0.252 NA
HETATM   11  C10 UNL     1      28.567  -0.251  54.164  1.00  0.00     0.235 A 
HETATM   12  N3  UNL     1      27.305  -0.386  54.612  1.00  0.00    -0.222 NA
HETATM   13  C11 UNL     1      26.279   0.451  54.427  1.00  0.00     0.157 A 
HETATM   14  N4  UNL     1      25.263  -0.290  55.152  1.00  0.00    -0.339 N 
HETATM   15  C12 UNL     1      24.002  -0.533  54.585  1.00  0.00     0.036 A 
HETATM   16  C13 UNL     1      22.902  -1.328  54.710  1.00  0.00     0.056 A 
HETATM   17  C14 UNL     1      21.754  -1.274  53.950  1.00  0.00     0.075 A 
HETATM   18 CL1  UNL     1      20.426  -2.366  54.236  1.00  0.00    -0.081 Cl
HETATM   19  C15 UNL     1      21.510  -0.396  52.914  1.00  0.00     0.149 A 
HETATM   20  F1  UNL     1      20.618  -0.061  52.008  1.00  0.00    -0.203 F 
HETATM   21  C16 UNL     1      22.556   0.429  52.725  1.00  0.00     0.015 A 
HETATM   22  C17 UNL     1      23.645   0.281  53.541  1.00  0.00     0.044 A 
HETATM   23  H9  UNL     1      26.290   3.764  53.338  1.00  0.00     0.166 HD
HETATM   24  H12 UNL     1      25.230  -0.722  56.077  1.00  0.00     0.167 HD
ENDROOT
BRANCH   1  25
HETATM   25  O1  UNL     1      20.629   2.145  52.489  1.00  0.00    -0.359 OA
HETATM   26  C1  UNL     1      19.515   2.849  52.061  1.00  0.00     0.209 C 
ENDBRANCH   1  25
BRANCH   5  27
HETATM   27  O2  UNL     1      24.196   5.004  52.926  1.00  0.00    -0.363 OA
HETATM   28  H6  UNL     1      23.523   5.446  53.558  1.00  0.00     0.217 HD
ENDBRANCH   5  27
TORSDOF 2
ENDMDL
MODEL 2
REMARK VINA RESULT:      -8.5      3.582      6.174
REMARK  2 active torsions:
REMARK  status: ('A' for Active; 'I' for Inactive)
REMARK    1  A    between atoms: O1_2  and  C2_3 
REMARK    2  A    between atoms: C6_7  and  O2_8 
ROOT
HETATM    1  C2  UNL     1      26.985   0.912  52.897  1.00  0.00     0.059 C 
HETATM    2  C3  UNL     1      25.872   0.490  52.355  1.00  0.00    -0.009 C 
HETATM    3  C4  UNL     1      25.234  -0.871  52.483  1.00  0.00     0.101 C 
HETATM    4  C5  UNL     1      24.810  -0.680  53.955  1.00  0.00     0.043 C 
HETATM    5  C6  UNL     1      25.975  -0.463  54.609  1.00  0.00     0.072 C 
HETATM    6  C7  UNL     1      27.314  -0.165  53.934  1.00  0.00     0.131 C 
HETATM    7  N1  UNL     1      23.527  -0.651  54.640  1.00  0.00    -0.353 N 
HETATM    8  C8  UNL     1      22.299  -0.173  54.001  1.00  0.00     0.096 A 
HETATM    9  C9  UNL     1      21.465  -1.274  54.133  1.00  0.00     0.151 A 
HETATM   10  N2  UNL     1      20.170  -1.491  53.733  1.00  0.00    -0.252 NA
HETATM   11  C10 UNL     1      19.651  -0.397  53.094  1.00  0.00     0.235 A 
HETATM   12  N3  UNL     1      20.419   0.698  52.940  1.00  0.00    -0.222 NA
HETATM   13  C11 UNL     1      21.682   0.874  53.344  1.00  0.00     0.157 A 
HETATM   14  N4  UNL     1      21.874   2.230  52.865  1.00  0.00    -0.339 N 
HETATM   15  C12 UNL     1      23.011   2.580  52.119  1.00  0.00     0.036 A 
HETATM   16  C13 UNL     1      23.494   3.541  51.282  1.00  0.00     0.056 A 
HETATM   17  C14 UNL     1      24.750   3.586  50.716  1.00  0.00     0.075 A 
HETATM   18 CL1  UNL     1      25.219   4.890  49.659  1.00  0.00    -0.081 Cl
HETATM   19  C15 UNL     1      25.754   2.657  50.897  1.00  0.00     0.149 A 
HETATM   20  F1  UNL     1      26.986   2.361  50.550  1.00  0.00    -0.203 F 
HETATM   21  C16 UNL     1      25.353   1.668  51.718  1.00  0.00     0.015 A 
HETATM   22  C17 UNL     1      24.080   1.728  52.220  1.00  0.00     0.044 A 
HETATM   23  H9  UNL     1      23.563  -0.993  55.611  1.00  0.00     0.166 HD
HETATM   24  H12 UNL     1      21.332   3.092  52.949  1.00  0.00     0.167 HD
ENDROOT
BRANCH   1  25
HETATM   25  O1  UNL     1      27.740   2.040  52.654  1.00  0.00    -0.359 OA
HETATM   26  C1  UNL     1      28.715   2.538  53.503  1.00  0.00     0.209 C 
ENDBRANCH   1  25
BRANCH   5  27
HETATM   27  O2  UNL     1      25.949  -0.515  56.023  1.00  0.00    -0.363 OA
HETATM   28  H6  UNL     1      26.820  -0.647  56.545  1.00  0.00     0.217 HD
ENDBRANCH   5  27
TORSDOF 2
ENDMDL
MODEL 3
REMARK VINA RESULT:      -8.4      3.161      5.294
REMARK  2 active torsions:
REMARK  status: ('A' for Active; 'I' for Inactive)
REMARK    1  A    between atoms: O1_2  and  C2_3 
REMARK    2  A    between atoms: C6_7  and  O2_8 
ROOT
HETATM    1  C2  UNL     1      21.620   0.033  52.464  1.00  0.00     0.059 C 
HETATM    2  C3  UNL     1      22.320   0.858  51.729  1.00  0.00    -0.009 C 
HETATM    3  C4  UNL     1      21.891   1.573  50.472  1.00  0.00     0.101 C 
HETATM    4  C5  UNL     1      20.928   2.540  51.192  1.00  0.00     0.043 C 
HETATM    5  C6  UNL     1      20.030   1.725  51.794  1.00  0.00     0.072 C 
HETATM    6  C7  UNL     1      20.190   0.212  51.949  1.00  0.00     0.131 C 
HETATM    7  N1  UNL     1      20.874   3.986  51.343  1.00  0.00    -0.353 N 
HETATM    8  C8  UNL     1      22.076   4.824  51.370  1.00  0.00     0.096 A 
HETATM    9  C9  UNL     1      21.830   5.704  50.327  1.00  0.00     0.151 A 
HETATM   10  N2  UNL     1      22.569   6.740  49.813  1.00  0.00    -0.252 NA
HETATM   11  C10 UNL     1      23.754   6.892  50.483  1.00  0.00     0.235 A 
HETATM   12  N3  UNL     1      24.041   6.064  51.504  1.00  0.00    -0.222 NA
HETATM   13  C11 UNL     1      23.293   5.062  51.978  1.00  0.00     0.157 A 
HETATM   14  N4  UNL     1      24.181   4.613  53.035  1.00  0.00    -0.339 N 
HETATM   15  C12 UNL     1      24.499   3.254  53.185  1.00  0.00     0.036 A 
HETATM   16  C13 UNL     1      25.401   2.419  53.773  1.00  0.00     0.056 A 
HETATM   17  C14 UNL     1      25.398   1.042  53.735  1.00  0.00     0.075 A 
HETATM   18 CL1  UNL     1      26.630   0.111  54.543  1.00  0.00    -0.081 Cl
HETATM   19  C15 UNL     1      24.471   0.252  53.086  1.00  0.00     0.149 A 
HETATM   20  F1  UNL     1      24.154  -0.997  52.824  1.00  0.00    -0.203 F 
HETATM   21  C16 UNL     1      23.538   1.006  52.476  1.00  0.00     0.015 A 
HETATM   22  C17 UNL     1      23.644   2.367  52.582  1.00  0.00     0.044 A 
HETATM   23  H9  UNL     1      19.921   4.363  51.432  1.00  0.00     0.166 HD
HETATM   24  H12 UNL     1      24.683   5.092  53.786  1.00  0.00     0.167 HD
ENDROOT
BRANCH   1  25
HETATM   25  O1  UNL     1      22.000  -0.822  53.478  1.00  0.00    -0.359 OA
HETATM   26  C1  UNL     1      21.126  -1.561  54.259  1.00  0.00     0.209 C 
ENDBRANCH   1  25
BRANCH   5  27
HETATM   27  O2  UNL     1      18.857   2.319  52.317  1.00  0.00    -0.363 OA
HETATM   28  H6  UNL     1      17.998   1.768  52.397  1.00  0.00     0.217 HD
ENDBRANCH   5  27
TORSDOF 2
ENDMDL
MODEL 4
REMARK VINA RESULT:      -8.3      3.421      5.965
REMARK  2 active torsions:
REMARK  status: ('A' for Active; 'I' for Inactive)
REMARK    1  A    between atoms: O1_2  and  C2_3 
REMARK    2  A    between atoms: C6_7  and  O2_8 
ROOT
HETATM    1  C2  UNL     1      23.238  -0.839  54.100  1.00  0.00     0.059 C 
HETATM    2  C3  UNL     1      23.106  -0.162  52.990  1.00  0.00    -0.009 C 
HETATM    3  C4  UNL     1      21.873  -0.011  52.134  1.00  0.00     0.101 C 
HETATM    4  C5  UNL     1      21.126   0.891  53.138  1.00  0.00     0.043 C 
HETATM    5  C6  UNL     1      21.031   0.136  54.257  1.00  0.00     0.072 C 
HETATM    6  C7  UNL     1      21.796  -1.167  54.498  1.00  0.00     0.131 C 
HETATM    7  N1  UNL     1      20.623   2.256  53.089  1.00  0.00    -0.353 N 
HETATM    8  C8  UNL     1      21.262   3.307  52.293  1.00  0.00     0.096 A 
HETATM    9  C9  UNL     1      20.217   3.720  51.479  1.00  0.00     0.151 A 
HETATM   10  N2  UNL     1      20.150   4.672  50.493  1.00  0.00    -0.252 NA
HETATM   11  C10 UNL     1      21.355   5.298  50.316  1.00  0.00     0.235 A 
HETATM   12  N3  UNL     1      22.401   4.935  51.081  1.00  0.00    -0.222 NA
HETATM   13  C11 UNL     1      22.430   4.000  52.036  1.00  0.00     0.157 A 
HETATM   14  N4  UNL     1      23.821   4.133  52.427  1.00  0.00    -0.339 N 
HETATM   15  C12 UNL     1      24.649   3.006  52.550  1.00  0.00     0.036 A 
HETATM   16  C13 UNL     1      25.959   2.636  52.610  1.00  0.00     0.056 A 
HETATM   17  C14 UNL     1      26.449   1.358  52.773  1.00  0.00     0.075 A 
HETATM   18 CL1  UNL     1      28.163   1.047  52.830  1.00  0.00    -0.081 Cl
HETATM   19  C15 UNL     1      25.693   0.212  52.905  1.00  0.00     0.149 A 
HETATM   20  F1  UNL     1      25.777  -1.091  53.053  1.00  0.00    -0.203 F 
HETATM   21  C16 UNL     1      24.378   0.494  52.856  1.00  0.00     0.015 A 
HETATM   22  C17 UNL     1      24.008   1.802  52.689  1.00  0.00     0.044 A 
HETATM   23  H9  UNL     1      19.784   2.415  53.664  1.00  0.00     0.166 HD
HETATM   24  H12 UNL     1      24.413   4.930  52.667  1.00  0.00     0.167 HD
ENDROOT
BRANCH   1  25
HETATM   25  O1  UNL     1      24.363  -1.208  54.809  1.00  0.00    -0.359 OA
HETATM   26  C1  UNL     1      24.484  -1.148  56.188  1.00  0.00     0.209 C 
ENDBRANCH   1  25
BRANCH   5  27
HETATM   27  O2  UNL     1      20.160   0.585  55.277  1.00  0.00    -0.363 OA
HETATM   28  H6  UNL     1      19.913  -0.041  56.049  1.00  0.00     0.217 HD
ENDBRANCH   5  27
TORSDOF 2
ENDMDL
MODEL 5
REMARK VINA RESULT:      -8.2      3.133      5.299
REMARK  2 active torsions:
REMARK  status: ('A' for Active; 'I' for Inactive)
REMARK    1  A    between atoms: O1_2  and  C2_3 
REMARK    2  A    between atoms: C6_7  and  O2_8 
ROOT
HETATM    1  C2  UNL     1      25.762   0.639  52.824  1.00  0.00     0.059 C 
HETATM    2  C3  UNL     1      24.817   1.518  53.032  1.00  0.00    -0.009 C 
HETATM    3  C4  UNL     1      24.930   3.023  53.016  1.00  0.00     0.101 C 
HETATM    4  C5  UNL     1      25.118   3.125  51.488  1.00  0.00     0.043 C 
HETATM    5  C6  UNL     1      26.237   2.405  51.243  1.00  0.00     0.072 C 
HETATM    6  C7  UNL     1      26.911   1.470  52.248  1.00  0.00     0.131 C 
HETATM    7  N1  UNL     1      24.355   3.747  50.417  1.00  0.00    -0.353 N 
HETATM    8  C8  UNL     1      22.898   3.891  50.462  1.00  0.00     0.096 A 
HETATM    9  C9  UNL     1      22.744   5.262  50.315  1.00  0.00     0.151 A 
HETATM   10  N2  UNL     1      21.625   6.056  50.283  1.00  0.00    -0.252 NA
HETATM   11  C10 UNL     1      20.481   5.319  50.428  1.00  0.00     0.235 A 
HETATM   12  N3  UNL     1      20.574   3.984  50.575  1.00  0.00    -0.222 NA
HETATM   13  C11 UNL     1      21.686   3.241  50.600  1.00  0.00     0.157 A 
HETATM   14  N4  UNL     1      21.071   1.940  50.782  1.00  0.00    -0.339 N 
HETATM   15  C12 UNL     1      21.531   1.053  51.769  1.00  0.00     0.036 A 
HETATM   16  C13 UNL     1      21.169  -0.058  52.470  1.00  0.00     0.056 A 
HETATM   17  C14 UNL     1      21.928  -0.727  53.406  1.00  0.00     0.075 A 
HETATM   18 CL1  UNL     1      21.319  -2.142  54.221  1.00  0.00    -0.081 Cl
HETATM   19  C15 UNL     1      23.204  -0.388  53.806  1.00  0.00     0.149 A 
HETATM   20  F1  UNL     1      24.179  -0.736  54.616  1.00  0.00    -0.203 F 
HETATM   21  C16 UNL     1      23.638   0.708  53.155  1.00  0.00     0.015 A 
HETATM   22  C17 UNL     1      22.795   1.290  52.247  1.00  0.00     0.044 A 
HETATM   23  H9  UNL     1      24.930   4.073  49.627  1.00  0.00     0.166 HD
HETATM   24  H12 UNL     1      20.305   1.449  50.316  1.00  0.00     0.167 HD
ENDROOT
BRANCH   1  25
HETATM   25  O1  UNL     1      25.795  -0.724  53.039  1.00  0.00    -0.359 OA
HETATM   26  C1  UNL     1      26.819  -1.564  52.634  1.00  0.00     0.209 C 
ENDBRANCH   1  25
BRANCH   5  27
HETATM   27  O2  UNL     1      26.824   2.526  49.961  1.00  0.00    -0.363 OA
HETATM   28  H6  UNL     1      27.411   1.771  49.596  1.00  0.00     0.217 HD
ENDBRANCH   5  27
TORSDOF 2
ENDMDL
MODEL 6
REMARK VINA RESULT:      -8.0      3.903      6.673
REMARK  2 active torsions:
REMARK  status: ('A' for Active; 'I' for Inactive)
REMARK    1  A    between atoms: O1_2  and  C2_3 
REMARK    2  A    between atoms: C6_7  and  O2_8 
ROOT
HETATM    1  C2  UNL     1      23.521  -0.054  53.347  1.00  0.00     0.059 C 
HETATM    2  C3  UNL     1      22.901   0.426  52.301  1.00  0.00    -0.009 C 
HETATM    3  C4  UNL     1      21.525   0.071  51.792  1.00  0.00     0.101 C 
HETATM    4  C5  UNL     1      20.775   0.771  52.945  1.00  0.00     0.043 C 
HETATM    5  C6  UNL     1      21.219   0.144  54.059  1.00  0.00     0.072 C 
HETATM    6  C7  UNL     1      22.422  -0.799  54.109  1.00  0.00     0.131 C 
HETATM    7  N1  UNL     1      19.835   1.879  53.011  1.00  0.00    -0.353 N 
HETATM    8  C8  UNL     1      19.859   2.996  52.064  1.00  0.00     0.096 A 
HETATM    9  C9  UNL     1      18.574   2.955  51.545  1.00  0.00     0.151 A 
HETATM   10  N2  UNL     1      17.947   3.726  50.598  1.00  0.00    -0.252 NA
HETATM   11  C10 UNL     1      18.780   4.696  50.107  1.00  0.00     0.235 A 
HETATM   12  N3  UNL     1      20.038   4.779  50.578  1.00  0.00    -0.222 NA
HETATM   13  C11 UNL     1      20.617   4.008  51.505  1.00  0.00     0.157 A 
HETATM   14  N4  UNL     1      21.926   4.634  51.519  1.00  0.00    -0.339 N 
HETATM   15  C12 UNL     1      23.097   3.864  51.437  1.00  0.00     0.036 A 
HETATM   16  C13 UNL     1      24.428   3.958  51.159  1.00  0.00     0.056 A 
HETATM   17  C14 UNL     1      25.354   2.938  51.205  1.00  0.00     0.075 A 
HETATM   18 CL1  UNL     1      27.030   3.220  50.819  1.00  0.00    -0.081 Cl
HETATM   19  C15 UNL     1      25.097   1.625  51.543  1.00  0.00     0.149 A 
HETATM   20  F1  UNL     1      25.661   0.446  51.680  1.00  0.00    -0.203 F 
HETATM   21  C16 UNL     1      23.795   1.449  51.833  1.00  0.00     0.015 A 
HETATM   22  C17 UNL     1      22.966   2.536  51.752  1.00  0.00     0.044 A 
HETATM   23  H9  UNL     1      19.156   1.808  53.783  1.00  0.00     0.166 HD
HETATM   24  H12 UNL     1      22.244   5.602  51.588  1.00  0.00     0.167 HD
ENDROOT
BRANCH   1  25
HETATM   25  O1  UNL     1      24.839   0.044  53.744  1.00  0.00    -0.359 OA
HETATM   26  C1  UNL     1      25.386  -0.607  54.837  1.00  0.00     0.209 C 
ENDBRANCH   1  25
BRANCH   5  27
HETATM   27  O2  UNL     1      20.518   0.379  55.265  1.00  0.00    -0.363 OA
HETATM   28  H6  UNL     1      20.357  -0.391  55.920  1.00  0.00     0.217 HD
ENDBRANCH   5  27
TORSDOF 2
ENDMDL
MODEL 7
REMARK VINA RESULT:      -7.8      3.478      4.981
REMARK  2 active torsions:
REMARK  status: ('A' for Active; 'I' for Inactive)
REMARK    1  A    between atoms: O1_2  and  C2_3 
REMARK    2  A    between atoms: C6_7  and  O2_8 
ROOT
HETATM    1  C2  UNL     1      22.142   3.546  50.341  1.00  0.00     0.059 C 
HETATM    2  C3  UNL     1      23.020   3.504  51.308  1.00  0.00    -0.009 C 
HETATM    3  C4  UNL     1      22.829   2.995  52.716  1.00  0.00     0.101 C 
HETATM    4  C5  UNL     1      22.747   1.509  52.307  1.00  0.00     0.043 C 
HETATM    5  C6  UNL     1      21.689   1.454  51.466  1.00  0.00     0.072 C 
HETATM    6  C7  UNL     1      20.994   2.673  50.856  1.00  0.00     0.131 C 
HETATM    7  N1  UNL     1      23.551   0.334  52.607  1.00  0.00    -0.353 N 
HETATM    8  C8  UNL     1      24.991   0.405  52.865  1.00  0.00     0.096 A 
HETATM    9  C9  UNL     1      25.082  -0.172  54.123  1.00  0.00     0.151 A 
HETATM   10  N2  UNL     1      26.156  -0.403  54.946  1.00  0.00    -0.252 NA
HETATM   11  C10 UNL     1      27.325   0.032  54.381  1.00  0.00     0.235 A 
HETATM   12  N3  UNL     1      27.292   0.600  53.161  1.00  0.00    -0.222 NA
HETATM   13  C11 UNL     1      26.223   0.808  52.385  1.00  0.00     0.157 A 
HETATM   14  N4  UNL     1      26.892   1.435  51.260  1.00  0.00    -0.339 N 
HETATM   15  C12 UNL     1      26.409   2.631  50.706  1.00  0.00     0.036 A 
HETATM   16  C13 UNL     1      26.779   3.673  49.909  1.00  0.00     0.056 A 
HETATM   17  C14 UNL     1      25.991   4.736  49.522  1.00  0.00     0.075 A 
HETATM   18 CL1  UNL     1      26.614   5.996  48.493  1.00  0.00    -0.081 Cl
HETATM   19  C15 UNL     1      24.673   4.938  49.876  1.00  0.00     0.149 A 
HETATM   20  F1  UNL     1      23.662   5.766  49.735  1.00  0.00    -0.203 F 
HETATM   21  C16 UNL     1      24.229   3.945  50.669  1.00  0.00     0.015 A 
HETATM   22  C17 UNL     1      25.104   2.941  50.990  1.00  0.00     0.044 A 
HETATM   23  H9  UNL     1      23.018  -0.547  52.619  1.00  0.00     0.166 HD
HETATM   24  H12 UNL     1      27.714   1.193  50.704  1.00  0.00     0.167 HD
ENDROOT
BRANCH   1  25
HETATM   25  O1  UNL     1      22.166   4.190  49.121  1.00  0.00    -0.359 OA
HETATM   26  C1  UNL     1      21.719   3.644  47.929  1.00  0.00     0.209 C 
ENDBRANCH   1  25
BRANCH   5  27
HETATM   27  O2  UNL     1      21.190   0.175  51.126  1.00  0.00    -0.363 OA
HETATM   28  H6  UNL     1      21.668  -0.387  50.415  1.00  0.00     0.217 HD
ENDBRANCH   5  27
TORSDOF 2
ENDMDL
MODEL 8
REMARK VINA RESULT:      -7.8      1.874      2.390
REMARK  2 active torsions:
REMARK  status: ('A' for Active; 'I' for Inactive)
REMARK    1  A    between atoms: O1_2  and  C2_3 
REMARK    2  A    between atoms: C6_7  and  O2_8 
ROOT
HETATM    1  C2  UNL     1      21.462   4.037  50.620  1.00  0.00     0.059 C 
HETATM    2  C3  UNL     1      22.254   3.004  50.499  1.00  0.00    -0.009 C 
HETATM    3  C4  UNL     1      23.709   2.990  50.100  1.00  0.00     0.101 C 
HETATM    4  C5  UNL     1      24.212   3.613  51.418  1.00  0.00     0.043 C 
HETATM    5  C6  UNL     1      23.585   4.810  51.480  1.00  0.00     0.072 C 
HETATM    6  C7  UNL     1      22.418   5.232  50.586  1.00  0.00     0.131 C 
HETATM    7  N1  UNL     1      25.095   3.153  52.480  1.00  0.00    -0.353 N 
HETATM    8  C8  UNL     1      25.219   1.741  52.850  1.00  0.00     0.096 A 
HETATM    9  C9  UNL     1      26.579   1.525  52.688  1.00  0.00     0.151 A 
HETATM   10  N2  UNL     1      27.352   0.404  52.862  1.00  0.00    -0.252 NA
HETATM   11  C10 UNL     1      26.600  -0.667  53.266  1.00  0.00     0.235 A 
HETATM   12  N3  UNL     1      25.275  -0.510  53.439  1.00  0.00    -0.222 NA
HETATM   13  C11 UNL     1      24.553   0.602  53.260  1.00  0.00     0.157 A 
HETATM   14  N4  UNL     1      23.249   0.071  53.610  1.00  0.00    -0.339 N 
HETATM   15  C12 UNL     1      22.134   0.290  52.786  1.00  0.00     0.036 A 
HETATM   16  C13 UNL     1      20.876  -0.170  52.534  1.00  0.00     0.056 A 
HETATM   17  C14 UNL     1      19.984   0.330  51.610  1.00  0.00     0.075 A 
HETATM   18 CL1  UNL     1      18.403  -0.373  51.405  1.00  0.00    -0.081 Cl
HETATM   19  C15 UNL     1      20.208   1.398  50.765  1.00  0.00     0.149 A 
HETATM   20  F1  UNL     1      19.658   2.114  49.809  1.00  0.00    -0.203 F 
HETATM   21  C16 UNL     1      21.437   1.913  50.953  1.00  0.00     0.015 A 
HETATM   22  C17 UNL     1      22.238   1.331  51.899  1.00  0.00     0.044 A 
HETATM   23  H9  UNL     1      25.620   3.907  52.945  1.00  0.00     0.166 HD
HETATM   24  H12 UNL     1      22.899  -0.479  54.397  1.00  0.00     0.167 HD
ENDROOT
BRANCH   1  25
HETATM   25  O1  UNL     1      20.091   4.118  50.755  1.00  0.00    -0.359 OA
HETATM   26  C1  UNL     1      19.294   5.083  50.162  1.00  0.00     0.209 C 
ENDBRANCH   1  25
BRANCH   5  27
HETATM   27  O2  UNL     1      24.043   5.739  52.445  1.00  0.00    -0.363 OA
HETATM   28  H6  UNL     1      24.612   5.417  53.232  1.00  0.00     0.217 HD
ENDBRANCH   5  27
TORSDOF 2
ENDMDL
MODEL 9
REMARK VINA RESULT:      -7.8      8.366     10.540
REMARK  2 active torsions:
REMARK  status: ('A' for Active; 'I' for Inactive)
REMARK    1  A    between atoms: O1_2  and  C2_3 
REMARK    2  A    between atoms: C6_7  and  O2_8 
ROOT
HETATM    1  C2  UNL     1      27.199   5.843  48.623  1.00  0.00     0.059 C 
HETATM    2  C3  UNL     1      27.802   6.824  48.004  1.00  0.00    -0.009 C 
HETATM    3  C4  UNL     1      27.179   8.033  47.351  1.00  0.00     0.101 C 
HETATM    4  C5  UNL     1      26.777   8.707  48.679  1.00  0.00     0.043 C 
HETATM    5  C6  UNL     1      25.951   7.811  49.269  1.00  0.00     0.072 C 
HETATM    6  C7  UNL     1      25.771   6.361  48.817  1.00  0.00     0.131 C 
HETATM    7  N1  UNL     1      27.138   9.959  49.326  1.00  0.00    -0.353 N 
HETATM    8  C8  UNL     1      28.450  10.587  49.158  1.00  0.00     0.096 A 
HETATM    9  C9  UNL     1      28.105  11.839  48.672  1.00  0.00     0.151 A 
HETATM   10  N2  UNL     1      28.869  12.916  48.297  1.00  0.00    -0.252 NA
HETATM   11  C10 UNL     1      30.206  12.659  48.446  1.00  0.00     0.235 A 
HETATM   12  N3  UNL     1      30.595  11.459  48.915  1.00  0.00    -0.222 NA
HETATM   13  C11 UNL     1      29.819  10.431  49.272  1.00  0.00     0.157 A 
HETATM   14  N4  UNL     1      30.861   9.500  49.663  1.00  0.00    -0.339 N 
HETATM   15  C12 UNL     1      30.861   8.176  49.197  1.00  0.00     0.036 A 
HETATM   16  C13 UNL     1      31.668   7.087  49.050  1.00  0.00     0.056 A 
HETATM   17  C14 UNL     1      31.309   5.856  48.546  1.00  0.00     0.075 A 
HETATM   18 CL1  UNL     1      32.465   4.557  48.422  1.00  0.00    -0.081 Cl
HETATM   19  C15 UNL     1      30.055   5.501  48.092  1.00  0.00     0.149 A 
HETATM   20  F1  UNL     1      29.370   4.511  47.566  1.00  0.00    -0.203 F 
HETATM   21  C16 UNL     1      29.193   6.529  48.204  1.00  0.00     0.015 A 
HETATM   22  C17 UNL     1      29.664   7.707  48.719  1.00  0.00     0.044 A 
HETATM   23  H9  UNL     1      26.391  10.360  49.911  1.00  0.00     0.166 HD
HETATM   24  H12 UNL     1      31.683   9.573  50.266  1.00  0.00     0.167 HD
ENDROOT
BRANCH   1  25
HETATM   25  O1  UNL     1      27.663   4.613  49.040  1.00  0.00    -0.359 OA
HETATM   26  C1  UNL     1      26.870   3.605  49.564  1.00  0.00     0.209 C 
ENDBRANCH   1  25
BRANCH   5  27
HETATM   27  O2  UNL     1      25.201   8.249  50.385  1.00  0.00    -0.363 OA
HETATM   28  H6  UNL     1      24.776   7.564  51.015  1.00  0.00     0.217 HD
ENDBRANCH   5  27
TORSDOF 2
ENDMDL
