MODEL 1
REMARK VINA RESULT:      -8.5      0.000      0.000
REMARK  7 active torsions:
REMARK  status: ('A' for Active; 'I' for Inactive)
REMARK    1  A    between atoms: O1_2  and  C2_3 
REMARK    2  A    between atoms: C4_5  and  C5_6 
REMARK    3  A    between atoms: C5_6  and  C6_7 
REMARK    4  A    between atoms: C9_10  and  C10_11 
REMARK    5  A    between atoms: C15_17  and  O2_18 
REMARK    6  A    between atoms: N1_19  and  N2_20 
REMARK    7  A    between atoms: C20_27  and  O3_28 
ROOT
HETATM    1  C6  UNL     1      24.651   3.115  51.685  1.00  0.00     0.030 C 
HETATM    2  C7  UNL     1      23.782   4.038  50.983  1.00  0.00     0.037 C 
HETATM    3  C8  UNL     1      24.843   4.373  49.934  1.00  0.00    -0.006 C 
HETATM    4  C9  UNL     1      25.638   5.343  49.482  1.00  0.00     0.086 C 
HETATM    5  N1  UNL     1      26.972   4.663  49.700  1.00  0.00    -0.223 N 
HETATM    6  N3  UNL     1      27.115   3.389  50.575  1.00  0.00    -0.129 NA
HETATM    7  N4  UNL     1      25.794   3.121  50.851  1.00  0.00    -0.293 N 
HETATM    8  C16 UNL     1      25.205   2.901  49.472  1.00  0.00     0.185 C 
HETATM    9  H14 UNL     1      27.696   3.699  51.351  1.00  0.00     0.174 HD
ENDROOT
BRANCH   1  10
HETATM   10  C5  UNL     1      24.442   2.473  52.971  1.00  0.00     0.097 C 
BRANCH  10  11
HETATM   11  C4  UNL     1      25.556   1.491  53.241  1.00  0.00    -0.049 A 
HETATM   12  C3  UNL     1      26.581   1.884  54.078  1.00  0.00     0.047 A 
HETATM   13  C2  UNL     1      27.533   0.908  54.259  1.00  0.00     0.102 A 
HETATM   14  C20 UNL     1      27.539  -0.355  53.699  1.00  0.00     0.107 A 
HETATM   15  C18 UNL     1      26.457  -0.653  52.867  1.00  0.00    -0.025 A 
HETATM   16  C17 UNL     1      25.458   0.262  52.629  1.00  0.00     0.017 A 
HETATM   17  C19 UNL     1      26.434  -2.004  52.253  1.00  0.00     0.051 C 
BRANCH  13  18
HETATM   18  O1  UNL     1      28.608   1.245  55.105  1.00  0.00    -0.353 OA
HETATM   19  C1  UNL     1      29.627   2.127  54.668  1.00  0.00     0.210 C 
ENDBRANCH  13  18
BRANCH  14  20
HETATM   20  O3  UNL     1      28.600  -1.221  54.000  1.00  0.00    -0.353 OA
HETATM   21  C21 UNL     1      29.796  -1.218  53.245  1.00  0.00     0.210 C 
ENDBRANCH  14  20
ENDBRANCH  10  11
ENDBRANCH   1  10
BRANCH   4  22
HETATM   22  C10 UNL     1      24.892   6.474  49.103  1.00  0.00     0.028 A 
HETATM   23  C11 UNL     1      23.952   6.529  48.127  1.00  0.00     0.035 A 
HETATM   24  C12 UNL     1      23.382   7.759  47.969  1.00  0.00     0.012 A 
HETATM   25 BR1  UNL     1      22.050   7.821  46.577  1.00  0.00    -0.051 Br
HETATM   26  C13 UNL     1      23.716   8.858  48.723  1.00  0.00     0.022 A 
HETATM   27  C14 UNL     1      24.670   8.809  49.715  1.00  0.00     0.039 A 
HETATM   28  C15 UNL     1      25.273   7.558  49.899  1.00  0.00     0.078 A 
BRANCH  28  29
HETATM   29  O2  UNL     1      26.223   7.578  50.913  1.00  0.00    -0.360 OA
HETATM   30  H11 UNL     1      26.619   8.420  51.299  1.00  0.00     0.217 HD
ENDBRANCH  28  29
ENDBRANCH   4  22
BRANCH   5  31
HETATM   31  N2  UNL     1      27.833   5.489  48.972  1.00  0.00    -0.230 NA
HETATM   32  H12 UNL     1      28.172   4.923  48.154  1.00  0.00     0.144 HD
HETATM   33  H13 UNL     1      28.612   5.756  49.615  1.00  0.00     0.144 HD
ENDBRANCH   5  31
TORSDOF 7
ENDMDL
MODEL 2
REMARK VINA RESULT:      -8.3      5.046      7.524
REMARK  7 active torsions:
REMARK  status: ('A' for Active; 'I' for Inactive)
REMARK    1  A    between atoms: O1_2  and  C2_3 
REMARK    2  A    between atoms: C4_5  and  C5_6 
REMARK    3  A    between atoms: C5_6  and  C6_7 
REMARK    4  A    between atoms: C9_10  and  C10_11 
REMARK    5  A    between atoms: C15_17  and  O2_18 
REMARK    6  A    between atoms: N1_19  and  N2_20 
REMARK    7  A    between atoms: C20_27  and  O3_28 
ROOT
HETATM    1  C6  UNL     1      22.983   1.500  51.139  1.00  0.00     0.030 C 
HETATM    2  C7  UNL     1      23.704   0.773  52.164  1.00  0.00     0.037 C 
HETATM    3  C8  UNL     1      24.847   1.788  52.199  1.00  0.00    -0.006 C 
HETATM    4  C9  UNL     1      26.139   1.960  51.921  1.00  0.00     0.086 C 
HETATM    5  N1  UNL     1      26.006   3.089  50.922  1.00  0.00    -0.223 N 
HETATM    6  N3  UNL     1      24.644   3.471  50.285  1.00  0.00    -0.129 NA
HETATM    7  N4  UNL     1      23.795   2.648  50.989  1.00  0.00    -0.293 N 
HETATM    8  C16 UNL     1      23.997   3.107  52.418  1.00  0.00     0.185 C 
HETATM    9  H14 UNL     1      24.777   3.263  49.298  1.00  0.00     0.174 HD
ENDROOT
BRANCH   1  10
HETATM   10  C5  UNL     1      21.815   1.082  50.384  1.00  0.00     0.097 C 
BRANCH  10  11
HETATM   11  C4  UNL     1      20.804   0.449  51.309  1.00  0.00    -0.049 A 
HETATM   12  C3  UNL     1      21.267  -0.163  52.457  1.00  0.00     0.047 A 
HETATM   13  C2  UNL     1      20.259  -0.695  53.227  1.00  0.00     0.102 A 
HETATM   14  C20 UNL     1      18.905  -0.665  52.953  1.00  0.00     0.107 A 
HETATM   15  C18 UNL     1      18.542  -0.023  51.766  1.00  0.00    -0.025 A 
HETATM   16  C17 UNL     1      19.483   0.539  50.934  1.00  0.00     0.017 A 
HETATM   17  C19 UNL     1      17.094   0.026  51.445  1.00  0.00     0.051 C 
BRANCH  13  18
HETATM   18  O1  UNL     1      20.664  -1.334  54.415  1.00  0.00    -0.353 OA
HETATM   19  C1  UNL     1      21.971  -1.151  54.929  1.00  0.00     0.210 C 
ENDBRANCH  13  18
BRANCH  14  20
HETATM   20  O3  UNL     1      18.020  -1.265  53.860  1.00  0.00    -0.353 OA
HETATM   21  C21 UNL     1      17.642  -2.622  53.740  1.00  0.00     0.210 C 
ENDBRANCH  14  20
ENDBRANCH  10  11
ENDBRANCH   1  10
BRANCH   4  22
HETATM   22  C10 UNL     1      26.936   1.026  52.607  1.00  0.00     0.028 A 
HETATM   23  C11 UNL     1      27.049  -0.296  52.326  1.00  0.00     0.035 A 
HETATM   24  C12 UNL     1      27.896  -0.972  53.156  1.00  0.00     0.012 A 
HETATM   25 BR1  UNL     1      28.044  -2.851  52.746  1.00  0.00    -0.051 Br
HETATM   26  C13 UNL     1      28.583  -0.385  54.190  1.00  0.00     0.022 A 
HETATM   27  C14 UNL     1      28.472   0.957  54.481  1.00  0.00     0.039 A 
HETATM   28  C15 UNL     1      27.609   1.677  53.645  1.00  0.00     0.078 A 
BRANCH  28  29
HETATM   29  O2  UNL     1      27.543   3.021  53.992  1.00  0.00    -0.360 OA
HETATM   30  H11 UNL     1      26.784   3.633  53.740  1.00  0.00     0.217 HD
ENDBRANCH  28  29
ENDBRANCH   4  22
BRANCH   5  31
HETATM   31  N2  UNL     1      27.329   3.529  50.814  1.00  0.00    -0.230 NA
HETATM   32  H12 UNL     1      27.298   4.453  50.314  1.00  0.00     0.144 HD
HETATM   33  H13 UNL     1      27.846   2.803  50.268  1.00  0.00     0.144 HD
ENDBRANCH   5  31
TORSDOF 7
ENDMDL
MODEL 3
REMARK VINA RESULT:      -8.3      4.528      8.239
REMARK  7 active torsions:
REMARK  status: ('A' for Active; 'I' for Inactive)
REMARK    1  A    between atoms: O1_2  and  C2_3 
REMARK    2  A    between atoms: C4_5  and  C5_6 
REMARK    3  A    between atoms: C5_6  and  C6_7 
REMARK    4  A    between atoms: C9_10  and  C10_11 
REMARK    5  A    between atoms: C15_17  and  O2_18 
REMARK    6  A    between atoms: N1_19  and  N2_20 
REMARK    7  A    between atoms: C20_27  and  O3_28 
ROOT
HETATM    1  C6  UNL     1      22.982   0.940  52.072  1.00  0.00     0.030 C 
HETATM    2  C7  UNL     1      23.928   0.363  53.006  1.00  0.00     0.037 C 
HETATM    3  C8  UNL     1      24.962   1.465  52.770  1.00  0.00    -0.006 C 
HETATM    4  C9  UNL     1      26.168   1.715  52.261  1.00  0.00     0.086 C 
HETATM    5  N1  UNL     1      25.767   2.740  51.223  1.00  0.00    -0.223 N 
HETATM    6  N3  UNL     1      24.288   2.956  50.805  1.00  0.00    -0.129 NA
HETATM    7  N4  UNL     1      23.648   2.131  51.702  1.00  0.00    -0.293 N 
HETATM    8  C16 UNL     1      24.041   2.727  53.038  1.00  0.00     0.185 C 
HETATM    9  H14 UNL     1      24.274   2.675  49.827  1.00  0.00     0.174 HD
ENDROOT
BRANCH   1  10
HETATM   10  C5  UNL     1      21.749   0.366  51.561  1.00  0.00     0.097 C 
BRANCH  10  11
HETATM   11  C4  UNL     1      20.920   1.440  50.901  1.00  0.00    -0.049 A 
HETATM   12  C3  UNL     1      20.001   2.121  51.675  1.00  0.00     0.047 A 
HETATM   13  C2  UNL     1      19.310   3.080  50.973  1.00  0.00     0.102 A 
HETATM   14  C20 UNL     1      19.457   3.391  49.634  1.00  0.00     0.107 A 
HETATM   15  C18 UNL     1      20.412   2.644  48.941  1.00  0.00    -0.025 A 
HETATM   16  C17 UNL     1      21.151   1.664  49.563  1.00  0.00     0.017 A 
HETATM   17  C19 UNL     1      20.593   2.957  47.502  1.00  0.00     0.051 C 
BRANCH  13  18
HETATM   18  O1  UNL     1      18.356   3.813  51.706  1.00  0.00    -0.353 OA
HETATM   19  C1  UNL     1      17.033   3.330  51.863  1.00  0.00     0.210 C 
ENDBRANCH  13  18
BRANCH  14  20
HETATM   20  O3  UNL     1      18.659   4.406  49.087  1.00  0.00    -0.353 OA
HETATM   21  C21 UNL     1      19.061   5.762  49.116  1.00  0.00     0.210 C 
ENDBRANCH  14  20
ENDBRANCH  10  11
ENDBRANCH   1  10
BRANCH   4  22
HETATM   22  C10 UNL     1      27.151   0.910  52.864  1.00  0.00     0.028 A 
HETATM   23  C11 UNL     1      27.356  -0.412  52.642  1.00  0.00     0.035 A 
HETATM   24  C12 UNL     1      28.383  -0.947  53.365  1.00  0.00     0.012 A 
HETATM   25 BR1  UNL     1      28.661  -2.827  53.041  1.00  0.00    -0.051 Br
HETATM   26  C13 UNL     1      29.155  -0.227  54.244  1.00  0.00     0.022 A 
HETATM   27  C14 UNL     1      28.951   1.116  54.474  1.00  0.00     0.039 A 
HETATM   28  C15 UNL     1      27.902   1.692  53.747  1.00  0.00     0.078 A 
BRANCH  28  29
HETATM   29  O2  UNL     1      27.751   3.045  54.025  1.00  0.00    -0.360 OA
HETATM   30  H11 UNL     1      28.510   3.658  54.275  1.00  0.00     0.217 HD
ENDBRANCH  28  29
ENDBRANCH   4  22
BRANCH   5  31
HETATM   31  N2  UNL     1      27.007   3.273  50.856  1.00  0.00    -0.230 NA
HETATM   32  H12 UNL     1      26.810   4.041  50.167  1.00  0.00     0.144 HD
HETATM   33  H13 UNL     1      27.557   2.493  50.431  1.00  0.00     0.144 HD
ENDBRANCH   5  31
TORSDOF 7
ENDMDL
MODEL 4
REMARK VINA RESULT:      -8.0      1.595      2.546
REMARK  7 active torsions:
REMARK  status: ('A' for Active; 'I' for Inactive)
REMARK    1  A    between atoms: O1_2  and  C2_3 
REMARK    2  A    between atoms: C4_5  and  C5_6 
REMARK    3  A    between atoms: C5_6  and  C6_7 
REMARK    4  A    between atoms: C9_10  and  C10_11 
REMARK    5  A    between atoms: C15_17  and  O2_18 
REMARK    6  A    between atoms: N1_19  and  N2_20 
REMARK    7  A    between atoms: C20_27  and  O3_28 
ROOT
HETATM    1  C6  UNL     1      24.415   4.155  51.540  1.00  0.00     0.030 C 
HETATM    2  C7  UNL     1      23.864   5.248  50.765  1.00  0.00     0.037 C 
HETATM    3  C8  UNL     1      24.952   5.149  49.695  1.00  0.00    -0.006 C 
HETATM    4  C9  UNL     1      26.001   5.781  49.168  1.00  0.00     0.086 C 
HETATM    5  N1  UNL     1      27.057   4.732  49.443  1.00  0.00    -0.223 N 
HETATM    6  N3  UNL     1      26.812   3.550  50.418  1.00  0.00    -0.129 NA
HETATM    7  N4  UNL     1      25.481   3.735  50.711  1.00  0.00    -0.293 N 
HETATM    8  C16 UNL     1      24.821   3.607  49.354  1.00  0.00     0.185 C 
HETATM    9  H14 UNL     1      27.479   3.719  51.168  1.00  0.00     0.174 HD
ENDROOT
BRANCH   1  10
HETATM   10  C5  UNL     1      24.044   3.713  52.873  1.00  0.00     0.097 C 
BRANCH  10  11
HETATM   11  C4  UNL     1      24.643   2.356  53.149  1.00  0.00    -0.049 A 
HETATM   12  C3  UNL     1      23.836   1.245  52.995  1.00  0.00     0.047 A 
HETATM   13  C2  UNL     1      24.488   0.065  53.263  1.00  0.00     0.102 A 
HETATM   14  C20 UNL     1      25.806  -0.083  53.652  1.00  0.00     0.107 A 
HETATM   15  C18 UNL     1      26.535   1.102  53.779  1.00  0.00    -0.025 A 
HETATM   16  C17 UNL     1      25.965   2.329  53.530  1.00  0.00     0.017 A 
HETATM   17  C19 UNL     1      27.955   0.976  54.193  1.00  0.00     0.051 C 
BRANCH  13  18
HETATM   18  O1  UNL     1      23.721  -1.109  53.124  1.00  0.00    -0.353 OA
HETATM   19  C1  UNL     1      22.305  -1.058  53.151  1.00  0.00     0.210 C 
ENDBRANCH  13  18
BRANCH  14  20
HETATM   20  O3  UNL     1      26.301  -1.374  53.882  1.00  0.00    -0.353 OA
HETATM   21  C21 UNL     1      26.979  -2.100  52.875  1.00  0.00     0.210 C 
ENDBRANCH  14  20
ENDBRANCH  10  11
ENDBRANCH   1  10
BRANCH   4  22
HETATM   22  C10 UNL     1      25.641   7.057  48.698  1.00  0.00     0.028 A 
HETATM   23  C11 UNL     1      25.077   7.343  47.498  1.00  0.00     0.035 A 
HETATM   24  C12 UNL     1      24.832   8.670  47.299  1.00  0.00     0.012 A 
HETATM   25 BR1  UNL     1      24.032   9.062  45.589  1.00  0.00    -0.051 Br
HETATM   26  C13 UNL     1      25.121   9.647  48.221  1.00  0.00     0.022 A 
HETATM   27  C14 UNL     1      25.694   9.363  49.440  1.00  0.00     0.039 A 
HETATM   28  C15 UNL     1      25.959   8.007  49.672  1.00  0.00     0.078 A 
BRANCH  28  29
HETATM   29  O2  UNL     1      26.535   7.791  50.918  1.00  0.00    -0.360 OA
HETATM   30  H11 UNL     1      26.275   7.041  51.537  1.00  0.00     0.217 HD
ENDBRANCH  28  29
ENDBRANCH   4  22
BRANCH   5  31
HETATM   31  N2  UNL     1      28.118   5.186  48.653  1.00  0.00    -0.230 NA
HETATM   32  H12 UNL     1      28.838   5.575  49.312  1.00  0.00     0.144 HD
HETATM   33  H13 UNL     1      27.731   5.918  48.016  1.00  0.00     0.144 HD
ENDBRANCH   5  31
TORSDOF 7
ENDMDL
MODEL 5
REMARK VINA RESULT:      -8.0      6.262      8.666
REMARK  7 active torsions:
REMARK  status: ('A' for Active; 'I' for Inactive)
REMARK    1  A    between atoms: O1_2  and  C2_3 
REMARK    2  A    between atoms: C4_5  and  C5_6 
REMARK    3  A    between atoms: C5_6  and  C6_7 
REMARK    4  A    between atoms: C9_10  and  C10_11 
REMARK    5  A    between atoms: C15_17  and  O2_18 
REMARK    6  A    between atoms: N1_19  and  N2_20 
REMARK    7  A    between atoms: C20_27  and  O3_28 
ROOT
HETATM    1  C6  UNL     1      29.868   6.821  48.004  1.00  0.00     0.030 C 
HETATM    2  C7  UNL     1      30.494   5.704  47.326  1.00  0.00     0.037 C 
HETATM    3  C8  UNL     1      31.842   5.933  48.013  1.00  0.00    -0.006 C 
HETATM    4  C9  UNL     1      33.105   6.302  47.802  1.00  0.00     0.086 C 
HETATM    5  N1  UNL     1      33.145   7.505  48.720  1.00  0.00    -0.223 N 
HETATM    6  N3  UNL     1      31.855   8.141  49.302  1.00  0.00    -0.129 NA
HETATM    7  N4  UNL     1      30.908   7.244  48.864  1.00  0.00    -0.293 N 
HETATM    8  C16 UNL     1      31.350   5.951  49.519  1.00  0.00     0.185 C 
HETATM    9  H14 UNL     1      31.839   9.070  48.885  1.00  0.00     0.174 HD
ENDROOT
BRANCH   1  10
HETATM   10  C5  UNL     1      28.567   7.418  47.755  1.00  0.00     0.097 C 
BRANCH  10  11
HETATM   11  C4  UNL     1      27.516   6.722  48.583  1.00  0.00    -0.049 A 
HETATM   12  C3  UNL     1      26.608   7.502  49.272  1.00  0.00     0.047 A 
HETATM   13  C2  UNL     1      25.693   6.762  49.983  1.00  0.00     0.102 A 
HETATM   14  C20 UNL     1      25.621   5.384  50.057  1.00  0.00     0.107 A 
HETATM   15  C18 UNL     1      26.586   4.688  49.324  1.00  0.00    -0.025 A 
HETATM   16  C17 UNL     1      27.540   5.345  48.583  1.00  0.00     0.017 A 
HETATM   17  C19 UNL     1      26.533   3.206  49.382  1.00  0.00     0.051 C 
BRANCH  13  18
HETATM   18  O1  UNL     1      24.735   7.498  50.709  1.00  0.00    -0.353 OA
HETATM   19  C1  UNL     1      23.707   8.207  50.041  1.00  0.00     0.210 C 
ENDBRANCH  13  18
BRANCH  14  20
HETATM   20  O3  UNL     1      24.613   4.802  50.838  1.00  0.00    -0.353 OA
HETATM   21  C21 UNL     1      23.359   4.448  50.288  1.00  0.00     0.210 C 
ENDBRANCH  14  20
ENDBRANCH  10  11
ENDBRANCH   1  10
BRANCH   4  22
HETATM   22  C10 UNL     1      33.722   5.476  46.846  1.00  0.00     0.028 A 
HETATM   23  C11 UNL     1      33.575   5.554  45.500  1.00  0.00     0.035 A 
HETATM   24  C12 UNL     1      34.294   4.625  44.805  1.00  0.00     0.012 A 
HETATM   25 BR1  UNL     1      34.072   4.746  42.894  1.00  0.00    -0.051 Br
HETATM   26  C13 UNL     1      35.103   3.685  45.397  1.00  0.00     0.022 A 
HETATM   27  C14 UNL     1      35.256   3.601  46.763  1.00  0.00     0.039 A 
HETATM   28  C15 UNL     1      34.528   4.542  47.503  1.00  0.00     0.078 A 
BRANCH  28  29
HETATM   29  O2  UNL     1      34.728   4.403  48.871  1.00  0.00    -0.360 OA
HETATM   30  H11 UNL     1      34.703   3.522  49.358  1.00  0.00     0.217 HD
ENDBRANCH  28  29
ENDBRANCH   4  22
BRANCH   5  31
HETATM   31  N2  UNL     1      34.517   7.764  48.788  1.00  0.00    -0.230 NA
HETATM   32  H12 UNL     1      34.632   8.801  48.666  1.00  0.00     0.144 HD
HETATM   33  H13 UNL     1      34.966   7.224  48.014  1.00  0.00     0.144 HD
ENDBRANCH   5  31
TORSDOF 7
ENDMDL
MODEL 6
REMARK VINA RESULT:      -7.9      3.478      7.929
REMARK  7 active torsions:
REMARK  status: ('A' for Active; 'I' for Inactive)
REMARK    1  A    between atoms: O1_2  and  C2_3 
REMARK    2  A    between atoms: C4_5  and  C5_6 
REMARK    3  A    between atoms: C5_6  and  C6_7 
REMARK    4  A    between atoms: C9_10  and  C10_11 
REMARK    5  A    between atoms: C15_17  and  O2_18 
REMARK    6  A    between atoms: N1_19  and  N2_20 
REMARK    7  A    between atoms: C20_27  and  O3_28 
ROOT
HETATM    1  C6  UNL     1      26.061   2.683  51.517  1.00  0.00     0.030 C 
HETATM    2  C7  UNL     1      24.841   2.525  52.282  1.00  0.00     0.037 C 
HETATM    3  C8  UNL     1      25.364   1.293  53.022  1.00  0.00    -0.006 C 
HETATM    4  C9  UNL     1      25.198  -0.022  53.168  1.00  0.00     0.086 C 
HETATM    5  N1  UNL     1      26.578  -0.472  52.739  1.00  0.00    -0.223 N 
HETATM    6  N3  UNL     1      27.565   0.477  52.009  1.00  0.00    -0.129 NA
HETATM    7  N4  UNL     1      26.869   1.662  52.068  1.00  0.00    -0.293 N 
HETATM    8  C16 UNL     1      26.729   1.890  53.559  1.00  0.00     0.185 C 
HETATM    9  H14 UNL     1      27.672   0.048  51.092  1.00  0.00     0.174 HD
ENDROOT
BRANCH   1  10
HETATM   10  C5  UNL     1      26.317   3.568  50.394  1.00  0.00     0.097 C 
BRANCH  10  11
HETATM   11  C4  UNL     1      25.014   4.101  49.852  1.00  0.00    -0.049 A 
HETATM   12  C3  UNL     1      24.674   5.408  50.142  1.00  0.00     0.047 A 
HETATM   13  C2  UNL     1      23.473   5.787  49.590  1.00  0.00     0.102 A 
HETATM   14  C20 UNL     1      22.634   5.007  48.818  1.00  0.00     0.107 A 
HETATM   15  C18 UNL     1      23.069   3.700  48.584  1.00  0.00    -0.025 A 
HETATM   16  C17 UNL     1      24.258   3.234  49.096  1.00  0.00     0.017 A 
HETATM   17  C19 UNL     1      22.190   2.837  47.756  1.00  0.00     0.051 C 
BRANCH  13  18
HETATM   18  O1  UNL     1      23.068   7.112  49.848  1.00  0.00    -0.353 OA
HETATM   19  C1  UNL     1      23.851   7.965  50.664  1.00  0.00     0.210 C 
ENDBRANCH  13  18
BRANCH  14  20
HETATM   20  O3  UNL     1      21.442   5.568  48.339  1.00  0.00    -0.353 OA
HETATM   21  C21 UNL     1      20.238   5.492  49.077  1.00  0.00     0.210 C 
ENDBRANCH  14  20
ENDBRANCH  10  11
ENDBRANCH   1  10
BRANCH   4  22
HETATM   22  C10 UNL     1      23.885  -0.327  53.570  1.00  0.00     0.028 A 
HETATM   23  C11 UNL     1      22.749  -0.050  52.884  1.00  0.00     0.035 A 
HETATM   24  C12 UNL     1      21.606  -0.460  53.508  1.00  0.00     0.012 A 
HETATM   25 BR1  UNL     1      19.999  -0.056  52.522  1.00  0.00    -0.051 Br
HETATM   26  C13 UNL     1      21.587  -1.099  54.723  1.00  0.00     0.022 A 
HETATM   27  C14 UNL     1      22.738  -1.383  55.425  1.00  0.00     0.039 A 
HETATM   28  C15 UNL     1      23.927  -0.973  54.809  1.00  0.00     0.078 A 
BRANCH  28  29
HETATM   29  O2  UNL     1      25.047  -1.289  55.567  1.00  0.00    -0.360 OA
HETATM   30  H11 UNL     1      25.700  -0.609  55.921  1.00  0.00     0.217 HD
ENDBRANCH  28  29
ENDBRANCH   4  22
BRANCH   5  31
HETATM   31  N2  UNL     1      26.583  -1.807  53.154  1.00  0.00    -0.230 NA
HETATM   32  H12 UNL     1      27.288  -1.877  53.929  1.00  0.00     0.144 HD
HETATM   33  H13 UNL     1      26.851  -2.382  52.324  1.00  0.00     0.144 HD
ENDBRANCH   5  31
TORSDOF 7
ENDMDL
MODEL 7
REMARK VINA RESULT:      -7.9      3.819      8.056
REMARK  7 active torsions:
REMARK  status: ('A' for Active; 'I' for Inactive)
REMARK    1  A    between atoms: O1_2  and  C2_3 
REMARK    2  A    between atoms: C4_5  and  C5_6 
REMARK    3  A    between atoms: C5_6  and  C6_7 
REMARK    4  A    between atoms: C9_10  and  C10_11 
REMARK    5  A    between atoms: C15_17  and  O2_18 
REMARK    6  A    between atoms: N1_19  and  N2_20 
REMARK    7  A    between atoms: C20_27  and  O3_28 
ROOT
HETATM    1  C6  UNL     1      25.781   2.860  51.471  1.00  0.00     0.030 C 
HETATM    2  C7  UNL     1      24.574   2.654  52.245  1.00  0.00     0.037 C 
HETATM    3  C8  UNL     1      25.137   1.423  52.956  1.00  0.00    -0.006 C 
HETATM    4  C9  UNL     1      25.009   0.102  53.079  1.00  0.00     0.086 C 
HETATM    5  N1  UNL     1      26.395  -0.303  52.627  1.00  0.00    -0.223 N 
HETATM    6  N3  UNL     1      27.349   0.686  51.906  1.00  0.00    -0.129 NA
HETATM    7  N4  UNL     1      26.622   1.851  51.994  1.00  0.00    -0.293 N 
HETATM    8  C16 UNL     1      26.492   2.046  53.491  1.00  0.00     0.185 C 
HETATM    9  H14 UNL     1      27.458   0.278  50.980  1.00  0.00     0.174 HD
ENDROOT
BRANCH   1  10
HETATM   10  C5  UNL     1      26.002   3.772  50.363  1.00  0.00     0.097 C 
BRANCH  10  11
HETATM   11  C4  UNL     1      24.763   3.848  49.505  1.00  0.00    -0.049 A 
HETATM   12  C3  UNL     1      24.080   2.676  49.244  1.00  0.00     0.047 A 
HETATM   13  C2  UNL     1      22.964   2.867  48.462  1.00  0.00     0.102 A 
HETATM   14  C20 UNL     1      22.507   4.066  47.951  1.00  0.00     0.107 A 
HETATM   15  C18 UNL     1      23.271   5.191  48.272  1.00  0.00    -0.025 A 
HETATM   16  C17 UNL     1      24.401   5.096  49.049  1.00  0.00     0.017 A 
HETATM   17  C19 UNL     1      22.803   6.494  47.738  1.00  0.00     0.051 C 
BRANCH  13  18
HETATM   18  O1  UNL     1      22.220   1.709  48.160  1.00  0.00    -0.353 OA
HETATM   19  C1  UNL     1      21.491   1.030  49.167  1.00  0.00     0.210 C 
ENDBRANCH  13  18
BRANCH  14  20
HETATM   20  O3  UNL     1      21.344   4.065  47.169  1.00  0.00    -0.353 OA
HETATM   21  C21 UNL     1      21.391   3.872  45.769  1.00  0.00     0.210 C 
ENDBRANCH  14  20
ENDBRANCH  10  11
ENDBRANCH   1  10
BRANCH   4  22
HETATM   22  C10 UNL     1      23.708  -0.246  53.487  1.00  0.00     0.028 A 
HETATM   23  C11 UNL     1      22.557   0.022  52.823  1.00  0.00     0.035 A 
HETATM   24  C12 UNL     1      21.433  -0.432  53.449  1.00  0.00     0.012 A 
HETATM   25 BR1  UNL     1      19.804  -0.040  52.495  1.00  0.00    -0.051 Br
HETATM   26  C13 UNL     1      21.444  -1.106  54.646  1.00  0.00     0.022 A 
HETATM   27  C14 UNL     1      22.610  -1.382  55.326  1.00  0.00     0.039 A 
HETATM   28  C15 UNL     1      23.781  -0.926  54.707  1.00  0.00     0.078 A 
BRANCH  28  29
HETATM   29  O2  UNL     1      24.918  -1.236  55.442  1.00  0.00    -0.360 OA
HETATM   30  H11 UNL     1      25.003  -1.100  56.436  1.00  0.00     0.217 HD
ENDBRANCH  28  29
ENDBRANCH   4  22
BRANCH   5  31
HETATM   31  N2  UNL     1      26.440  -1.645  53.017  1.00  0.00    -0.230 NA
HETATM   32  H12 UNL     1      26.879  -2.173  52.223  1.00  0.00     0.144 HD
HETATM   33  H13 UNL     1      25.454  -1.943  53.191  1.00  0.00     0.144 HD
ENDBRANCH   5  31
TORSDOF 7
ENDMDL
MODEL 8
REMARK VINA RESULT:      -7.8      3.497      7.685
REMARK  7 active torsions:
REMARK  status: ('A' for Active; 'I' for Inactive)
REMARK    1  A    between atoms: O1_2  and  C2_3 
REMARK    2  A    between atoms: C4_5  and  C5_6 
REMARK    3  A    between atoms: C5_6  and  C6_7 
REMARK    4  A    between atoms: C9_10  and  C10_11 
REMARK    5  A    between atoms: C15_17  and  O2_18 
REMARK    6  A    between atoms: N1_19  and  N2_20 
REMARK    7  A    between atoms: C20_27  and  O3_28 
ROOT
HETATM    1  C6  UNL     1      23.732   5.549  49.106  1.00  0.00     0.030 C 
HETATM    2  C7  UNL     1      23.667   4.118  49.325  1.00  0.00     0.037 C 
HETATM    3  C8  UNL     1      23.322   4.274  50.807  1.00  0.00    -0.006 C 
HETATM    4  C9  UNL     1      23.781   4.077  52.042  1.00  0.00     0.086 C 
HETATM    5  N1  UNL     1      23.739   5.509  52.529  1.00  0.00    -0.223 N 
HETATM    6  N3  UNL     1      23.563   6.706  51.557  1.00  0.00    -0.129 NA
HETATM    7  N4  UNL     1      23.341   6.041  50.373  1.00  0.00    -0.293 N 
HETATM    8  C16 UNL     1      22.082   5.251  50.668  1.00  0.00     0.185 C 
HETATM    9  H14 UNL     1      24.441   7.214  51.645  1.00  0.00     0.174 HD
ENDROOT
BRANCH   1  10
HETATM   10  C5  UNL     1      24.206   6.266  47.936  1.00  0.00     0.097 C 
BRANCH  10  11
HETATM   11  C4  UNL     1      25.498   6.976  48.258  1.00  0.00    -0.049 A 
HETATM   12  C3  UNL     1      25.433   8.299  48.652  1.00  0.00     0.047 A 
HETATM   13  C2  UNL     1      26.667   8.839  48.928  1.00  0.00     0.102 A 
HETATM   14  C20 UNL     1      27.888   8.199  48.845  1.00  0.00     0.107 A 
HETATM   15  C18 UNL     1      27.844   6.863  48.437  1.00  0.00    -0.025 A 
HETATM   16  C17 UNL     1      26.655   6.240  48.140  1.00  0.00     0.017 A 
HETATM   17  C19 UNL     1      29.141   6.148  48.339  1.00  0.00     0.051 C 
BRANCH  13  18
HETATM   18  O1  UNL     1      26.671  10.188  49.337  1.00  0.00    -0.353 OA
HETATM   19  C1  UNL     1      26.377  11.226  48.419  1.00  0.00     0.210 C 
ENDBRANCH  13  18
BRANCH  14  20
HETATM   20  O3  UNL     1      29.049   8.916  49.167  1.00  0.00    -0.353 OA
HETATM   21  C21 UNL     1      29.787   9.614  48.183  1.00  0.00     0.210 C 
ENDBRANCH  14  20
ENDBRANCH  10  11
ENDBRANCH   1  10
BRANCH   4  22
HETATM   22  C10 UNL     1      24.111   2.726  52.252  1.00  0.00     0.028 A 
HETATM   23  C11 UNL     1      23.276   1.752  52.690  1.00  0.00     0.035 A 
HETATM   24  C12 UNL     1      23.862   0.524  52.804  1.00  0.00     0.012 A 
HETATM   25 BR1  UNL     1      22.663  -0.850  53.431  1.00  0.00    -0.051 Br
HETATM   26  C13 UNL     1      25.180   0.276  52.506  1.00  0.00     0.022 A 
HETATM   27  C14 UNL     1      26.033   1.261  52.061  1.00  0.00     0.039 A 
HETATM   28  C15 UNL     1      25.459   2.533  51.935  1.00  0.00     0.078 A 
BRANCH  28  29
HETATM   29  O2  UNL     1      26.372   3.478  51.483  1.00  0.00    -0.360 OA
HETATM   30  H11 UNL     1      27.158   3.805  52.019  1.00  0.00     0.217 HD
ENDBRANCH  28  29
ENDBRANCH   4  22
BRANCH   5  31
HETATM   31  N2  UNL     1      23.914   5.345  53.907  1.00  0.00    -0.230 NA
HETATM   32  H12 UNL     1      24.648   6.037  54.199  1.00  0.00     0.144 HD
HETATM   33  H13 UNL     1      24.221   4.358  54.058  1.00  0.00     0.144 HD
ENDBRANCH   5  31
TORSDOF 7
ENDMDL
MODEL 9
REMARK VINA RESULT:      -7.6      3.603      7.812
REMARK  7 active torsions:
REMARK  status: ('A' for Active; 'I' for Inactive)
REMARK    1  A    between atoms: O1_2  and  C2_3 
REMARK    2  A    between atoms: C4_5  and  C5_6 
REMARK    3  A    between atoms: C5_6  and  C6_7 
REMARK    4  A    between atoms: C9_10  and  C10_11 
REMARK    5  A    between atoms: C15_17  and  O2_18 
REMARK    6  A    between atoms: N1_19  and  N2_20 
REMARK    7  A    between atoms: C20_27  and  O3_28 
ROOT
HETATM    1  C6  UNL     1      22.875   5.131  49.196  1.00  0.00     0.030 C 
HETATM    2  C7  UNL     1      22.794   3.728  49.548  1.00  0.00     0.037 C 
HETATM    3  C8  UNL     1      22.741   4.021  51.049  1.00  0.00    -0.006 C 
HETATM    4  C9  UNL     1      23.416   3.897  52.191  1.00  0.00     0.086 C 
HETATM    5  N1  UNL     1      23.525   5.364  52.548  1.00  0.00    -0.223 N 
HETATM    6  N3  UNL     1      23.218   6.487  51.523  1.00  0.00    -0.129 NA
HETATM    7  N4  UNL     1      22.750   5.744  50.464  1.00  0.00    -0.293 N 
HETATM    8  C16 UNL     1      21.539   5.053  51.055  1.00  0.00     0.185 C 
HETATM    9  H14 UNL     1      24.117   6.950  51.402  1.00  0.00     0.174 HD
ENDROOT
BRANCH   1  10
HETATM   10  C5  UNL     1      23.149   5.725  47.899  1.00  0.00     0.097 C 
BRANCH  10  11
HETATM   11  C4  UNL     1      24.322   6.669  48.005  1.00  0.00    -0.049 A 
HETATM   12  C3  UNL     1      25.564   6.134  48.284  1.00  0.00     0.047 A 
HETATM   13  C2  UNL     1      26.557   7.083  48.347  1.00  0.00     0.102 A 
HETATM   14  C20 UNL     1      26.413   8.445  48.165  1.00  0.00     0.107 A 
HETATM   15  C18 UNL     1      25.115   8.884  47.889  1.00  0.00    -0.025 A 
HETATM   16  C17 UNL     1      24.060   8.005  47.805  1.00  0.00     0.017 A 
HETATM   17  C19 UNL     1      24.928  10.342  47.687  1.00  0.00     0.051 C 
BRANCH  13  18
HETATM   18  O1  UNL     1      27.852   6.603  48.628  1.00  0.00    -0.353 OA
HETATM   19  C1  UNL     1      28.166   5.230  48.472  1.00  0.00     0.210 C 
ENDBRANCH  13  18
BRANCH  14  20
HETATM   20  O3  UNL     1      27.546   9.263  48.269  1.00  0.00    -0.353 OA
HETATM   21  C21 UNL     1      27.978   9.778  49.513  1.00  0.00     0.210 C 
ENDBRANCH  14  20
ENDBRANCH  10  11
ENDBRANCH   1  10
BRANCH   4  22
HETATM   22  C10 UNL     1      23.725   2.550  52.456  1.00  0.00     0.028 A 
HETATM   23  C11 UNL     1      22.864   1.597  52.888  1.00  0.00     0.035 A 
HETATM   24  C12 UNL     1      23.432   0.369  53.064  1.00  0.00     0.012 A 
HETATM   25 BR1  UNL     1      22.196  -0.975  53.682  1.00  0.00    -0.051 Br
HETATM   26  C13 UNL     1      24.759   0.100  52.827  1.00  0.00     0.022 A 
HETATM   27  C14 UNL     1      25.639   1.064  52.388  1.00  0.00     0.039 A 
HETATM   28  C15 UNL     1      25.083   2.336  52.200  1.00  0.00     0.078 A 
BRANCH  28  29
HETATM   29  O2  UNL     1      26.022   3.259  51.757  1.00  0.00    -0.360 OA
HETATM   30  H11 UNL     1      26.035   3.650  50.829  1.00  0.00     0.217 HD
ENDBRANCH  28  29
ENDBRANCH   4  22
BRANCH   5  31
HETATM   31  N2  UNL     1      23.950   5.300  53.879  1.00  0.00    -0.230 NA
HETATM   32  H12 UNL     1      24.498   4.409  53.976  1.00  0.00     0.144 HD
HETATM   33  H13 UNL     1      23.090   5.300  54.472  1.00  0.00     0.144 HD
ENDBRANCH   5  31
TORSDOF 7
ENDMDL
