MODEL 1
REMARK VINA RESULT:      -6.9      0.000      0.000
REMARK  4 active torsions:
REMARK  status: ('A' for Active; 'I' for Inactive)
REMARK    1  A    between atoms: C2_2  and  C3_3 
REMARK    2  A    between atoms: C4_4  and  O1_5 
REMARK    3  A    between atoms: C6_7  and  O2_8 
REMARK    4  A    between atoms: N1_9  and  C7_10 
ROOT
HETATM    1  C3  UNL     1      25.264   0.116  53.080  1.00  0.00    -0.023 C 
HETATM    2  C4  UNL     1      24.595   0.916  52.309  1.00  0.00     0.100 C 
HETATM    3  C6  UNL     1      23.318   1.539  51.890  1.00  0.00     0.280 C 
HETATM    4  N1  UNL     1      22.158   0.691  52.133  1.00  0.00    -0.323 N 
HETATM    5  C13 UNL     1      21.798  -0.640  52.610  1.00  0.00     0.256 C 
HETATM    6  N2  UNL     1      21.842   0.063  53.731  1.00  0.00    -0.253 NA
HETATM    7  C14 UNL     1      21.545  -0.680  54.908  1.00  0.00     0.229 C 
HETATM    8  N3  UNL     1      22.621  -1.179  55.382  1.00  0.00    -0.255 NA
HETATM    9  C15 UNL     1      23.904  -1.008  54.811  1.00  0.00     0.118 C 
HETATM   10  C16 UNL     1      25.047  -0.772  54.202  1.00  0.00     0.029 C 
ENDROOT
BRANCH   4  11
HETATM   11  C7  UNL     1      21.037   1.520  51.725  1.00  0.00     0.035 C 
HETATM   12  C8  UNL     1      20.274   0.805  50.912  1.00  0.00     0.027 C 
HETATM   13  C9  UNL     1      19.031   1.233  50.255  1.00  0.00     0.000 C 
HETATM   14  C10 UNL     1      18.379   2.392  50.502  1.00  0.00    -0.001 C 
HETATM   15  C11 UNL     1      18.730   3.471  51.447  1.00  0.00     0.195 C 
HETATM   16  O3  UNL     1      19.532   3.095  52.482  1.00  0.00    -0.382 OA
HETATM   17  C12 UNL     1      20.866   2.941  52.208  1.00  0.00     0.224 C 
ENDBRANCH   4  11
BRANCH   3  18
HETATM   18  O2  UNL     1      23.325   1.757  50.497  1.00  0.00    -0.370 OA
HETATM   19  H10 UNL     1      22.619   1.170  50.139  1.00  0.00     0.212 HD
ENDBRANCH   3  18
BRANCH   2  20
HETATM   20  O1  UNL     1      25.239   1.640  51.318  1.00  0.00    -0.355 OA
HETATM   21  C5  UNL     1      25.821   2.918  51.583  1.00  0.00     0.209 C 
ENDBRANCH   2  20
BRANCH   1  22
HETATM   22  C2  UNL     1      26.743   0.069  52.778  1.00  0.00     0.037 C 
HETATM   23  C1  UNL     1      27.198  -1.389  52.757  1.00  0.00     0.010 C 
ENDBRANCH   1  22
TORSDOF 4
ENDMDL
MODEL 2
REMARK VINA RESULT:      -6.8      2.725      6.478
REMARK  4 active torsions:
REMARK  status: ('A' for Active; 'I' for Inactive)
REMARK    1  A    between atoms: C2_2  and  C3_3 
REMARK    2  A    between atoms: C4_4  and  O1_5 
REMARK    3  A    between atoms: C6_7  and  O2_8 
REMARK    4  A    between atoms: N1_9  and  C7_10 
ROOT
HETATM    1  C3  UNL     1      23.989   3.067  51.574  1.00  0.00    -0.023 C 
HETATM    2  C4  UNL     1      25.224   2.680  51.489  1.00  0.00     0.100 C 
HETATM    3  C6  UNL     1      26.292   1.692  51.776  1.00  0.00     0.280 C 
HETATM    4  N1  UNL     1      26.069   0.944  53.006  1.00  0.00    -0.323 N 
HETATM    5  C13 UNL     1      25.154   0.861  54.141  1.00  0.00     0.256 C 
HETATM    6  N2  UNL     1      24.577   0.069  53.249  1.00  0.00    -0.253 NA
HETATM    7  C14 UNL     1      23.364  -0.531  53.688  1.00  0.00     0.229 C 
HETATM    8  N3  UNL     1      22.380   0.228  53.394  1.00  0.00    -0.255 NA
HETATM    9  C15 UNL     1      22.497   1.473  52.733  1.00  0.00     0.118 C 
HETATM   10  C16 UNL     1      22.723   2.606  52.102  1.00  0.00     0.029 C 
ENDROOT
BRANCH   4  11
HETATM   11  C7  UNL     1      27.175   0.003  53.040  1.00  0.00     0.035 C 
HETATM   12  C8  UNL     1      28.112   0.503  53.833  1.00  0.00     0.027 C 
HETATM   13  C9  UNL     1      29.409  -0.103  54.166  1.00  0.00     0.000 C 
HETATM   14  C10 UNL     1      29.791  -1.356  53.831  1.00  0.00    -0.001 C 
HETATM   15  C11 UNL     1      29.044  -2.386  53.082  1.00  0.00     0.195 C 
HETATM   16  O3  UNL     1      27.689  -2.243  53.098  1.00  0.00    -0.382 OA
HETATM   17  C12 UNL     1      27.156  -1.294  52.267  1.00  0.00     0.224 C 
ENDBRANCH   4  11
BRANCH   3  18
HETATM   18  O2  UNL     1      27.520   2.357  51.971  1.00  0.00    -0.370 OA
HETATM   19  H10 UNL     1      28.050   2.162  51.163  1.00  0.00     0.212 HD
ENDBRANCH   3  18
BRANCH   2  20
HETATM   20  O1  UNL     1      26.163   3.459  50.833  1.00  0.00    -0.355 OA
HETATM   21  C5  UNL     1      26.418   3.305  49.436  1.00  0.00     0.209 C 
ENDBRANCH   2  20
BRANCH   1  22
HETATM   22  C2  UNL     1      23.718   4.397  50.911  1.00  0.00     0.037 C 
HETATM   23  C1  UNL     1      22.740   5.189  51.776  1.00  0.00     0.010 C 
ENDBRANCH   1  22
TORSDOF 4
ENDMDL
MODEL 3
REMARK VINA RESULT:      -6.8      2.587      3.683
REMARK  4 active torsions:
REMARK  status: ('A' for Active; 'I' for Inactive)
REMARK    1  A    between atoms: C2_2  and  C3_3 
REMARK    2  A    between atoms: C4_4  and  O1_5 
REMARK    3  A    between atoms: C6_7  and  O2_8 
REMARK    4  A    between atoms: N1_9  and  C7_10 
ROOT
HETATM    1  C3  UNL     1      26.013   0.316  53.017  1.00  0.00    -0.023 C 
HETATM    2  C4  UNL     1      26.263   1.491  52.527  1.00  0.00     0.100 C 
HETATM    3  C6  UNL     1      25.800   2.792  51.989  1.00  0.00     0.280 C 
HETATM    4  N1  UNL     1      24.509   2.711  51.318  1.00  0.00    -0.323 N 
HETATM    5  C13 UNL     1      23.490   1.745  50.918  1.00  0.00     0.256 C 
HETATM    6  N2  UNL     1      23.121   2.056  52.152  1.00  0.00    -0.253 NA
HETATM    7  C14 UNL     1      21.952   1.385  52.606  1.00  0.00     0.229 C 
HETATM    8  N3  UNL     1      22.280   0.285  53.166  1.00  0.00    -0.255 NA
HETATM    9  C15 UNL     1      23.608  -0.179  53.305  1.00  0.00     0.118 C 
HETATM   10  C16 UNL     1      24.881  -0.504  53.391  1.00  0.00     0.029 C 
ENDROOT
BRANCH   4  11
HETATM   11  C7  UNL     1      24.228   4.088  50.950  1.00  0.00     0.035 C 
HETATM   12  C8  UNL     1      24.256   4.170  49.627  1.00  0.00     0.027 C 
HETATM   13  C9  UNL     1      24.027   5.368  48.807  1.00  0.00     0.000 C 
HETATM   14  C10 UNL     1      23.596   6.561  49.276  1.00  0.00    -0.001 C 
HETATM   15  C11 UNL     1      23.262   6.949  50.661  1.00  0.00     0.195 C 
HETATM   16  O3  UNL     1      22.931   5.916  51.486  1.00  0.00    -0.382 OA
HETATM   17  C12 UNL     1      23.962   5.161  51.978  1.00  0.00     0.224 C 
ENDBRANCH   4  11
BRANCH   3  18
HETATM   18  O2  UNL     1      26.697   3.248  51.000  1.00  0.00    -0.370 OA
HETATM   19  H10 UNL     1      27.380   3.762  51.489  1.00  0.00     0.212 HD
ENDBRANCH   3  18
BRANCH   2  20
HETATM   20  O1  UNL     1      27.569   1.915  52.347  1.00  0.00    -0.355 OA
HETATM   21  C5  UNL     1      28.353   2.410  53.434  1.00  0.00     0.209 C 
ENDBRANCH   2  20
BRANCH   1  22
HETATM   22  C2  UNL     1      27.250  -0.487  53.341  1.00  0.00     0.037 C 
HETATM   23  C1  UNL     1      27.145  -1.852  52.663  1.00  0.00     0.010 C 
ENDBRANCH   1  22
TORSDOF 4
ENDMDL
MODEL 4
REMARK VINA RESULT:      -6.8      2.219      6.334
REMARK  4 active torsions:
REMARK  status: ('A' for Active; 'I' for Inactive)
REMARK    1  A    between atoms: C2_2  and  C3_3 
REMARK    2  A    between atoms: C4_4  and  O1_5 
REMARK    3  A    between atoms: C6_7  and  O2_8 
REMARK    4  A    between atoms: N1_9  and  C7_10 
ROOT
HETATM    1  C3  UNL     1      20.833   1.030  52.641  1.00  0.00    -0.023 C 
HETATM    2  C4  UNL     1      21.783   0.242  53.040  1.00  0.00     0.100 C 
HETATM    3  C6  UNL     1      23.200   0.008  53.405  1.00  0.00     0.280 C 
HETATM    4  N1  UNL     1      24.128   0.885  52.705  1.00  0.00    -0.323 N 
HETATM    5  C13 UNL     1      24.163   1.921  51.677  1.00  0.00     0.256 C 
HETATM    6  N2  UNL     1      23.931   2.619  52.778  1.00  0.00    -0.253 NA
HETATM    7  C14 UNL     1      23.808   4.022  52.575  1.00  0.00     0.229 C 
HETATM    8  N3  UNL     1      22.587   4.315  52.340  1.00  0.00    -0.255 NA
HETATM    9  C15 UNL     1      21.532   3.376  52.292  1.00  0.00     0.118 C 
HETATM   10  C16 UNL     1      20.628   2.418  52.285  1.00  0.00     0.029 C 
ENDROOT
BRANCH   4  11
HETATM   11  C7  UNL     1      25.420   0.536  53.268  1.00  0.00     0.035 C 
HETATM   12  C8  UNL     1      26.253   0.300  52.264  1.00  0.00     0.027 C 
HETATM   13  C9  UNL     1      27.668  -0.086  52.356  1.00  0.00     0.000 C 
HETATM   14  C10 UNL     1      28.395  -0.112  53.496  1.00  0.00    -0.001 C 
HETATM   15  C11 UNL     1      27.976   0.222  54.873  1.00  0.00     0.195 C 
HETATM   16  O3  UNL     1      26.896   1.048  54.963  1.00  0.00    -0.382 OA
HETATM   17  C12 UNL     1      25.665   0.484  54.757  1.00  0.00     0.224 C 
ENDBRANCH   4  11
BRANCH   3  18
HETATM   18  O2  UNL     1      23.581  -1.298  53.035  1.00  0.00    -0.370 OA
HETATM   19  H10 UNL     1      24.397  -1.486  53.554  1.00  0.00     0.212 HD
ENDBRANCH   3  18
BRANCH   2  20
HETATM   20  O1  UNL     1      21.524  -1.092  53.310  1.00  0.00    -0.355 OA
HETATM   21  C5  UNL     1      21.149  -1.532  54.616  1.00  0.00     0.209 C 
ENDBRANCH   2  20
BRANCH   1  22
HETATM   22  C2  UNL     1      19.490   0.352  52.509  1.00  0.00     0.037 C 
HETATM   23  C1  UNL     1      19.017   0.468  51.062  1.00  0.00     0.010 C 
ENDBRANCH   1  22
TORSDOF 4
ENDMDL
MODEL 5
REMARK VINA RESULT:      -6.5      2.653      4.806
REMARK  4 active torsions:
REMARK  status: ('A' for Active; 'I' for Inactive)
REMARK    1  A    between atoms: C2_2  and  C3_3 
REMARK    2  A    between atoms: C4_4  and  O1_5 
REMARK    3  A    between atoms: C6_7  and  O2_8 
REMARK    4  A    between atoms: N1_9  and  C7_10 
ROOT
HETATM    1  C3  UNL     1      22.118   0.361  53.495  1.00  0.00    -0.023 C 
HETATM    2  C4  UNL     1      21.683   1.406  52.861  1.00  0.00     0.100 C 
HETATM    3  C6  UNL     1      21.921   2.576  51.983  1.00  0.00     0.280 C 
HETATM    4  N1  UNL     1      23.266   3.123  52.103  1.00  0.00    -0.323 N 
HETATM    5  C13 UNL     1      24.502   2.955  52.862  1.00  0.00     0.256 C 
HETATM    6  N2  UNL     1      24.660   2.098  51.864  1.00  0.00    -0.253 NA
HETATM    7  C14 UNL     1      25.886   1.377  51.893  1.00  0.00     0.229 C 
HETATM    8  N3  UNL     1      25.735   0.301  52.563  1.00  0.00    -0.255 NA
HETATM    9  C15 UNL     1      24.526  -0.098  53.179  1.00  0.00     0.118 C 
HETATM   10  C16 UNL     1      23.348  -0.374  53.696  1.00  0.00     0.029 C 
ENDROOT
BRANCH   4  11
HETATM   11  C7  UNL     1      23.293   4.187  51.116  1.00  0.00     0.035 C 
HETATM   12  C8  UNL     1      23.686   5.298  51.722  1.00  0.00     0.027 C 
HETATM   13  C9  UNL     1      23.861   6.626  51.119  1.00  0.00     0.000 C 
HETATM   14  C10 UNL     1      23.792   6.894  49.795  1.00  0.00    -0.001 C 
HETATM   15  C11 UNL     1      23.536   5.969  48.672  1.00  0.00     0.195 C 
HETATM   16  O3  UNL     1      23.826   4.662  48.923  1.00  0.00    -0.382 OA
HETATM   17  C12 UNL     1      22.918   3.958  49.671  1.00  0.00     0.224 C 
ENDBRANCH   4  11
BRANCH   3  18
HETATM   18  O2  UNL     1      21.063   3.634  52.350  1.00  0.00    -0.370 OA
HETATM   19  H10 UNL     1      21.626   4.255  52.867  1.00  0.00     0.212 HD
ENDBRANCH   3  18
BRANCH   2  20
HETATM   20  O1  UNL     1      20.345   1.760  52.920  1.00  0.00    -0.355 OA
HETATM   21  C5  UNL     1      19.388   1.224  52.004  1.00  0.00     0.209 C 
ENDBRANCH   2  20
BRANCH   1  22
HETATM   22  C2  UNL     1      21.047  -0.375  54.265  1.00  0.00     0.037 C 
HETATM   23  C1  UNL     1      21.545  -1.784  54.579  1.00  0.00     0.010 C 
ENDBRANCH   1  22
TORSDOF 4
ENDMDL
MODEL 6
REMARK VINA RESULT:      -6.3      3.059      4.720
REMARK  4 active torsions:
REMARK  status: ('A' for Active; 'I' for Inactive)
REMARK    1  A    between atoms: C2_2  and  C3_3 
REMARK    2  A    between atoms: C4_4  and  O1_5 
REMARK    3  A    between atoms: C6_7  and  O2_8 
REMARK    4  A    between atoms: N1_9  and  C7_10 
ROOT
HETATM    1  C3  UNL     1      22.786   0.969  52.904  1.00  0.00    -0.023 C 
HETATM    2  C4  UNL     1      23.674   1.808  52.470  1.00  0.00     0.100 C 
HETATM    3  C6  UNL     1      24.032   3.105  51.849  1.00  0.00     0.280 C 
HETATM    4  N1  UNL     1      23.011   3.609  50.940  1.00  0.00    -0.323 N 
HETATM    5  C13 UNL     1      21.727   3.241  50.350  1.00  0.00     0.256 C 
HETATM    6  N2  UNL     1      21.366   3.817  51.488  1.00  0.00    -0.253 NA
HETATM    7  C14 UNL     1      19.960   3.865  51.707  1.00  0.00     0.229 C 
HETATM    8  N3  UNL     1      19.587   2.810  52.323  1.00  0.00    -0.255 NA
HETATM    9  C15 UNL     1      20.453   1.764  52.720  1.00  0.00     0.118 C 
HETATM   10  C16 UNL     1      21.350   0.861  53.052  1.00  0.00     0.029 C 
ENDROOT
BRANCH   4  11
HETATM   11  C7  UNL     1      23.532   4.898  50.520  1.00  0.00     0.035 C 
HETATM   12  C8  UNL     1      23.599   4.900  49.196  1.00  0.00     0.027 C 
HETATM   13  C9  UNL     1      24.066   5.993  48.333  1.00  0.00     0.000 C 
HETATM   14  C10 UNL     1      24.362   7.245  48.752  1.00  0.00    -0.001 C 
HETATM   15  C11 UNL     1      24.296   7.806  50.117  1.00  0.00     0.195 C 
HETATM   16  O3  UNL     1      23.453   7.158  50.969  1.00  0.00    -0.382 OA
HETATM   17  C12 UNL     1      23.900   5.980  51.506  1.00  0.00     0.224 C 
ENDBRANCH   4  11
BRANCH   3  18
HETATM   18  O2  UNL     1      25.186   2.953  51.053  1.00  0.00    -0.370 OA
HETATM   19  H10 UNL     1      25.943   3.110  51.664  1.00  0.00     0.212 HD
ENDBRANCH   3  18
BRANCH   2  20
HETATM   20  O1  UNL     1      25.024   1.507  52.547  1.00  0.00    -0.355 OA
HETATM   21  C5  UNL     1      25.815   1.897  53.671  1.00  0.00     0.209 C 
ENDBRANCH   2  20
BRANCH   1  22
HETATM   22  C2  UNL     1      23.371  -0.306  53.466  1.00  0.00     0.037 C 
HETATM   23  C1  UNL     1      22.478  -0.802  54.601  1.00  0.00     0.010 C 
ENDBRANCH   1  22
TORSDOF 4
ENDMDL
MODEL 7
REMARK VINA RESULT:      -6.2      2.335      3.731
REMARK  4 active torsions:
REMARK  status: ('A' for Active; 'I' for Inactive)
REMARK    1  A    between atoms: C2_2  and  C3_3 
REMARK    2  A    between atoms: C4_4  and  O1_5 
REMARK    3  A    between atoms: C6_7  and  O2_8 
REMARK    4  A    between atoms: N1_9  and  C7_10 
ROOT
HETATM    1  C3  UNL     1      25.258   0.674  53.086  1.00  0.00    -0.023 C 
HETATM    2  C4  UNL     1      23.995   0.768  52.804  1.00  0.00     0.100 C 
HETATM    3  C6  UNL     1      22.893   1.316  51.979  1.00  0.00     0.280 C 
HETATM    4  N1  UNL     1      23.185   2.633  51.429  1.00  0.00    -0.323 N 
HETATM    5  C13 UNL     1      24.203   3.679  51.452  1.00  0.00     0.256 C 
HETATM    6  N2  UNL     1      24.624   2.891  50.474  1.00  0.00    -0.253 NA
HETATM    7  C14 UNL     1      25.829   3.319  49.848  1.00  0.00     0.229 C 
HETATM    8  N3  UNL     1      26.831   2.810  50.455  1.00  0.00    -0.255 NA
HETATM    9  C15 UNL     1      26.739   1.956  51.578  1.00  0.00     0.118 C 
HETATM   10  C16 UNL     1      26.534   1.160  52.606  1.00  0.00     0.029 C 
ENDROOT
BRANCH   4  11
HETATM   11  C7  UNL     1      22.021   2.928  50.611  1.00  0.00     0.035 C 
HETATM   12  C8  UNL     1      21.837   1.911  49.781  1.00  0.00     0.027 C 
HETATM   13  C9  UNL     1      20.779   1.771  48.771  1.00  0.00     0.000 C 
HETATM   14  C10 UNL     1      19.722   2.602  48.630  1.00  0.00    -0.001 C 
HETATM   15  C11 UNL     1      19.374   3.803  49.415  1.00  0.00     0.195 C 
HETATM   16  O3  UNL     1      19.909   3.850  50.667  1.00  0.00    -0.382 OA
HETATM   17  C12 UNL     1      21.229   4.204  50.764  1.00  0.00     0.224 C 
ENDBRANCH   4  11
BRANCH   3  18
HETATM   18  O2  UNL     1      21.744   1.500  52.776  1.00  0.00    -0.370 OA
HETATM   19  H10 UNL     1      21.492   0.597  53.079  1.00  0.00     0.212 HD
ENDBRANCH   3  18
BRANCH   2  20
HETATM   20  O1  UNL     1      23.054   0.072  53.546  1.00  0.00    -0.355 OA
HETATM   21  C5  UNL     1      22.563  -1.202  53.125  1.00  0.00     0.209 C 
ENDBRANCH   2  20
BRANCH   1  22
HETATM   22  C2  UNL     1      25.557  -0.231  54.257  1.00  0.00     0.037 C 
HETATM   23  C1  UNL     1      26.804   0.283  54.974  1.00  0.00     0.010 C 
ENDBRANCH   1  22
TORSDOF 4
ENDMDL
MODEL 8
REMARK VINA RESULT:      -6.0      2.669      6.257
REMARK  4 active torsions:
REMARK  status: ('A' for Active; 'I' for Inactive)
REMARK    1  A    between atoms: C2_2  and  C3_3 
REMARK    2  A    between atoms: C4_4  and  O1_5 
REMARK    3  A    between atoms: C6_7  and  O2_8 
REMARK    4  A    between atoms: N1_9  and  C7_10 
ROOT
HETATM    1  C3  UNL     1      21.737   5.071  50.444  1.00  0.00    -0.023 C 
HETATM    2  C4  UNL     1      22.787   4.776  51.147  1.00  0.00     0.100 C 
HETATM    3  C6  UNL     1      23.772   3.788  51.646  1.00  0.00     0.280 C 
HETATM    4  N1  UNL     1      23.225   2.443  51.769  1.00  0.00    -0.323 N 
HETATM    5  C13 UNL     1      21.976   1.701  51.626  1.00  0.00     0.256 C 
HETATM    6  N2  UNL     1      22.472   1.666  50.398  1.00  0.00    -0.253 NA
HETATM    7  C14 UNL     1      21.666   0.970  49.455  1.00  0.00     0.229 C 
HETATM    8  N3  UNL     1      20.843   1.783  48.913  1.00  0.00    -0.255 NA
HETATM    9  C15 UNL     1      20.760   3.161  49.217  1.00  0.00     0.118 C 
HETATM   10  C16 UNL     1      20.780   4.430  49.568  1.00  0.00     0.029 C 
ENDROOT
BRANCH   4  11
HETATM   11  C7  UNL     1      24.366   1.647  52.190  1.00  0.00     0.035 C 
HETATM   12  C8  UNL     1      23.941   0.765  53.083  1.00  0.00     0.027 C 
HETATM   13  C9  UNL     1      24.744  -0.248  53.782  1.00  0.00     0.000 C 
HETATM   14  C10 UNL     1      26.035  -0.544  53.507  1.00  0.00    -0.001 C 
HETATM   15  C11 UNL     1      26.925   0.044  52.485  1.00  0.00     0.195 C 
HETATM   16  O3  UNL     1      26.288   0.627  51.430  1.00  0.00    -0.382 OA
HETATM   17  C12 UNL     1      25.754   1.871  51.639  1.00  0.00     0.224 C 
ENDBRANCH   4  11
BRANCH   3  18
HETATM   18  O2  UNL     1      24.183   4.136  52.949  1.00  0.00    -0.370 OA
HETATM   19  H10 UNL     1      24.921   3.519  53.161  1.00  0.00     0.212 HD
ENDBRANCH   3  18
BRANCH   2  20
HETATM   20  O1  UNL     1      23.458   5.758  51.857  1.00  0.00    -0.355 OA
HETATM   21  C5  UNL     1      24.384   6.641  51.221  1.00  0.00     0.209 C 
ENDBRANCH   2  20
BRANCH   1  22
HETATM   22  C2  UNL     1      21.356   6.532  50.498  1.00  0.00     0.037 C 
HETATM   23  C1  UNL     1      21.303   7.082  49.075  1.00  0.00     0.010 C 
ENDBRANCH   1  22
TORSDOF 4
ENDMDL
MODEL 9
REMARK VINA RESULT:      -6.0      2.681      5.083
REMARK  4 active torsions:
REMARK  status: ('A' for Active; 'I' for Inactive)
REMARK    1  A    between atoms: C2_2  and  C3_3 
REMARK    2  A    between atoms: C4_4  and  O1_5 
REMARK    3  A    between atoms: C6_7  and  O2_8 
REMARK    4  A    between atoms: N1_9  and  C7_10 
ROOT
HETATM    1  C3  UNL     1      18.989  -0.773  53.009  1.00  0.00    -0.023 C 
HETATM    2  C4  UNL     1      18.991   0.041  51.999  1.00  0.00     0.100 C 
HETATM    3  C6  UNL     1      19.715   0.906  51.038  1.00  0.00     0.280 C 
HETATM    4  N1  UNL     1      20.943   1.470  51.583  1.00  0.00    -0.323 N 
HETATM    5  C13 UNL     1      21.719   1.535  52.818  1.00  0.00     0.256 C 
HETATM    6  N2  UNL     1      22.172   0.425  52.253  1.00  0.00    -0.253 NA
HETATM    7  C14 UNL     1      23.176  -0.251  53.001  1.00  0.00     0.229 C 
HETATM    8  N3  UNL     1      22.628  -1.087  53.796  1.00  0.00    -0.255 NA
HETATM    9  C15 UNL     1      21.233  -1.294  53.905  1.00  0.00     0.118 C 
HETATM   10  C16 UNL     1      19.922  -1.413  53.911  1.00  0.00     0.029 C 
ENDROOT
BRANCH   4  11
HETATM   11  C7  UNL     1      21.510   2.202  50.464  1.00  0.00     0.035 C 
HETATM   12  C8  UNL     1      21.564   1.381  49.424  1.00  0.00     0.027 C 
HETATM   13  C9  UNL     1      22.065   1.687  48.077  1.00  0.00     0.000 C 
HETATM   14  C10 UNL     1      22.413   2.917  47.636  1.00  0.00    -0.001 C 
HETATM   15  C11 UNL     1      22.383   4.205  48.359  1.00  0.00     0.195 C 
HETATM   16  O3  UNL     1      21.524   4.255  49.415  1.00  0.00    -0.382 OA
HETATM   17  C12 UNL     1      21.931   3.648  50.574  1.00  0.00     0.224 C 
ENDBRANCH   4  11
BRANCH   3  18
HETATM   18  O2  UNL     1      18.919   2.022  50.703  1.00  0.00    -0.370 OA
HETATM   19  H10 UNL     1      18.046   1.852  51.126  1.00  0.00     0.212 HD
ENDBRANCH   3  18
BRANCH   2  20
HETATM   20  O1  UNL     1      17.805   0.391  51.374  1.00  0.00    -0.355 OA
HETATM   21  C5  UNL     1      17.291  -0.357  50.270  1.00  0.00     0.209 C 
ENDBRANCH   2  20
BRANCH   1  22
HETATM   22  C2  UNL     1      17.614  -1.258  53.400  1.00  0.00     0.037 C 
HETATM   23  C1  UNL     1      17.663  -2.770  53.607  1.00  0.00     0.010 C 
ENDBRANCH   1  22
TORSDOF 4
ENDMDL
