MODEL 1
REMARK VINA RESULT:      -8.6      0.000      0.000
REMARK  3 active torsions:
REMARK  status: ('A' for Active; 'I' for Inactive)
REMARK    1  A    between atoms: C6_9  and  N3_10 
REMARK    2  A    between atoms: C15_21  and  O2_22 
REMARK    3  A    between atoms: O2_22  and  C16_23 
ROOT
HETATM    1  C1  UNL     1      18.865   1.773  51.554  1.00  0.00     0.310 C 
HETATM    2  N1  UNL     1      20.277   1.638  51.607  1.00  0.00     0.093 N 
HETATM    3  C2  UNL     1      20.723   1.679  53.005  1.00  0.00     0.300 C 
HETATM    4  C3  UNL     1      20.380   0.476  53.715  1.00  0.00     0.008 C 
HETATM    5  C4  UNL     1      21.466  -0.213  54.057  1.00  0.00     0.072 C 
HETATM    6  C5  UNL     1      22.946  -0.345  54.051  1.00  0.00     0.246 C 
HETATM    7  O1  UNL     1      23.925  -1.048  54.426  1.00  0.00    -0.268 OA
HETATM    8  N2  UNL     1      24.099   0.383  53.514  1.00  0.00    -0.309 N 
HETATM    9  C6  UNL     1      25.233   1.051  53.015  1.00  0.00     0.119 C 
HETATM   10  C12 UNL     1      25.382   2.183  52.294  1.00  0.00     0.022 C 
HETATM   11  C13 UNL     1      24.759   1.932  51.107  1.00  0.00     0.018 C 
HETATM   12  C14 UNL     1      23.337   1.651  51.245  1.00  0.00     0.035 C 
HETATM   13  C15 UNL     1      22.400   2.548  50.945  1.00  0.00     0.075 C 
HETATM   14  C20 UNL     1      20.900   2.775  50.929  1.00  0.00     0.336 C 
HETATM   15  H8  UNL     1      23.525   1.194  53.399  1.00  0.00     0.170 HD
ENDROOT
BRANCH   9  16
HETATM   16  N3  UNL     1      26.145   0.111  53.540  1.00  0.00    -0.332 N 
HETATM   17  C7  UNL     1      26.691  -0.043  54.862  1.00  0.00     0.156 C 
HETATM   18  C8  UNL     1      28.168   0.269  54.817  1.00  0.00     0.012 C 
HETATM   19  C9  UNL     1      28.753  -0.362  53.808  1.00  0.00     0.014 C 
HETATM   20 CL1  UNL     1      30.482  -0.044  53.693  1.00  0.00    -0.089 Cl
HETATM   21  C10 UNL     1      28.064  -1.257  52.844  1.00  0.00     0.110 C 
HETATM   22  C11 UNL     1      26.635  -0.875  52.605  1.00  0.00     0.278 C 
HETATM   23  F1  UNL     1      25.839  -1.998  52.695  1.00  0.00    -0.226 F 
ENDBRANCH   9  16
BRANCH  13  24
HETATM   24  O2  UNL     1      23.533   3.269  50.637  1.00  0.00    -0.346 OA
BRANCH  24  25
HETATM   25  C16 UNL     1      23.426   4.623  50.318  1.00  0.00     0.154 C 
HETATM   26  C17 UNL     1      24.618   5.132  49.528  1.00  0.00     0.061 C 
HETATM   27  C18 UNL     1      24.672   6.552  50.003  1.00  0.00     0.170 C 
HETATM   28  O3  UNL     1      24.217   6.574  51.308  1.00  0.00    -0.389 OA
HETATM   29  C19 UNL     1      23.496   5.438  51.563  1.00  0.00     0.200 C 
ENDBRANCH  24  25
ENDBRANCH  13  24
TORSDOF 3
ENDMDL
MODEL 2
REMARK VINA RESULT:      -8.4      3.094      6.218
REMARK  3 active torsions:
REMARK  status: ('A' for Active; 'I' for Inactive)
REMARK    1  A    between atoms: C6_9  and  N3_10 
REMARK    2  A    between atoms: C15_21  and  O2_22 
REMARK    3  A    between atoms: O2_22  and  C16_23 
ROOT
HETATM    1  C1  UNL     1      20.995  -1.502  54.114  1.00  0.00     0.310 C 
HETATM    2  N1  UNL     1      21.820  -0.431  53.682  1.00  0.00     0.093 N 
HETATM    3  C2  UNL     1      21.664  -0.243  52.235  1.00  0.00     0.300 C 
HETATM    4  C3  UNL     1      20.391   0.339  51.902  1.00  0.00     0.008 C 
HETATM    5  C4  UNL     1      20.532   1.563  51.400  1.00  0.00     0.072 C 
HETATM    6  C5  UNL     1      21.424   2.684  51.003  1.00  0.00     0.246 C 
HETATM    7  O1  UNL     1      21.474   3.842  50.506  1.00  0.00    -0.268 OA
HETATM    8  N2  UNL     1      22.856   2.993  51.032  1.00  0.00    -0.309 N 
HETATM    9  C6  UNL     1      24.223   3.331  51.043  1.00  0.00     0.119 C 
HETATM   10  C12 UNL     1      25.324   2.667  51.456  1.00  0.00     0.022 C 
HETATM   11  C13 UNL     1      25.151   2.494  52.797  1.00  0.00     0.018 C 
HETATM   12  C14 UNL     1      23.976   1.702  53.134  1.00  0.00     0.035 C 
HETATM   13  C15 UNL     1      24.058   0.428  53.512  1.00  0.00     0.075 C 
HETATM   14  C20 UNL     1      23.223  -0.773  53.917  1.00  0.00     0.336 C 
HETATM   15  H8  UNL     1      23.058   2.020  51.149  1.00  0.00     0.170 HD
ENDROOT
BRANCH   9  16
HETATM   16  N3  UNL     1      24.018   4.603  50.470  1.00  0.00    -0.332 N 
HETATM   17  C7  UNL     1      23.816   5.005  49.103  1.00  0.00     0.156 C 
HETATM   18  C8  UNL     1      25.016   5.802  48.648  1.00  0.00     0.012 C 
HETATM   19  C9  UNL     1      25.335   6.726  49.543  1.00  0.00     0.014 C 
HETATM   20 CL1  UNL     1      26.730   7.698  49.078  1.00  0.00    -0.089 Cl
HETATM   21  C10 UNL     1      24.622   6.959  50.824  1.00  0.00     0.110 C 
HETATM   22  C11 UNL     1      24.014   5.713  51.394  1.00  0.00     0.278 C 
HETATM   23  F1  UNL     1      22.710   5.968  51.767  1.00  0.00    -0.226 F 
ENDBRANCH   9  16
BRANCH  13  24
HETATM   24  O2  UNL     1      25.394   0.714  53.334  1.00  0.00    -0.346 OA
BRANCH  24  25
HETATM   25  C16 UNL     1      26.360  -0.187  53.781  1.00  0.00     0.154 C 
HETATM   26  C17 UNL     1      27.290   0.420  54.816  1.00  0.00     0.061 C 
HETATM   27  C18 UNL     1      28.552  -0.332  54.522  1.00  0.00     0.170 C 
HETATM   28  O3  UNL     1      28.564  -0.616  53.169  1.00  0.00    -0.389 OA
HETATM   29  C19 UNL     1      27.294  -0.516  52.667  1.00  0.00     0.200 C 
ENDBRANCH  24  25
ENDBRANCH  13  24
TORSDOF 3
ENDMDL
MODEL 3
REMARK VINA RESULT:      -8.1      1.393      1.542
REMARK  3 active torsions:
REMARK  status: ('A' for Active; 'I' for Inactive)
REMARK    1  A    between atoms: C6_9  and  N3_10 
REMARK    2  A    between atoms: C15_21  and  O2_22 
REMARK    3  A    between atoms: O2_22  and  C16_23 
ROOT
HETATM    1  C1  UNL     1      17.990  -0.161  51.647  1.00  0.00     0.310 C 
HETATM    2  N1  UNL     1      19.387   0.087  51.691  1.00  0.00     0.093 N 
HETATM    3  C2  UNL     1      19.818   0.221  53.088  1.00  0.00     0.300 C 
HETATM    4  C3  UNL     1      19.818  -1.042  53.776  1.00  0.00     0.008 C 
HETATM    5  C4  UNL     1      21.051  -1.420  54.101  1.00  0.00     0.072 C 
HETATM    6  C5  UNL     1      22.513  -1.150  54.086  1.00  0.00     0.246 C 
HETATM    7  O1  UNL     1      23.647  -1.571  54.443  1.00  0.00    -0.268 OA
HETATM    8  N2  UNL     1      23.422  -0.130  53.559  1.00  0.00    -0.309 N 
HETATM    9  C6  UNL     1      24.332   0.827  53.068  1.00  0.00     0.119 C 
HETATM   10  C12 UNL     1      24.165   1.970  52.369  1.00  0.00     0.022 C 
HETATM   11  C13 UNL     1      23.622   1.582  51.181  1.00  0.00     0.018 C 
HETATM   12  C14 UNL     1      22.329   0.927  51.318  1.00  0.00     0.035 C 
HETATM   13  C15 UNL     1      21.183   1.545  51.039  1.00  0.00     0.075 C 
HETATM   14  C20 UNL     1      19.677   1.361  51.034  1.00  0.00     0.336 C 
HETATM   15  H8  UNL     1      22.651   0.499  53.462  1.00  0.00     0.170 HD
ENDROOT
BRANCH   9  16
HETATM   16  N3  UNL     1      25.467   0.157  53.571  1.00  0.00    -0.332 N 
HETATM   17  C7  UNL     1      25.954  -0.004  54.916  1.00  0.00     0.156 C 
HETATM   18  C8  UNL     1      27.250   0.760  55.057  1.00  0.00     0.012 C 
HETATM   19  C9  UNL     1      28.066   0.495  54.047  1.00  0.00     0.014 C 
HETATM   20 CL1  UNL     1      29.602   1.353  54.145  1.00  0.00    -0.089 Cl
HETATM   21  C10 UNL     1      27.764  -0.425  52.922  1.00  0.00     0.110 C 
HETATM   22  C11 UNL     1      26.305  -0.483  52.584  1.00  0.00     0.278 C 
HETATM   23  F1  UNL     1      25.913  -1.800  52.463  1.00  0.00    -0.226 F 
ENDBRANCH   9  16
BRANCH  13  24
HETATM   24  O2  UNL     1      22.078   2.549  50.741  1.00  0.00    -0.346 OA
BRANCH  24  25
HETATM   25  C16 UNL     1      21.632   3.705  50.098  1.00  0.00     0.154 C 
HETATM   26  C17 UNL     1      22.314   3.927  48.760  1.00  0.00     0.061 C 
HETATM   27  C18 UNL     1      22.317   5.424  48.703  1.00  0.00     0.170 C 
HETATM   28  O3  UNL     1      22.418   5.893  49.999  1.00  0.00    -0.389 OA
HETATM   29  C19 UNL     1      22.053   4.905  50.874  1.00  0.00     0.200 C 
ENDBRANCH  24  25
ENDBRANCH  13  24
TORSDOF 3
ENDMDL
MODEL 4
REMARK VINA RESULT:      -7.2      3.560      6.474
REMARK  3 active torsions:
REMARK  status: ('A' for Active; 'I' for Inactive)
REMARK    1  A    between atoms: C6_9  and  N3_10 
REMARK    2  A    between atoms: C15_21  and  O2_22 
REMARK    3  A    between atoms: O2_22  and  C16_23 
ROOT
HETATM    1  C1  UNL     1      17.856  -0.858  52.560  1.00  0.00     0.310 C 
HETATM    2  N1  UNL     1      18.951   0.037  52.441  1.00  0.00     0.093 N 
HETATM    3  C2  UNL     1      19.237   0.280  51.022  1.00  0.00     0.300 C 
HETATM    4  C3  UNL     1      18.235   1.106  50.404  1.00  0.00     0.008 C 
HETATM    5  C4  UNL     1      18.732   2.288  50.047  1.00  0.00     0.072 C 
HETATM    6  C5  UNL     1      19.889   3.218  49.984  1.00  0.00     0.246 C 
HETATM    7  O1  UNL     1      20.287   4.352  49.601  1.00  0.00    -0.268 OA
HETATM    8  N2  UNL     1      21.290   3.238  50.416  1.00  0.00    -0.309 N 
HETATM    9  C6  UNL     1      22.638   3.300  50.814  1.00  0.00     0.119 C 
HETATM   10  C12 UNL     1      23.441   2.425  51.458  1.00  0.00     0.022 C 
HETATM   11  C13 UNL     1      22.876   2.265  52.688  1.00  0.00     0.018 C 
HETATM   12  C14 UNL     1      21.529   1.714  52.641  1.00  0.00     0.035 C 
HETATM   13  C15 UNL     1      21.267   0.442  52.936  1.00  0.00     0.075 C 
HETATM   14  C20 UNL     1      20.147  -0.578  53.017  1.00  0.00     0.336 C 
HETATM   15  H8  UNL     1      21.268   2.243  50.512  1.00  0.00     0.170 HD
ENDROOT
BRANCH   9  16
HETATM   16  N3  UNL     1      22.838   4.599  50.300  1.00  0.00    -0.332 N 
HETATM   17  C7  UNL     1      22.978   5.070  48.948  1.00  0.00     0.156 C 
HETATM   18  C8  UNL     1      24.390   5.569  48.751  1.00  0.00     0.012 C 
HETATM   19  C9  UNL     1      24.752   6.368  49.746  1.00  0.00     0.014 C 
HETATM   20 CL1  UNL     1      26.392   6.989  49.583  1.00  0.00    -0.089 Cl
HETATM   21  C10 UNL     1      23.897   6.732  50.903  1.00  0.00     0.110 C 
HETATM   22  C11 UNL     1      22.927   5.655  51.282  1.00  0.00     0.278 C 
HETATM   23  F1  UNL     1      21.672   6.204  51.449  1.00  0.00    -0.226 F 
ENDBRANCH   9  16
BRANCH  13  24
HETATM   24  O2  UNL     1      22.629   0.463  53.141  1.00  0.00    -0.346 OA
BRANCH  24  25
HETATM   25  C16 UNL     1      23.267  -0.660  53.670  1.00  0.00     0.154 C 
HETATM   26  C17 UNL     1      22.962  -0.864  55.143  1.00  0.00     0.061 C 
HETATM   27  C18 UNL     1      24.242  -1.495  55.599  1.00  0.00     0.170 C 
HETATM   28  O3  UNL     1      25.262  -0.982  54.822  1.00  0.00    -0.389 OA
HETATM   29  C19 UNL     1      24.741  -0.445  53.675  1.00  0.00     0.200 C 
ENDBRANCH  24  25
ENDBRANCH  13  24
TORSDOF 3
ENDMDL
MODEL 5
REMARK VINA RESULT:      -7.1      4.116      7.709
REMARK  3 active torsions:
REMARK  status: ('A' for Active; 'I' for Inactive)
REMARK    1  A    between atoms: C6_9  and  N3_10 
REMARK    2  A    between atoms: C15_21  and  O2_22 
REMARK    3  A    between atoms: O2_22  and  C16_23 
ROOT
HETATM    1  C1  UNL     1      27.600   5.142  48.648  1.00  0.00     0.310 C 
HETATM    2  N1  UNL     1      26.399   4.499  49.048  1.00  0.00     0.093 N 
HETATM    3  C2  UNL     1      25.459   5.496  49.572  1.00  0.00     0.300 C 
HETATM    4  C3  UNL     1      24.907   6.319  48.529  1.00  0.00     0.008 C 
HETATM    5  C4  UNL     1      23.603   6.104  48.378  1.00  0.00     0.072 C 
HETATM    6  C5  UNL     1      22.374   5.377  48.790  1.00  0.00     0.246 C 
HETATM    7  O1  UNL     1      21.135   5.243  48.596  1.00  0.00    -0.268 OA
HETATM    8  N2  UNL     1      22.005   4.322  49.738  1.00  0.00    -0.309 N 
HETATM    9  C6  UNL     1      21.607   3.310  50.633  1.00  0.00     0.119 C 
HETATM   10  C12 UNL     1      22.286   2.576  51.540  1.00  0.00     0.022 C 
HETATM   11  C13 UNL     1      23.185   1.856  50.812  1.00  0.00     0.018 C 
HETATM   12  C14 UNL     1      24.133   2.682  50.078  1.00  0.00     0.035 C 
HETATM   13  C15 UNL     1      25.391   2.854  50.480  1.00  0.00     0.075 C 
HETATM   14  C20 UNL     1      26.685   3.569  50.140  1.00  0.00     0.336 C 
HETATM   15  H8  UNL     1      22.857   4.479  50.236  1.00  0.00     0.170 HD
ENDROOT
BRANCH   9  16
HETATM   16  N3  UNL     1      20.254   3.348  50.235  1.00  0.00    -0.332 N 
HETATM   17  C7  UNL     1      19.198   4.272  50.554  1.00  0.00     0.156 C 
HETATM   18  C8  UNL     1      18.169   3.560  51.400  1.00  0.00     0.012 C 
HETATM   19  C9  UNL     1      17.851   2.387  50.869  1.00  0.00     0.014 C 
HETATM   20 CL1  UNL     1      16.651   1.498  51.804  1.00  0.00    -0.089 Cl
HETATM   21  C10 UNL     1      18.420   1.834  49.614  1.00  0.00     0.110 C 
HETATM   22  C11 UNL     1      19.828   2.280  49.360  1.00  0.00     0.278 C 
HETATM   23  F1  UNL     1      19.946   2.710  48.055  1.00  0.00    -0.226 F 
ENDBRANCH   9  16
BRANCH  13  24
HETATM   24  O2  UNL     1      24.934   2.008  51.467  1.00  0.00    -0.346 OA
BRANCH  24  25
HETATM   25  C16 UNL     1      25.847   1.365  52.303  1.00  0.00     0.154 C 
HETATM   26  C17 UNL     1      25.278   0.104  52.928  1.00  0.00     0.061 C 
HETATM   27  C18 UNL     1      26.007   0.095  54.236  1.00  0.00     0.170 C 
HETATM   28  O3  UNL     1      26.233   1.410  54.598  1.00  0.00    -0.389 OA
HETATM   29  C19 UNL     1      26.122   2.215  53.496  1.00  0.00     0.200 C 
ENDBRANCH  24  25
ENDBRANCH  13  24
TORSDOF 3
ENDMDL
MODEL 6
REMARK VINA RESULT:      -7.0      6.520      9.633
REMARK  3 active torsions:
REMARK  status: ('A' for Active; 'I' for Inactive)
REMARK    1  A    between atoms: C6_9  and  N3_10 
REMARK    2  A    between atoms: C15_21  and  O2_22 
REMARK    3  A    between atoms: O2_22  and  C16_23 
ROOT
HETATM    1  C1  UNL     1      31.523   7.625  48.659  1.00  0.00     0.310 C 
HETATM    2  N1  UNL     1      30.137   7.795  48.917  1.00  0.00     0.093 N 
HETATM    3  C2  UNL     1      29.357   7.055  47.919  1.00  0.00     0.300 C 
HETATM    4  C3  UNL     1      29.426   5.633  48.126  1.00  0.00     0.008 C 
HETATM    5  C4  UNL     1      28.244   5.136  48.482  1.00  0.00     0.072 C 
HETATM    6  C5  UNL     1      26.808   5.359  48.793  1.00  0.00     0.246 C 
HETATM    7  O1  UNL     1      25.721   4.808  49.119  1.00  0.00    -0.268 OA
HETATM    8  N2  UNL     1      25.881   6.490  48.887  1.00  0.00    -0.309 N 
HETATM    9  C6  UNL     1      24.958   7.548  48.990  1.00  0.00     0.119 C 
HETATM   10  C12 UNL     1      25.074   8.881  48.808  1.00  0.00     0.022 C 
HETATM   11  C13 UNL     1      25.957   9.293  49.761  1.00  0.00     0.018 C 
HETATM   12  C14 UNL     1      27.276   8.689  49.631  1.00  0.00     0.035 C 
HETATM   13  C15 UNL     1      28.318   9.350  49.129  1.00  0.00     0.075 C 
HETATM   14  C20 UNL     1      29.785   9.207  48.770  1.00  0.00     0.336 C 
HETATM   15  H8  UNL     1      26.520   7.049  48.358  1.00  0.00     0.170 HD
ENDROOT
BRANCH   9  16
HETATM   16  N3  UNL     1      23.882   6.710  49.349  1.00  0.00    -0.332 N 
HETATM   17  C7  UNL     1      23.114   5.770  48.577  1.00  0.00     0.156 C 
HETATM   18  C8  UNL     1      21.704   6.294  48.438  1.00  0.00     0.012 C 
HETATM   19  C9  UNL     1      21.230   6.692  49.610  1.00  0.00     0.014 C 
HETATM   20 CL1  UNL     1      19.585   7.316  49.525  1.00  0.00    -0.089 Cl
HETATM   21  C10 UNL     1      21.972   6.638  50.895  1.00  0.00     0.110 C 
HETATM   22  C11 UNL     1      23.453   6.797  50.726  1.00  0.00     0.278 C 
HETATM   23  F1  UNL     1      24.105   5.820  51.450  1.00  0.00    -0.226 F 
ENDBRANCH   9  16
BRANCH  13  24
HETATM   24  O2  UNL     1      27.351  10.329  49.055  1.00  0.00    -0.346 OA
BRANCH  24  25
HETATM   25  C16 UNL     1      27.578  11.467  48.281  1.00  0.00     0.154 C 
HETATM   26  C17 UNL     1      28.440  12.494  48.992  1.00  0.00     0.061 C 
HETATM   27  C18 UNL     1      27.889  13.760  48.413  1.00  0.00     0.170 C 
HETATM   28  O3  UNL     1      26.549  13.550  48.146  1.00  0.00    -0.389 OA
HETATM   29  C19 UNL     1      26.298  12.205  48.087  1.00  0.00     0.200 C 
ENDBRANCH  24  25
ENDBRANCH  13  24
TORSDOF 3
ENDMDL
MODEL 7
REMARK VINA RESULT:      -7.0      3.795      7.491
REMARK  3 active torsions:
REMARK  status: ('A' for Active; 'I' for Inactive)
REMARK    1  A    between atoms: C6_9  and  N3_10 
REMARK    2  A    between atoms: C15_21  and  O2_22 
REMARK    3  A    between atoms: O2_22  and  C16_23 
ROOT
HETATM    1  C1  UNL     1      26.734  -0.973  53.027  1.00  0.00     0.310 C 
HETATM    2  N1  UNL     1      25.734  -0.062  52.593  1.00  0.00     0.093 N 
HETATM    3  C2  UNL     1      26.149   1.310  52.909  1.00  0.00     0.300 C 
HETATM    4  C3  UNL     1      27.215   1.761  52.055  1.00  0.00     0.008 C 
HETATM    5  C4  UNL     1      26.814   2.747  51.256  1.00  0.00     0.072 C 
HETATM    6  C5  UNL     1      25.730   3.652  50.793  1.00  0.00     0.246 C 
HETATM    7  O1  UNL     1      25.434   4.599  50.015  1.00  0.00    -0.268 OA
HETATM    8  N2  UNL     1      24.307   3.868  51.066  1.00  0.00    -0.309 N 
HETATM    9  C6  UNL     1      22.939   4.108  51.296  1.00  0.00     0.119 C 
HETATM   10  C12 UNL     1      22.039   3.537  52.125  1.00  0.00     0.022 C 
HETATM   11  C13 UNL     1      21.947   2.242  51.710  1.00  0.00     0.018 C 
HETATM   12  C14 UNL     1      23.203   1.510  51.809  1.00  0.00     0.035 C 
HETATM   13  C15 UNL     1      23.441   0.630  52.780  1.00  0.00     0.075 C 
HETATM   14  C20 UNL     1      24.496  -0.312  53.330  1.00  0.00     0.336 C 
HETATM   15  H8  UNL     1      24.401   3.363  51.924  1.00  0.00     0.170 HD
ENDROOT
BRANCH   9  16
HETATM   16  N3  UNL     1      22.858   5.153  50.351  1.00  0.00    -0.332 N 
HETATM   17  C7  UNL     1      23.345   6.506  50.392  1.00  0.00     0.156 C 
HETATM   18  C8  UNL     1      22.163   7.446  50.442  1.00  0.00     0.012 C 
HETATM   19  C9  UNL     1      21.261   7.120  49.526  1.00  0.00     0.014 C 
HETATM   20 CL1  UNL     1      19.851   8.176  49.527  1.00  0.00    -0.089 Cl
HETATM   21  C10 UNL     1      21.380   5.988  48.574  1.00  0.00     0.110 C 
HETATM   22  C11 UNL     1      22.165   4.835  49.124  1.00  0.00     0.278 C 
HETATM   23  F1  UNL     1      23.093   4.424  48.191  1.00  0.00    -0.226 F 
ENDBRANCH   9  16
BRANCH  13  24
HETATM   24  O2  UNL     1      22.161   1.016  53.112  1.00  0.00    -0.346 OA
BRANCH  24  25
HETATM   25  C16 UNL     1      21.400   0.223  53.972  1.00  0.00     0.154 C 
HETATM   26  C17 UNL     1      21.749  -1.251  53.866  1.00  0.00     0.061 C 
HETATM   27  C18 UNL     1      20.419  -1.867  54.174  1.00  0.00     0.170 C 
HETATM   28  O3  UNL     1      19.441  -1.006  53.713  1.00  0.00    -0.389 OA
HETATM   29  C19 UNL     1      19.973   0.245  53.544  1.00  0.00     0.200 C 
ENDBRANCH  24  25
ENDBRANCH  13  24
TORSDOF 3
ENDMDL
MODEL 8
REMARK VINA RESULT:      -7.0      4.223      6.837
REMARK  3 active torsions:
REMARK  status: ('A' for Active; 'I' for Inactive)
REMARK    1  A    between atoms: C6_9  and  N3_10 
REMARK    2  A    between atoms: C15_21  and  O2_22 
REMARK    3  A    between atoms: O2_22  and  C16_23 
ROOT
HETATM    1  C1  UNL     1      27.002   8.510  49.300  1.00  0.00     0.310 C 
HETATM    2  N1  UNL     1      25.930   7.690  49.741  1.00  0.00     0.093 N 
HETATM    3  C2  UNL     1      25.765   6.559  48.821  1.00  0.00     0.300 C 
HETATM    4  C3  UNL     1      26.824   5.594  48.957  1.00  0.00     0.008 C 
HETATM    5  C4  UNL     1      26.372   4.441  49.442  1.00  0.00     0.072 C 
HETATM    6  C5  UNL     1      25.234   3.627  49.944  1.00  0.00     0.246 C 
HETATM    7  O1  UNL     1      24.882   2.498  50.384  1.00  0.00    -0.268 OA
HETATM    8  N2  UNL     1      23.803   3.807  50.205  1.00  0.00    -0.309 N 
HETATM    9  C6  UNL     1      22.427   3.937  50.471  1.00  0.00     0.119 C 
HETATM   10  C12 UNL     1      21.564   4.967  50.332  1.00  0.00     0.022 C 
HETATM   11  C13 UNL     1      22.023   5.930  51.180  1.00  0.00     0.018 C 
HETATM   12  C14 UNL     1      23.364   6.399  50.856  1.00  0.00     0.035 C 
HETATM   13  C15 UNL     1      23.585   7.565  50.252  1.00  0.00     0.075 C 
HETATM   14  C20 UNL     1      24.684   8.455  49.701  1.00  0.00     0.336 C 
HETATM   15  H8  UNL     1      23.806   4.619  49.622  1.00  0.00     0.170 HD
ENDROOT
BRANCH   9  16
HETATM   16  N3  UNL     1      22.286   2.611  50.930  1.00  0.00    -0.332 N 
HETATM   17  C7  UNL     1      22.292   1.358  50.223  1.00  0.00     0.156 C 
HETATM   18  C8  UNL     1      20.910   0.753  50.294  1.00  0.00     0.012 C 
HETATM   19  C9  UNL     1      20.445   0.782  51.535  1.00  0.00     0.014 C 
HETATM   20 CL1  UNL     1      18.832   0.091  51.693  1.00  0.00    -0.089 Cl
HETATM   21  C10 UNL     1      21.170   1.331  52.708  1.00  0.00     0.110 C 
HETATM   22  C11 UNL     1      22.093   2.458  52.354  1.00  0.00     0.278 C 
HETATM   23  F1  UNL     1      23.323   2.247  52.942  1.00  0.00    -0.226 F 
ENDBRANCH   9  16
BRANCH  13  24
HETATM   24  O2  UNL     1      22.211   7.598  50.345  1.00  0.00    -0.346 OA
BRANCH  24  25
HETATM   25  C16 UNL     1      21.491   8.541  49.612  1.00  0.00     0.154 C 
HETATM   26  C17 UNL     1      20.053   8.672  50.082  1.00  0.00     0.061 C 
HETATM   27  C18 UNL     1      19.377   9.024  48.794  1.00  0.00     0.170 C 
HETATM   28  O3  UNL     1      20.072   8.405  47.772  1.00  0.00    -0.389 OA
HETATM   29  C19 UNL     1      21.325   8.067  48.209  1.00  0.00     0.200 C 
ENDBRANCH  24  25
ENDBRANCH  13  24
TORSDOF 3
ENDMDL
MODEL 9
REMARK VINA RESULT:      -7.0      2.113      4.384
REMARK  3 active torsions:
REMARK  status: ('A' for Active; 'I' for Inactive)
REMARK    1  A    between atoms: C6_9  and  N3_10 
REMARK    2  A    between atoms: C15_21  and  O2_22 
REMARK    3  A    between atoms: O2_22  and  C16_23 
ROOT
HETATM    1  C1  UNL     1      23.245   5.879  49.243  1.00  0.00     0.310 C 
HETATM    2  N1  UNL     1      23.360   4.777  50.132  1.00  0.00     0.093 N 
HETATM    3  C2  UNL     1      24.220   3.750  49.532  1.00  0.00     0.300 C 
HETATM    4  C3  UNL     1      25.603   4.144  49.521  1.00  0.00     0.008 C 
HETATM    5  C4  UNL     1      26.334   3.376  50.326  1.00  0.00     0.072 C 
HETATM    6  C5  UNL     1      26.409   2.248  51.290  1.00  0.00     0.246 C 
HETATM    7  O1  UNL     1      27.173   1.556  52.018  1.00  0.00    -0.268 OA
HETATM    8  N2  UNL     1      25.488   1.305  51.931  1.00  0.00    -0.309 N 
HETATM    9  C6  UNL     1      24.638   0.383  52.570  1.00  0.00     0.119 C 
HETATM   10  C12 UNL     1      23.305   0.175  52.507  1.00  0.00     0.022 C 
HETATM   11  C13 UNL     1      22.745   1.324  52.982  1.00  0.00     0.018 C 
HETATM   12  C14 UNL     1      23.071   2.500  52.188  1.00  0.00     0.035 C 
HETATM   13  C15 UNL     1      22.205   3.051  51.339  1.00  0.00     0.075 C 
HETATM   14  C20 UNL     1      22.044   4.169  50.327  1.00  0.00     0.336 C 
HETATM   15  H8  UNL     1      24.801   1.511  51.233  1.00  0.00     0.170 HD
ENDROOT
BRANCH   9  16
HETATM   16  N3  UNL     1      25.681  -0.237  53.289  1.00  0.00    -0.332 N 
HETATM   17  C7  UNL     1      26.000  -0.227  54.692  1.00  0.00     0.156 C 
HETATM   18  C8  UNL     1      27.295   0.524  54.891  1.00  0.00     0.012 C 
HETATM   19  C9  UNL     1      28.217   0.112  54.031  1.00  0.00     0.014 C 
HETATM   20 CL1  UNL     1      29.758   0.947  54.205  1.00  0.00    -0.089 Cl
HETATM   21  C10 UNL     1      28.018  -0.942  53.005  1.00  0.00     0.110 C 
HETATM   22  C11 UNL     1      26.609  -1.016  52.502  1.00  0.00     0.278 C 
HETATM   23  F1  UNL     1      26.188  -2.330  52.504  1.00  0.00    -0.226 F 
ENDBRANCH   9  16
BRANCH  13  24
HETATM   24  O2  UNL     1      21.437   2.019  51.833  1.00  0.00    -0.346 OA
BRANCH  24  25
HETATM   25  C16 UNL     1      20.101   1.905  51.448  1.00  0.00     0.154 C 
HETATM   26  C17 UNL     1      19.369   0.807  52.199  1.00  0.00     0.061 C 
HETATM   27  C18 UNL     1      18.386   0.374  51.156  1.00  0.00     0.170 C 
HETATM   28  O3  UNL     1      18.978   0.556  49.921  1.00  0.00    -0.389 OA
HETATM   29  C19 UNL     1      20.024   1.433  50.037  1.00  0.00     0.200 C 
ENDBRANCH  24  25
ENDBRANCH  13  24
TORSDOF 3
ENDMDL
