MODEL 1
REMARK VINA RESULT:      -6.6      0.000      0.000
REMARK  7 active torsions:
REMARK  status: ('A' for Active; 'I' for Inactive)
REMARK    1  A    between atoms: O1_2  and  C2_3 
REMARK    2  A    between atoms: C5_6  and  C6_7 
REMARK    3  A    between atoms: C6_7  and  C7_8 
REMARK    4  A    between atoms: C7_8  and  C8_9 
REMARK    5  A    between atoms: C8_9  and  O2_11 
REMARK    6  A    between atoms: O2_11  and  C9_12 
REMARK    7  A    between atoms: C12_15  and  O3_16 
ROOT
HETATM    1  C8  UNL     1      26.163   3.602  50.333  1.00  0.00     0.200 C 
HETATM    2 BR1  UNL     1      27.073   4.632  48.958  1.00  0.00    -0.061 Br
ENDROOT
BRANCH   1   3
HETATM    3  C7  UNL     1      24.876   2.998  49.768  1.00  0.00     0.048 C 
BRANCH   3   4
HETATM    4  C6  UNL     1      23.707   3.514  50.568  1.00  0.00     0.042 C 
BRANCH   4   5
HETATM    5  C5  UNL     1      23.014   2.330  51.150  1.00  0.00    -0.058 A 
HETATM    6  C4  UNL     1      23.268   2.115  52.474  1.00  0.00     0.010 A 
HETATM    7  C3  UNL     1      22.702   1.056  53.166  1.00  0.00     0.037 A 
HETATM    8  C2  UNL     1      21.862   0.229  52.437  1.00  0.00     0.068 A 
HETATM    9  C17 UNL     1      21.586   0.424  51.090  1.00  0.00     0.037 A 
HETATM   10  C16 UNL     1      22.177   1.502  50.430  1.00  0.00     0.010 A 
BRANCH   8  11
HETATM   11  O1  UNL     1      21.240  -0.868  53.041  1.00  0.00    -0.356 OA
HETATM   12  C1  UNL     1      21.168  -0.801  54.469  1.00  0.00     0.210 C 
ENDBRANCH   8  11
ENDBRANCH   4   5
ENDBRANCH   3   4
ENDBRANCH   1   3
BRANCH   1  13
HETATM   13  O2  UNL     1      27.052   2.604  50.754  1.00  0.00    -0.335 OA
BRANCH  13  14
HETATM   14  C9  UNL     1      26.832   1.934  51.938  1.00  0.00     0.070 A 
HETATM   15  C10 UNL     1      26.576   0.590  51.627  1.00  0.00     0.039 A 
HETATM   16  C11 UNL     1      26.312  -0.357  52.625  1.00  0.00     0.039 A 
HETATM   17  C12 UNL     1      26.298   0.020  53.973  1.00  0.00     0.068 A 
HETATM   18  C14 UNL     1      26.555   1.349  54.241  1.00  0.00     0.039 A 
HETATM   19  C15 UNL     1      26.814   2.280  53.267  1.00  0.00     0.039 A 
BRANCH  17  20
HETATM   20  O3  UNL     1      26.042  -0.892  54.967  1.00  0.00    -0.356 OA
HETATM   21  C13 UNL     1      24.694  -1.131  55.328  1.00  0.00     0.210 C 
ENDBRANCH  17  20
ENDBRANCH  13  14
ENDBRANCH   1  13
TORSDOF 7
ENDMDL
MODEL 2
REMARK VINA RESULT:      -6.6      2.792      5.002
REMARK  7 active torsions:
REMARK  status: ('A' for Active; 'I' for Inactive)
REMARK    1  A    between atoms: O1_2  and  C2_3 
REMARK    2  A    between atoms: C5_6  and  C6_7 
REMARK    3  A    between atoms: C6_7  and  C7_8 
REMARK    4  A    between atoms: C7_8  and  C8_9 
REMARK    5  A    between atoms: C8_9  and  O2_11 
REMARK    6  A    between atoms: O2_11  and  C9_12 
REMARK    7  A    between atoms: C12_15  and  O3_16 
ROOT
HETATM    1  C8  UNL     1      22.926  -0.625  53.425  1.00  0.00     0.200 C 
HETATM    2 BR1  UNL     1      21.291  -1.226  54.290  1.00  0.00    -0.061 Br
ENDROOT
BRANCH   1   3
HETATM    3  C7  UNL     1      22.819   0.861  53.081  1.00  0.00     0.048 C 
BRANCH   3   4
HETATM    4  C6  UNL     1      22.379   0.995  51.646  1.00  0.00     0.042 C 
BRANCH   4   5
HETATM    5  C5  UNL     1      23.376   1.863  50.958  1.00  0.00    -0.058 A 
HETATM    6  C4  UNL     1      24.595   1.926  51.571  1.00  0.00     0.010 A 
HETATM    7  C3  UNL     1      25.633   2.689  51.061  1.00  0.00     0.037 A 
HETATM    8  C2  UNL     1      25.363   3.384  49.892  1.00  0.00     0.068 A 
HETATM    9  C17 UNL     1      24.134   3.339  49.248  1.00  0.00     0.037 A 
HETATM   10  C16 UNL     1      23.115   2.559  49.795  1.00  0.00     0.010 A 
BRANCH   8  11
HETATM   11  O1  UNL     1      26.342   4.183  49.295  1.00  0.00    -0.356 OA
HETATM   12  C1  UNL     1      26.050   5.585  49.294  1.00  0.00     0.210 C 
ENDBRANCH   8  11
ENDBRANCH   4   5
ENDBRANCH   3   4
ENDBRANCH   1   3
BRANCH   1  13
HETATM   13  O2  UNL     1      23.976  -0.867  54.320  1.00  0.00    -0.335 OA
BRANCH  13  14
HETATM   14  C9  UNL     1      25.283  -0.699  53.917  1.00  0.00     0.070 A 
HETATM   15  C10 UNL     1      25.941   0.054  54.901  1.00  0.00     0.039 A 
HETATM   16  C11 UNL     1      27.294   0.396  54.782  1.00  0.00     0.039 A 
HETATM   17  C12 UNL     1      28.032  -0.011  53.664  1.00  0.00     0.068 A 
HETATM   18  C14 UNL     1      27.353  -0.749  52.717  1.00  0.00     0.039 A 
HETATM   19  C15 UNL     1      26.028  -1.087  52.829  1.00  0.00     0.039 A 
BRANCH  17  20
HETATM   20  O3  UNL     1      29.359   0.313  53.528  1.00  0.00    -0.356 OA
HETATM   21  C13 UNL     1      30.312  -0.733  53.552  1.00  0.00     0.210 C 
ENDBRANCH  17  20
ENDBRANCH  13  14
ENDBRANCH   1  13
TORSDOF 7
ENDMDL
MODEL 3
REMARK VINA RESULT:      -6.5      2.663      6.037
REMARK  7 active torsions:
REMARK  status: ('A' for Active; 'I' for Inactive)
REMARK    1  A    between atoms: O1_2  and  C2_3 
REMARK    2  A    between atoms: C5_6  and  C6_7 
REMARK    3  A    between atoms: C6_7  and  C7_8 
REMARK    4  A    between atoms: C7_8  and  C8_9 
REMARK    5  A    between atoms: C8_9  and  O2_11 
REMARK    6  A    between atoms: O2_11  and  C9_12 
REMARK    7  A    between atoms: C12_15  and  O3_16 
ROOT
HETATM    1  C8  UNL     1      22.829   2.539  51.169  1.00  0.00     0.200 C 
HETATM    2 BR1  UNL     1      21.624   1.013  51.121  1.00  0.00    -0.061 Br
ENDROOT
BRANCH   1   3
HETATM    3  C7  UNL     1      23.593   2.559  52.493  1.00  0.00     0.048 C 
BRANCH   3   4
HETATM    4  C6  UNL     1      23.819   1.138  52.944  1.00  0.00     0.042 C 
BRANCH   4   5
HETATM    5  C5  UNL     1      25.291   0.943  53.065  1.00  0.00    -0.058 A 
HETATM    6  C4  UNL     1      25.998   2.085  53.318  1.00  0.00     0.010 A 
HETATM    7  C3  UNL     1      27.377   2.076  53.459  1.00  0.00     0.037 A 
HETATM    8  C2  UNL     1      27.997   0.843  53.330  1.00  0.00     0.068 A 
HETATM    9  C17 UNL     1      27.304  -0.332  53.073  1.00  0.00     0.037 A 
HETATM   10  C16 UNL     1      25.916  -0.281  52.937  1.00  0.00     0.010 A 
BRANCH   8  11
HETATM   11  O1  UNL     1      29.384   0.726  53.455  1.00  0.00    -0.356 OA
HETATM   12  C1  UNL     1      29.864  -0.621  53.535  1.00  0.00     0.210 C 
ENDBRANCH   8  11
ENDBRANCH   4   5
ENDBRANCH   3   4
ENDBRANCH   1   3
BRANCH   1  13
HETATM   13  O2  UNL     1      23.700   2.408  50.080  1.00  0.00    -0.335 OA
BRANCH  13  14
HETATM   14  C9  UNL     1      24.476   3.474  49.680  1.00  0.00     0.070 A 
HETATM   15  C10 UNL     1      25.818   3.070  49.735  1.00  0.00     0.039 A 
HETATM   16  C11 UNL     1      26.861   3.937  49.387  1.00  0.00     0.039 A 
HETATM   17  C12 UNL     1      26.586   5.245  48.968  1.00  0.00     0.068 A 
HETATM   18  C14 UNL     1      25.255   5.607  48.927  1.00  0.00     0.039 A 
HETATM   19  C15 UNL     1      24.230   4.762  49.268  1.00  0.00     0.039 A 
BRANCH  17  20
HETATM   20  O3  UNL     1      27.593   6.111  48.622  1.00  0.00    -0.356 OA
HETATM   21  C13 UNL     1      28.847   5.569  48.251  1.00  0.00     0.210 C 
ENDBRANCH  17  20
ENDBRANCH  13  14
ENDBRANCH   1  13
TORSDOF 7
ENDMDL
MODEL 4
REMARK VINA RESULT:      -6.4      2.696      5.960
REMARK  7 active torsions:
REMARK  status: ('A' for Active; 'I' for Inactive)
REMARK    1  A    between atoms: O1_2  and  C2_3 
REMARK    2  A    between atoms: C5_6  and  C6_7 
REMARK    3  A    between atoms: C6_7  and  C7_8 
REMARK    4  A    between atoms: C7_8  and  C8_9 
REMARK    5  A    between atoms: C8_9  and  O2_11 
REMARK    6  A    between atoms: O2_11  and  C9_12 
REMARK    7  A    between atoms: C12_15  and  O3_16 
ROOT
HETATM    1  C8  UNL     1      23.782   4.173  51.759  1.00  0.00     0.200 C 
HETATM    2 BR1  UNL     1      22.073   5.090  51.610  1.00  0.00    -0.061 Br
ENDROOT
BRANCH   1   3
HETATM    3  C7  UNL     1      23.621   2.901  52.593  1.00  0.00     0.048 C 
BRANCH   3   4
HETATM    4  C6  UNL     1      23.919   1.709  51.720  1.00  0.00     0.042 C 
BRANCH   4   5
HETATM    5  C5  UNL     1      25.088   1.005  52.319  1.00  0.00    -0.058 A 
HETATM    6  C4  UNL     1      24.770   0.105  53.296  1.00  0.00     0.010 A 
HETATM    7  C3  UNL     1      25.741  -0.634  53.955  1.00  0.00     0.037 A 
HETATM    8  C2  UNL     1      27.051  -0.407  53.564  1.00  0.00     0.068 A 
HETATM    9  C17 UNL     1      27.402   0.502  52.575  1.00  0.00     0.037 A 
HETATM   10  C16 UNL     1      26.395   1.226  51.936  1.00  0.00     0.010 A 
BRANCH   8  11
HETATM   11  O1  UNL     1      28.105  -1.100  54.166  1.00  0.00    -0.356 OA
HETATM   12  C1  UNL     1      29.317  -1.125  53.403  1.00  0.00     0.210 C 
ENDBRANCH   8  11
ENDBRANCH   4   5
ENDBRANCH   3   4
ENDBRANCH   1   3
BRANCH   1  13
HETATM   13  O2  UNL     1      24.204   3.878  50.456  1.00  0.00    -0.335 OA
BRANCH  13  14
HETATM   14  C9  UNL     1      25.127   4.685  49.826  1.00  0.00     0.070 A 
HETATM   15  C10 UNL     1      26.245   3.896  49.521  1.00  0.00     0.039 A 
HETATM   16  C11 UNL     1      27.366   4.431  48.873  1.00  0.00     0.039 A 
HETATM   17  C12 UNL     1      27.396   5.782  48.508  1.00  0.00     0.068 A 
HETATM   18  C14 UNL     1      26.278   6.527  48.824  1.00  0.00     0.039 A 
HETATM   19  C15 UNL     1      25.179   6.008  49.460  1.00  0.00     0.039 A 
BRANCH  17  20
HETATM   20  O3  UNL     1      28.484   6.327  47.872  1.00  0.00    -0.356 OA
HETATM   21  C13 UNL     1      29.750   5.728  48.076  1.00  0.00     0.210 C 
ENDBRANCH  17  20
ENDBRANCH  13  14
ENDBRANCH   1  13
TORSDOF 7
ENDMDL
MODEL 5
REMARK VINA RESULT:      -6.3      2.760      5.328
REMARK  7 active torsions:
REMARK  status: ('A' for Active; 'I' for Inactive)
REMARK    1  A    between atoms: O1_2  and  C2_3 
REMARK    2  A    between atoms: C5_6  and  C6_7 
REMARK    3  A    between atoms: C6_7  and  C7_8 
REMARK    4  A    between atoms: C7_8  and  C8_9 
REMARK    5  A    between atoms: C8_9  and  O2_11 
REMARK    6  A    between atoms: O2_11  and  C9_12 
REMARK    7  A    between atoms: C12_15  and  O3_16 
ROOT
HETATM    1  C8  UNL     1      23.283   1.162  51.699  1.00  0.00     0.200 C 
HETATM    2 BR1  UNL     1      21.534   0.316  51.771  1.00  0.00    -0.061 Br
ENDROOT
BRANCH   1   3
HETATM    3  C7  UNL     1      23.139   2.623  51.268  1.00  0.00     0.048 C 
BRANCH   3   4
HETATM    4  C6  UNL     1      23.317   2.706  49.773  1.00  0.00     0.042 C 
BRANCH   4   5
HETATM    5  C5  UNL     1      24.506   3.567  49.518  1.00  0.00    -0.058 A 
HETATM    6  C4  UNL     1      24.212   4.837  49.109  1.00  0.00     0.010 A 
HETATM    7  C3  UNL     1      25.204   5.764  48.829  1.00  0.00     0.037 A 
HETATM    8  C2  UNL     1      26.510   5.329  48.989  1.00  0.00     0.068 A 
HETATM    9  C17 UNL     1      26.838   4.045  49.403  1.00  0.00     0.037 A 
HETATM   10  C16 UNL     1      25.810   3.141  49.674  1.00  0.00     0.010 A 
BRANCH   8  11
HETATM   11  O1  UNL     1      27.584   6.186  48.733  1.00  0.00    -0.356 OA
HETATM   12  C1  UNL     1      28.767   5.535  48.256  1.00  0.00     0.210 C 
ENDBRANCH   8  11
ENDBRANCH   4   5
ENDBRANCH   3   4
ENDBRANCH   1   3
BRANCH   1  13
HETATM   13  O2  UNL     1      23.842   1.062  52.979  1.00  0.00    -0.335 OA
BRANCH  13  14
HETATM   14  C9  UNL     1      25.202   1.191  53.155  1.00  0.00     0.070 A 
HETATM   15  C10 UNL     1      25.767  -0.090  53.071  1.00  0.00     0.039 A 
HETATM   16  C11 UNL     1      27.146  -0.295  53.210  1.00  0.00     0.039 A 
HETATM   17  C12 UNL     1      28.004   0.788  53.438  1.00  0.00     0.068 A 
HETATM   18  C14 UNL     1      27.413   2.032  53.514  1.00  0.00     0.039 A 
HETATM   19  C15 UNL     1      26.064   2.238  53.380  1.00  0.00     0.039 A 
BRANCH  17  20
HETATM   20  O3  UNL     1      29.358   0.609  53.577  1.00  0.00    -0.356 OA
HETATM   21  C13 UNL     1      29.873  -0.707  53.496  1.00  0.00     0.210 C 
ENDBRANCH  17  20
ENDBRANCH  13  14
ENDBRANCH   1  13
TORSDOF 7
ENDMDL
MODEL 6
REMARK VINA RESULT:      -6.2      3.238      6.325
REMARK  7 active torsions:
REMARK  status: ('A' for Active; 'I' for Inactive)
REMARK    1  A    between atoms: O1_2  and  C2_3 
REMARK    2  A    between atoms: C5_6  and  C6_7 
REMARK    3  A    between atoms: C6_7  and  C7_8 
REMARK    4  A    between atoms: C7_8  and  C8_9 
REMARK    5  A    between atoms: C8_9  and  O2_11 
REMARK    6  A    between atoms: O2_11  and  C9_12 
REMARK    7  A    between atoms: C12_15  and  O3_16 
ROOT
HETATM    1  C8  UNL     1      24.665   3.153  51.474  1.00  0.00     0.200 C 
HETATM    2 BR1  UNL     1      23.641   4.771  51.811  1.00  0.00    -0.061 Br
ENDROOT
BRANCH   1   3
HETATM    3  C7  UNL     1      25.874   3.473  50.595  1.00  0.00     0.048 C 
BRANCH   3   4
HETATM    4  C6  UNL     1      25.387   4.074  49.301  1.00  0.00     0.042 C 
BRANCH   4   5
HETATM    5  C5  UNL     1      26.321   5.179  48.948  1.00  0.00    -0.058 A 
HETATM    6  C4  UNL     1      27.597   4.780  48.672  1.00  0.00     0.010 A 
HETATM    7  C3  UNL     1      28.589   5.684  48.326  1.00  0.00     0.037 A 
HETATM    8  C2  UNL     1      28.211   7.016  48.276  1.00  0.00     0.068 A 
HETATM    9  C17 UNL     1      26.921   7.450  48.552  1.00  0.00     0.037 A 
HETATM   10  C16 UNL     1      25.952   6.508  48.897  1.00  0.00     0.010 A 
BRANCH   8  11
HETATM   11  O1  UNL     1      29.136   8.009  47.938  1.00  0.00    -0.356 OA
HETATM   12  C1  UNL     1      29.450   8.919  48.998  1.00  0.00     0.210 C 
ENDBRANCH   8  11
ENDBRANCH   4   5
ENDBRANCH   3   4
ENDBRANCH   1   3
BRANCH   1  13
HETATM   13  O2  UNL     1      25.061   2.651  52.721  1.00  0.00    -0.335 OA
BRANCH  13  14
HETATM   14  C9  UNL     1      25.801   1.491  52.799  1.00  0.00     0.070 A 
HETATM   15  C10 UNL     1      26.932   1.758  53.584  1.00  0.00     0.039 A 
HETATM   16  C11 UNL     1      27.889   0.771  53.851  1.00  0.00     0.039 A 
HETATM   17  C12 UNL     1      27.737  -0.522  53.336  1.00  0.00     0.068 A 
HETATM   18  C14 UNL     1      26.613  -0.748  52.569  1.00  0.00     0.039 A 
HETATM   19  C15 UNL     1      25.673   0.215  52.304  1.00  0.00     0.039 A 
BRANCH  17  20
HETATM   20  O3  UNL     1      28.664  -1.504  53.587  1.00  0.00    -0.356 OA
HETATM   21  C13 UNL     1      30.001  -1.116  53.839  1.00  0.00     0.210 C 
ENDBRANCH  17  20
ENDBRANCH  13  14
ENDBRANCH   1  13
TORSDOF 7
ENDMDL
MODEL 7
REMARK VINA RESULT:      -6.1      2.249      4.640
REMARK  7 active torsions:
REMARK  status: ('A' for Active; 'I' for Inactive)
REMARK    1  A    between atoms: O1_2  and  C2_3 
REMARK    2  A    between atoms: C5_6  and  C6_7 
REMARK    3  A    between atoms: C6_7  and  C7_8 
REMARK    4  A    between atoms: C7_8  and  C8_9 
REMARK    5  A    between atoms: C8_9  and  O2_11 
REMARK    6  A    between atoms: O2_11  and  C9_12 
REMARK    7  A    between atoms: C12_15  and  O3_16 
ROOT
HETATM    1  C8  UNL     1      26.492   0.137  52.558  1.00  0.00     0.200 C 
HETATM    2 BR1  UNL     1      28.165  -0.282  53.455  1.00  0.00    -0.061 Br
ENDROOT
BRANCH   1   3
HETATM    3  C7  UNL     1      25.446  -0.933  52.877  1.00  0.00     0.048 C 
BRANCH   3   4
HETATM    4  C6  UNL     1      24.718  -0.538  54.136  1.00  0.00     0.042 C 
BRANCH   4   5
HETATM    5  C5  UNL     1      23.266  -0.477  53.805  1.00  0.00    -0.058 A 
HETATM    6  C4  UNL     1      22.450  -1.094  54.710  1.00  0.00     0.010 A 
HETATM    7  C3  UNL     1      21.074  -1.128  54.550  1.00  0.00     0.037 A 
HETATM    8  C2  UNL     1      20.574  -0.500  53.420  1.00  0.00     0.068 A 
HETATM    9  C17 UNL     1      21.380   0.133  52.484  1.00  0.00     0.037 A 
HETATM   10  C16 UNL     1      22.761   0.145  52.682  1.00  0.00     0.010 A 
BRANCH   8  11
HETATM   11  O1  UNL     1      19.199  -0.478  53.165  1.00  0.00    -0.356 OA
HETATM   12  C1  UNL     1      18.504  -1.675  53.532  1.00  0.00     0.210 C 
ENDBRANCH   8  11
ENDBRANCH   4   5
ENDBRANCH   3   4
ENDBRANCH   1   3
BRANCH   1  13
HETATM   13  O2  UNL     1      26.086   1.398  53.014  1.00  0.00    -0.335 OA
BRANCH  13  14
HETATM   14  C9  UNL     1      25.681   2.362  52.117  1.00  0.00     0.070 A 
HETATM   15  C10 UNL     1      26.660   2.454  51.117  1.00  0.00     0.039 A 
HETATM   16  C11 UNL     1      26.538   3.354  50.051  1.00  0.00     0.039 A 
HETATM   17  C12 UNL     1      25.421   4.193  49.956  1.00  0.00     0.068 A 
HETATM   18  C14 UNL     1      24.479   4.075  50.957  1.00  0.00     0.039 A 
HETATM   19  C15 UNL     1      24.594   3.196  52.003  1.00  0.00     0.039 A 
BRANCH  17  20
HETATM   20  O3  UNL     1      25.282   5.083  48.919  1.00  0.00    -0.356 OA
HETATM   21  C13 UNL     1      26.243   6.113  48.785  1.00  0.00     0.210 C 
ENDBRANCH  17  20
ENDBRANCH  13  14
ENDBRANCH   1  13
TORSDOF 7
ENDMDL
MODEL 8
REMARK VINA RESULT:      -6.1      2.303      3.248
REMARK  7 active torsions:
REMARK  status: ('A' for Active; 'I' for Inactive)
REMARK    1  A    between atoms: O1_2  and  C2_3 
REMARK    2  A    between atoms: C5_6  and  C6_7 
REMARK    3  A    between atoms: C6_7  and  C7_8 
REMARK    4  A    between atoms: C7_8  and  C8_9 
REMARK    5  A    between atoms: C8_9  and  O2_11 
REMARK    6  A    between atoms: O2_11  and  C9_12 
REMARK    7  A    between atoms: C12_15  and  O3_16 
ROOT
HETATM    1  C8  UNL     1      23.298   2.671  51.236  1.00  0.00     0.200 C 
HETATM    2 BR1  UNL     1      23.902   3.765  49.746  1.00  0.00    -0.061 Br
ENDROOT
BRANCH   1   3
HETATM    3  C7  UNL     1      21.776   2.529  51.197  1.00  0.00     0.048 C 
BRANCH   3   4
HETATM    4  C6  UNL     1      21.429   1.207  50.561  1.00  0.00     0.042 C 
BRANCH   4   5
HETATM    5  C5  UNL     1      20.468   0.519  51.468  1.00  0.00    -0.058 A 
HETATM    6  C4  UNL     1      19.218   0.344  50.947  1.00  0.00     0.010 A 
HETATM    7  C3  UNL     1      18.207  -0.278  51.662  1.00  0.00     0.037 A 
HETATM    8  C2  UNL     1      18.538  -0.712  52.936  1.00  0.00     0.068 A 
HETATM    9  C17 UNL     1      19.800  -0.548  53.491  1.00  0.00     0.037 A 
HETATM   10  C16 UNL     1      20.790   0.084  52.738  1.00  0.00     0.010 A 
BRANCH   8  11
HETATM   11  O1  UNL     1      17.590  -1.352  53.740  1.00  0.00    -0.356 OA
HETATM   12  C1  UNL     1      17.547  -2.776  53.596  1.00  0.00     0.210 C 
ENDBRANCH   8  11
ENDBRANCH   4   5
ENDBRANCH   3   4
ENDBRANCH   1   3
BRANCH   1  13
HETATM   13  O2  UNL     1      23.929   1.426  51.112  1.00  0.00    -0.335 OA
BRANCH  13  14
HETATM   14  C9  UNL     1      24.657   0.910  52.163  1.00  0.00     0.070 A 
HETATM   15  C10 UNL     1      25.968   1.396  52.054  1.00  0.00     0.039 A 
HETATM   16  C11 UNL     1      26.959   1.048  52.981  1.00  0.00     0.039 A 
HETATM   17  C12 UNL     1      26.660   0.198  54.053  1.00  0.00     0.068 A 
HETATM   18  C14 UNL     1      25.361  -0.260  54.128  1.00  0.00     0.039 A 
HETATM   19  C15 UNL     1      24.387   0.077  53.222  1.00  0.00     0.039 A 
BRANCH  17  20
HETATM   20  O3  UNL     1      27.617  -0.154  54.973  1.00  0.00    -0.356 OA
HETATM   21  C13 UNL     1      28.975  -0.111  54.579  1.00  0.00     0.210 C 
ENDBRANCH  17  20
ENDBRANCH  13  14
ENDBRANCH   1  13
TORSDOF 7
ENDMDL
MODEL 9
REMARK VINA RESULT:      -6.0      3.826      7.017
REMARK  7 active torsions:
REMARK  status: ('A' for Active; 'I' for Inactive)
REMARK    1  A    between atoms: O1_2  and  C2_3 
REMARK    2  A    between atoms: C5_6  and  C6_7 
REMARK    3  A    between atoms: C6_7  and  C7_8 
REMARK    4  A    between atoms: C7_8  and  C8_9 
REMARK    5  A    between atoms: C8_9  and  O2_11 
REMARK    6  A    between atoms: O2_11  and  C9_12 
REMARK    7  A    between atoms: C12_15  and  O3_16 
ROOT
HETATM    1  C8  UNL     1      26.136   4.531  49.637  1.00  0.00     0.200 C 
HETATM    2 BR1  UNL     1      24.233   4.736  49.298  1.00  0.00    -0.061 Br
ENDROOT
BRANCH   1   3
HETATM    3  C7  UNL     1      26.450   3.078  49.995  1.00  0.00     0.048 C 
BRANCH   3   4
HETATM    4  C6  UNL     1      25.578   2.665  51.153  1.00  0.00     0.042 C 
BRANCH   4   5
HETATM    5  C5  UNL     1      26.335   1.648  51.935  1.00  0.00    -0.058 A 
HETATM    6  C4  UNL     1      27.479   2.113  52.518  1.00  0.00     0.010 A 
HETATM    7  C3  UNL     1      28.299   1.295  53.279  1.00  0.00     0.037 A 
HETATM    8  C2  UNL     1      27.890  -0.023  53.415  1.00  0.00     0.068 A 
HETATM    9  C17 UNL     1      26.732  -0.523  52.834  1.00  0.00     0.037 A 
HETATM   10  C16 UNL     1      25.935   0.334  52.074  1.00  0.00     0.010 A 
BRANCH   8  11
HETATM   11  O1  UNL     1      28.646  -0.931  54.163  1.00  0.00    -0.356 OA
HETATM   12  C1  UNL     1      30.020  -1.028  53.773  1.00  0.00     0.210 C 
ENDBRANCH   8  11
ENDBRANCH   4   5
ENDBRANCH   3   4
ENDBRANCH   1   3
BRANCH   1  13
HETATM   13  O2  UNL     1      26.806   4.925  48.471  1.00  0.00    -0.335 OA
BRANCH  13  14
HETATM   14  C9  UNL     1      27.675   5.994  48.498  1.00  0.00     0.070 A 
HETATM   15  C10 UNL     1      28.973   5.494  48.319  1.00  0.00     0.039 A 
HETATM   16  C11 UNL     1      30.089   6.340  48.299  1.00  0.00     0.039 A 
HETATM   17  C12 UNL     1      29.934   7.722  48.458  1.00  0.00     0.068 A 
HETATM   18  C14 UNL     1      28.644   8.178  48.630  1.00  0.00     0.039 A 
HETATM   19  C15 UNL     1      27.547   7.354  48.652  1.00  0.00     0.039 A 
BRANCH  17  20
HETATM   20  O3  UNL     1      31.015   8.569  48.441  1.00  0.00    -0.356 OA
HETATM   21  C13 UNL     1      32.308   8.009  48.575  1.00  0.00     0.210 C 
ENDBRANCH  17  20
ENDBRANCH  13  14
ENDBRANCH   1  13
TORSDOF 7
ENDMDL
