MODEL 1
REMARK VINA RESULT:     -10.0      0.000      0.000
REMARK  5 active torsions:
REMARK  status: ('A' for Active; 'I' for Inactive)
REMARK    1  A    between atoms: C6_6  and  N1_7 
REMARK       I    between atoms: N1_7  and  C7_8 
REMARK    2  A    between atoms: C7_8  and  C8_10 
REMARK    3  A    between atoms: C13_15  and  N2_16 
REMARK    4  A    between atoms: N2_16  and  C14_17 
REMARK    5  A    between atoms: C14_17  and  C15_18 
ROOT
HETATM    1  N1  UNL     1      26.689   2.038  51.792  1.00  0.00    -0.322 N 
HETATM    2  C7  UNL     1      27.427   1.623  53.007  1.00  0.00     0.258 C 
HETATM    3  O1  UNL     1      27.537   2.645  53.793  1.00  0.00    -0.267 OA
HETATM    4  H6  UNL     1      26.818   1.133  51.310  1.00  0.00     0.169 HD
ENDROOT
BRANCH   2   5
HETATM    5  C8  UNL     1      27.988   0.135  53.212  1.00  0.00     0.058 A 
HETATM    6  C9  UNL     1      29.336   0.250  53.396  1.00  0.00     0.019 A 
HETATM    7  C10 UNL     1      29.852  -1.325  53.378  1.00  0.00     0.001 A 
HETATM    8  C11 UNL     1      28.692  -1.761  53.208  1.00  0.00     0.002 A 
HETATM    9  C12 UNL     1      27.312  -1.939  53.024  1.00  0.00     0.030 A 
HETATM   10  C13 UNL     1      26.880  -0.549  53.032  1.00  0.00     0.044 A 
BRANCH  10  11
HETATM   11  N2  UNL     1      25.508  -0.584  52.914  1.00  0.00    -0.385 N 
HETATM   12  H11 UNL     1      25.424  -0.498  51.915  1.00  0.00     0.160 HD
BRANCH  11  13
HETATM   13  C14 UNL     1      24.519  -0.706  53.983  1.00  0.00     0.158 C 
BRANCH  13  14
HETATM   14  C15 UNL     1      23.131  -0.601  53.633  1.00  0.00    -0.038 A 
HETATM   15  C16 UNL     1      22.245  -1.320  54.633  1.00  0.00     0.028 A 
HETATM   16  C17 UNL     1      20.822  -1.210  54.305  1.00  0.00     0.116 A 
HETATM   17  N3  UNL     1      20.225  -0.565  53.219  1.00  0.00    -0.273 NA
HETATM   18  C18 UNL     1      21.038   0.064  52.319  1.00  0.00     0.116 A 
HETATM   19  C19 UNL     1      22.239  -0.204  52.894  1.00  0.00     0.028 A 
ENDBRANCH  13  14
ENDBRANCH  11  13
ENDBRANCH  10  11
ENDBRANCH   2   5
BRANCH   1  20
HETATM   20  C6  UNL     1      25.995   3.183  51.212  1.00  0.00     0.040 C 
HETATM   21  C5  UNL     1      26.796   3.429  50.117  1.00  0.00     0.030 C 
HETATM   22  C4  UNL     1      26.769   4.430  49.103  1.00  0.00     0.004 C 
HETATM   23  C3  UNL     1      25.755   5.258  49.552  1.00  0.00     0.027 C 
HETATM   24  C2  UNL     1      24.772   6.292  49.655  1.00  0.00     0.035 C 
HETATM   25  C1  UNL     1      23.804   7.260  50.191  1.00  0.00     0.065 C 
HETATM   26  N4  UNL     1      24.168   5.914  48.375  1.00  0.00    -0.251 NA
HETATM   27  C26 UNL     1      23.099   5.150  48.532  1.00  0.00     0.085 C 
HETATM   28  C25 UNL     1      22.062   5.850  49.039  1.00  0.00     0.034 C 
HETATM   29  C24 UNL     1      22.226   5.004  50.226  1.00  0.00    -0.001 C 
HETATM   30  C23 UNL     1      22.733   3.942  50.882  1.00  0.00    -0.022 C 
HETATM   31  C22 UNL     1      23.614   2.675  50.937  1.00  0.00     0.067 C 
HETATM   32  C20 UNL     1      24.759   3.009  52.041  1.00  0.00    -0.037 C 
HETATM   33  C21 UNL     1      24.177   2.820  53.100  1.00  0.00     0.021 C 
ENDBRANCH   1  20
TORSDOF 5
ENDMDL
MODEL 2
REMARK VINA RESULT:      -9.8      1.475      2.696
REMARK  5 active torsions:
REMARK  status: ('A' for Active; 'I' for Inactive)
REMARK    1  A    between atoms: C6_6  and  N1_7 
REMARK       I    between atoms: N1_7  and  C7_8 
REMARK    2  A    between atoms: C7_8  and  C8_10 
REMARK    3  A    between atoms: C13_15  and  N2_16 
REMARK    4  A    between atoms: N2_16  and  C14_17 
REMARK    5  A    between atoms: C14_17  and  C15_18 
ROOT
HETATM    1  N1  UNL     1      25.665   2.847  52.083  1.00  0.00    -0.322 N 
HETATM    2  C7  UNL     1      26.345   1.561  52.358  1.00  0.00     0.258 C 
HETATM    3  O1  UNL     1      25.836   0.652  51.590  1.00  0.00    -0.267 OA
HETATM    4  H6  UNL     1      26.144   3.353  52.846  1.00  0.00     0.169 HD
ENDROOT
BRANCH   2   5
HETATM    5  C8  UNL     1      27.491   1.408  53.469  1.00  0.00     0.058 A 
HETATM    6  C9  UNL     1      28.305   2.496  53.340  1.00  0.00     0.019 A 
HETATM    7  C10 UNL     1      29.563   2.146  54.359  1.00  0.00     0.001 A 
HETATM    8  C11 UNL     1      29.057   1.054  54.699  1.00  0.00     0.002 A 
HETATM    9  C12 UNL     1      28.256  -0.085  54.876  1.00  0.00     0.030 A 
HETATM   10  C13 UNL     1      27.166   0.236  53.968  1.00  0.00     0.044 A 
BRANCH  10  11
HETATM   11  N2  UNL     1      26.262  -0.796  54.090  1.00  0.00    -0.385 N 
HETATM   12  H11 UNL     1      26.681  -1.461  53.461  1.00  0.00     0.160 HD
BRANCH  11  13
HETATM   13  C14 UNL     1      25.056  -0.839  54.915  1.00  0.00     0.158 C 
BRANCH  13  14
HETATM   14  C15 UNL     1      23.788  -0.668  54.266  1.00  0.00    -0.038 A 
HETATM   15  C16 UNL     1      22.656  -1.264  55.082  1.00  0.00     0.028 A 
HETATM   16  C17 UNL     1      21.348  -1.084  54.446  1.00  0.00     0.116 A 
HETATM   17  N3  UNL     1      21.049  -0.471  53.226  1.00  0.00    -0.273 NA
HETATM   18  C18 UNL     1      22.082   0.047  52.497  1.00  0.00     0.116 A 
HETATM   19  C19 UNL     1      23.108  -0.261  53.332  1.00  0.00     0.028 A 
ENDBRANCH  13  14
ENDBRANCH  11  13
ENDBRANCH  10  11
ENDBRANCH   2   5
BRANCH   1  20
HETATM   20  C6  UNL     1      24.668   3.447  51.204  1.00  0.00     0.040 C 
HETATM   21  C5  UNL     1      23.598   3.541  52.069  1.00  0.00     0.030 C 
HETATM   22  C4  UNL     1      22.255   3.988  51.904  1.00  0.00     0.004 C 
HETATM   23  C3  UNL     1      22.199   4.213  50.540  1.00  0.00     0.027 C 
HETATM   24  C2  UNL     1      21.775   4.595  49.229  1.00  0.00     0.035 C 
HETATM   25  C1  UNL     1      21.651   4.695  47.767  1.00  0.00     0.065 C 
HETATM   26  N4  UNL     1      21.478   5.960  49.668  1.00  0.00    -0.251 NA
HETATM   27  C26 UNL     1      22.459   6.802  49.384  1.00  0.00     0.085 C 
HETATM   28  C25 UNL     1      22.540   7.036  48.057  1.00  0.00     0.034 C 
HETATM   29  C24 UNL     1      23.829   6.339  48.133  1.00  0.00    -0.001 C 
HETATM   30  C23 UNL     1      24.865   5.802  48.808  1.00  0.00    -0.022 C 
HETATM   31  C22 UNL     1      25.587   5.445  50.124  1.00  0.00     0.067 C 
HETATM   32  C20 UNL     1      25.654   3.821  50.139  1.00  0.00    -0.037 C 
HETATM   33  C21 UNL     1      26.594   3.582  49.394  1.00  0.00     0.021 C 
ENDBRANCH   1  20
TORSDOF 5
ENDMDL
MODEL 3
REMARK VINA RESULT:      -9.4      1.720      4.907
REMARK  5 active torsions:
REMARK  status: ('A' for Active; 'I' for Inactive)
REMARK    1  A    between atoms: C6_6  and  N1_7 
REMARK       I    between atoms: N1_7  and  C7_8 
REMARK    2  A    between atoms: C7_8  and  C8_10 
REMARK    3  A    between atoms: C13_15  and  N2_16 
REMARK    4  A    between atoms: N2_16  and  C14_17 
REMARK    5  A    between atoms: C14_17  and  C15_18 
ROOT
HETATM    1  N1  UNL     1      23.619   3.117  51.356  1.00  0.00    -0.322 N 
HETATM    2  C7  UNL     1      23.627   2.301  52.592  1.00  0.00     0.258 C 
HETATM    3  O1  UNL     1      24.497   2.799  53.410  1.00  0.00    -0.267 OA
HETATM    4  H6  UNL     1      22.965   2.494  50.855  1.00  0.00     0.169 HD
ENDROOT
BRANCH   2   5
HETATM    5  C8  UNL     1      22.696   1.009  52.781  1.00  0.00     0.058 A 
HETATM    6  C9  UNL     1      21.457   1.352  52.323  1.00  0.00     0.019 A 
HETATM    7  C10 UNL     1      20.524   0.053  52.757  1.00  0.00     0.001 A 
HETATM    8  C11 UNL     1      21.496  -0.543  53.270  1.00  0.00     0.002 A 
HETATM    9  C12 UNL     1      22.749  -0.951  53.755  1.00  0.00     0.030 A 
HETATM   10  C13 UNL     1      23.549   0.204  53.375  1.00  0.00     0.044 A 
BRANCH  10  11
HETATM   11  N2  UNL     1      24.839  -0.096  53.750  1.00  0.00    -0.385 N 
HETATM   12  H11 UNL     1      24.899   0.447  54.596  1.00  0.00     0.160 HD
BRANCH  11  13
HETATM   13  C14 UNL     1      25.795  -0.962  53.062  1.00  0.00     0.158 C 
BRANCH  13  14
HETATM   14  C15 UNL     1      27.194  -0.695  53.235  1.00  0.00    -0.038 A 
HETATM   15  C16 UNL     1      27.450   0.767  53.553  1.00  0.00     0.028 A 
HETATM   16  C17 UNL     1      28.871   1.059  53.752  1.00  0.00     0.116 A 
HETATM   17  N3  UNL     1      29.961   0.188  53.667  1.00  0.00    -0.273 NA
HETATM   18  C18 UNL     1      29.714  -1.122  53.365  1.00  0.00     0.116 A 
HETATM   19  C19 UNL     1      28.361  -1.064  53.259  1.00  0.00     0.028 A 
ENDBRANCH  13  14
ENDBRANCH  11  13
ENDBRANCH  10  11
ENDBRANCH   2   5
BRANCH   1  20
HETATM   20  C6  UNL     1      24.210   4.318  50.777  1.00  0.00     0.040 C 
HETATM   21  C5  UNL     1      25.302   3.773  50.135  1.00  0.00     0.030 C 
HETATM   22  C4  UNL     1      26.373   4.346  49.390  1.00  0.00     0.004 C 
HETATM   23  C3  UNL     1      26.144   5.699  49.562  1.00  0.00     0.027 C 
HETATM   24  C2  UNL     1      26.211   7.125  49.471  1.00  0.00     0.035 C 
HETATM   25  C1  UNL     1      26.072   8.559  49.767  1.00  0.00     0.065 C 
HETATM   26  N4  UNL     1      26.091   7.087  48.012  1.00  0.00    -0.251 NA
HETATM   27  C26 UNL     1      24.851   7.315  47.606  1.00  0.00     0.085 C 
HETATM   28  C25 UNL     1      24.498   8.603  47.799  1.00  0.00     0.034 C 
HETATM   29  C24 UNL     1      23.548   8.071  48.782  1.00  0.00    -0.001 C 
HETATM   30  C23 UNL     1      22.869   7.068  49.375  1.00  0.00    -0.022 C 
HETATM   31  C22 UNL     1      22.517   5.573  49.527  1.00  0.00     0.067 C 
HETATM   32  C20 UNL     1      23.008   5.178  51.025  1.00  0.00    -0.037 C 
HETATM   33  C21 UNL     1      22.104   5.606  51.728  1.00  0.00     0.021 C 
ENDBRANCH   1  20
TORSDOF 5
ENDMDL
MODEL 4
REMARK VINA RESULT:      -9.2      2.314      5.332
REMARK  5 active torsions:
REMARK  status: ('A' for Active; 'I' for Inactive)
REMARK    1  A    between atoms: C6_6  and  N1_7 
REMARK       I    between atoms: N1_7  and  C7_8 
REMARK    2  A    between atoms: C7_8  and  C8_10 
REMARK    3  A    between atoms: C13_15  and  N2_16 
REMARK    4  A    between atoms: N2_16  and  C14_17 
REMARK    5  A    between atoms: C14_17  and  C15_18 
ROOT
HETATM    1  N1  UNL     1      24.306   3.826  49.934  1.00  0.00    -0.322 N 
HETATM    2  C7  UNL     1      23.922   3.031  51.123  1.00  0.00     0.258 C 
HETATM    3  O1  UNL     1      24.562   3.489  52.150  1.00  0.00    -0.267 OA
HETATM    4  H6  UNL     1      23.778   3.235  49.272  1.00  0.00     0.169 HD
ENDROOT
BRANCH   2   5
HETATM    5  C8  UNL     1      22.897   1.800  51.047  1.00  0.00     0.058 A 
HETATM    6  C9  UNL     1      22.030   2.079  50.030  1.00  0.00     0.019 A 
HETATM    7  C10 UNL     1      20.892   0.882  50.169  1.00  0.00     0.001 A 
HETATM    8  C11 UNL     1      21.475   0.367  51.149  1.00  0.00     0.002 A 
HETATM    9  C12 UNL     1      22.336   0.029  52.204  1.00  0.00     0.030 A 
HETATM   10  C13 UNL     1      23.318   1.094  52.073  1.00  0.00     0.044 A 
BRANCH  10  11
HETATM   11  N2  UNL     1      24.272   0.843  53.034  1.00  0.00    -0.385 N 
HETATM   12  H11 UNL     1      23.842   1.303  53.820  1.00  0.00     0.160 HD
BRANCH  11  13
HETATM   13  C14 UNL     1      25.529   0.114  52.881  1.00  0.00     0.158 C 
BRANCH  13  14
HETATM   14  C15 UNL     1      26.732   0.736  53.359  1.00  0.00    -0.038 A 
HETATM   15  C16 UNL     1      27.430  -0.121  54.399  1.00  0.00     0.028 A 
HETATM   16  C17 UNL     1      28.671   0.486  54.887  1.00  0.00     0.116 A 
HETATM   17  N3  UNL     1      29.241   1.712  54.531  1.00  0.00    -0.273 NA
HETATM   18  C18 UNL     1      28.591   2.478  53.604  1.00  0.00     0.116 A 
HETATM   19  C19 UNL     1      27.534   1.661  53.357  1.00  0.00     0.028 A 
ENDBRANCH  13  14
ENDBRANCH  11  13
ENDBRANCH  10  11
ENDBRANCH   2   5
BRANCH   1  20
HETATM   20  C6  UNL     1      25.107   4.980  49.541  1.00  0.00     0.040 C 
HETATM   21  C5  UNL     1      26.261   4.350  49.123  1.00  0.00     0.030 C 
HETATM   22  C4  UNL     1      27.511   4.838  48.644  1.00  0.00     0.004 C 
HETATM   23  C3  UNL     1      27.366   6.203  48.819  1.00  0.00     0.027 C 
HETATM   24  C2  UNL     1      27.573   7.618  48.802  1.00  0.00     0.035 C 
HETATM   25  C1  UNL     1      27.496   9.052  49.119  1.00  0.00     0.065 C 
HETATM   26  N4  UNL     1      27.764   7.623  47.350  1.00  0.00    -0.251 NA
HETATM   27  C26 UNL     1      26.664   7.972  46.701  1.00  0.00     0.085 C 
HETATM   28  C25 UNL     1      26.388   9.283  46.867  1.00  0.00     0.034 C 
HETATM   29  C24 UNL     1      25.208   8.819  47.605  1.00  0.00    -0.001 C 
HETATM   30  C23 UNL     1      24.335   7.870  48.000  1.00  0.00    -0.022 C 
HETATM   31  C22 UNL     1      23.834   6.411  48.014  1.00  0.00     0.067 C 
HETATM   32  C20 UNL     1      23.957   5.940  49.565  1.00  0.00    -0.037 C 
HETATM   33  C21 UNL     1      22.963   6.435  50.078  1.00  0.00     0.021 C 
ENDBRANCH   1  20
TORSDOF 5
ENDMDL
MODEL 5
REMARK VINA RESULT:      -9.2      2.492      7.108
REMARK  5 active torsions:
REMARK  status: ('A' for Active; 'I' for Inactive)
REMARK    1  A    between atoms: C6_6  and  N1_7 
REMARK       I    between atoms: N1_7  and  C7_8 
REMARK    2  A    between atoms: C7_8  and  C8_10 
REMARK    3  A    between atoms: C13_15  and  N2_16 
REMARK    4  A    between atoms: N2_16  and  C14_17 
REMARK    5  A    between atoms: C14_17  and  C15_18 
ROOT
HETATM    1  N1  UNL     1      24.331   3.226  50.788  1.00  0.00    -0.322 N 
HETATM    2  C7  UNL     1      24.684   4.644  50.547  1.00  0.00     0.258 C 
HETATM    3  O1  UNL     1      23.933   5.389  51.292  1.00  0.00    -0.267 OA
HETATM    4  H6  UNL     1      24.953   2.864  50.048  1.00  0.00     0.169 HD
ENDROOT
BRANCH   2   5
HETATM    5  C8  UNL     1      25.807   5.088  49.491  1.00  0.00     0.058 A 
HETATM    6  C9  UNL     1      26.777   4.128  49.529  1.00  0.00     0.019 A 
HETATM    7  C10 UNL     1      27.979   4.774  48.588  1.00  0.00     0.001 A 
HETATM    8  C11 UNL     1      27.314   5.806  48.351  1.00  0.00     0.002 A 
HETATM    9  C12 UNL     1      26.349   6.823  48.271  1.00  0.00     0.030 A 
HETATM   10  C13 UNL     1      25.310   6.244  49.109  1.00  0.00     0.044 A 
BRANCH  10  11
HETATM   11  N2  UNL     1      24.260   7.133  49.069  1.00  0.00    -0.385 N 
HETATM   12  H11 UNL     1      24.548   7.766  49.798  1.00  0.00     0.160 HD
BRANCH  11  13
HETATM   13  C14 UNL     1      23.089   7.100  48.195  1.00  0.00     0.158 C 
BRANCH  13  14
HETATM   14  C15 UNL     1      22.456   5.833  47.962  1.00  0.00    -0.038 A 
HETATM   15  C16 UNL     1      21.176   5.691  48.765  1.00  0.00     0.028 A 
HETATM   16  C17 UNL     1      20.502   4.412  48.528  1.00  0.00     0.116 A 
HETATM   17  N3  UNL     1      20.899   3.358  47.701  1.00  0.00    -0.273 NA
HETATM   18  C18 UNL     1      22.063   3.496  46.998  1.00  0.00     0.116 A 
HETATM   19  C19 UNL     1      22.416   4.740  47.413  1.00  0.00     0.028 A 
ENDBRANCH  13  14
ENDBRANCH  11  13
ENDBRANCH  10  11
ENDBRANCH   2   5
BRANCH   1  20
HETATM   20  C6  UNL     1      23.473   2.388  51.619  1.00  0.00     0.040 C 
HETATM   21  C5  UNL     1      22.435   2.151  50.742  1.00  0.00     0.030 C 
HETATM   22  C4  UNL     1      21.203   1.445  50.869  1.00  0.00     0.004 C 
HETATM   23  C3  UNL     1      21.201   1.121  52.214  1.00  0.00     0.027 C 
HETATM   24  C2  UNL     1      20.867   0.577  53.494  1.00  0.00     0.035 C 
HETATM   25  C1  UNL     1      20.776   0.355  54.944  1.00  0.00     0.065 C 
HETATM   26  N4  UNL     1      20.834  -0.787  52.961  1.00  0.00    -0.251 NA
HETATM   27  C26 UNL     1      21.960  -1.443  53.193  1.00  0.00     0.085 C 
HETATM   28  C25 UNL     1      22.093  -1.747  54.501  1.00  0.00     0.034 C 
HETATM   29  C24 UNL     1      23.225  -0.813  54.480  1.00  0.00    -0.001 C 
HETATM   30  C23 UNL     1      24.134  -0.043  53.849  1.00  0.00    -0.022 C 
HETATM   31  C22 UNL     1      24.765   0.534  52.564  1.00  0.00     0.067 C 
HETATM   32  C20 UNL     1      24.520   2.138  52.661  1.00  0.00    -0.037 C 
HETATM   33  C21 UNL     1      25.402   2.501  53.426  1.00  0.00     0.021 C 
ENDBRANCH   1  20
TORSDOF 5
ENDMDL
MODEL 6
REMARK VINA RESULT:      -9.1      1.863      5.210
REMARK  5 active torsions:
REMARK  status: ('A' for Active; 'I' for Inactive)
REMARK    1  A    between atoms: C6_6  and  N1_7 
REMARK       I    between atoms: N1_7  and  C7_8 
REMARK    2  A    between atoms: C7_8  and  C8_10 
REMARK    3  A    between atoms: C13_15  and  N2_16 
REMARK    4  A    between atoms: N2_16  and  C14_17 
REMARK    5  A    between atoms: C14_17  and  C15_18 
ROOT
HETATM    1  N1  UNL     1      22.798   3.059  51.363  1.00  0.00    -0.322 N 
HETATM    2  C7  UNL     1      23.124   2.271  52.574  1.00  0.00     0.258 C 
HETATM    3  O1  UNL     1      24.175   2.782  53.129  1.00  0.00    -0.267 OA
HETATM    4  H6  UNL     1      22.037   2.429  51.062  1.00  0.00     0.169 HD
ENDROOT
BRANCH   2   5
HETATM    5  C8  UNL     1      22.273   0.990  53.027  1.00  0.00     0.058 A 
HETATM    6  C9  UNL     1      20.970   1.260  52.721  1.00  0.00     0.019 A 
HETATM    7  C10 UNL     1      20.153  -0.003  53.416  1.00  0.00     0.001 A 
HETATM    8  C11 UNL     1      21.208  -0.524  53.840  1.00  0.00     0.002 A 
HETATM    9  C12 UNL     1      22.529  -0.855  54.177  1.00  0.00     0.030 A 
HETATM   10  C13 UNL     1      23.228   0.267  53.570  1.00  0.00     0.044 A 
BRANCH  10  11
HETATM   11  N2  UNL     1      24.568   0.032  53.781  1.00  0.00    -0.385 N 
HETATM   12  H11 UNL     1      24.691   0.528  54.649  1.00  0.00     0.160 HD
BRANCH  11  13
HETATM   13  C14 UNL     1      25.489  -0.728  52.939  1.00  0.00     0.158 C 
BRANCH  13  14
HETATM   14  C15 UNL     1      26.882  -0.725  53.288  1.00  0.00    -0.038 A 
HETATM   15  C16 UNL     1      27.177   0.260  54.404  1.00  0.00     0.028 A 
HETATM   16  C17 UNL     1      28.590   0.266  54.790  1.00  0.00     0.116 A 
HETATM   17  N3  UNL     1      29.642  -0.484  54.257  1.00  0.00    -0.273 NA
HETATM   18  C18 UNL     1      29.362  -1.355  53.241  1.00  0.00     0.116 A 
HETATM   19  C19 UNL     1      28.025  -1.136  53.138  1.00  0.00     0.028 A 
ENDBRANCH  13  14
ENDBRANCH  11  13
ENDBRANCH  10  11
ENDBRANCH   2   5
BRANCH   1  20
HETATM   20  C6  UNL     1      23.220   4.244  50.623  1.00  0.00     0.040 C 
HETATM   21  C5  UNL     1      22.569   5.227  51.338  1.00  0.00     0.030 C 
HETATM   22  C4  UNL     1      22.473   6.639  51.175  1.00  0.00     0.004 C 
HETATM   23  C3  UNL     1      23.123   6.829  49.968  1.00  0.00     0.027 C 
HETATM   24  C2  UNL     1      23.740   7.416  48.819  1.00  0.00     0.035 C 
HETATM   25  C1  UNL     1      24.292   7.618  47.472  1.00  0.00     0.065 C 
HETATM   26  N4  UNL     1      24.624   8.235  49.652  1.00  0.00    -0.251 NA
HETATM   27  C26 UNL     1      25.827   7.699  49.782  1.00  0.00     0.085 C 
HETATM   28  C25 UNL     1      26.525   7.766  48.629  1.00  0.00     0.034 C 
HETATM   29  C24 UNL     1      26.421   6.303  48.619  1.00  0.00    -0.001 C 
HETATM   30  C23 UNL     1      26.139   5.116  49.193  1.00  0.00    -0.022 C 
HETATM   31  C22 UNL     1      25.659   4.268  50.390  1.00  0.00     0.067 C 
HETATM   32  C20 UNL     1      24.304   3.536  49.868  1.00  0.00    -0.037 C 
HETATM   33  C21 UNL     1      24.737   2.606  49.203  1.00  0.00     0.021 C 
ENDBRANCH   1  20
TORSDOF 5
ENDMDL
MODEL 7
REMARK VINA RESULT:      -9.0      2.070      5.161
REMARK  5 active torsions:
REMARK  status: ('A' for Active; 'I' for Inactive)
REMARK    1  A    between atoms: C6_6  and  N1_7 
REMARK       I    between atoms: N1_7  and  C7_8 
REMARK    2  A    between atoms: C7_8  and  C8_10 
REMARK    3  A    between atoms: C13_15  and  N2_16 
REMARK    4  A    between atoms: N2_16  and  C14_17 
REMARK    5  A    between atoms: C14_17  and  C15_18 
ROOT
HETATM    1  N1  UNL     1      22.249   2.792  51.715  1.00  0.00    -0.322 N 
HETATM    2  C7  UNL     1      22.926   1.494  51.940  1.00  0.00     0.258 C 
HETATM    3  O1  UNL     1      24.003   1.460  51.223  1.00  0.00    -0.267 OA
HETATM    4  H6  UNL     1      21.419   2.546  52.277  1.00  0.00     0.169 HD
ENDROOT
BRANCH   2   5
HETATM    5  C8  UNL     1      22.329   0.364  52.908  1.00  0.00     0.058 A 
HETATM    6  C9  UNL     1      20.981   0.341  52.694  1.00  0.00     0.019 A 
HETATM    7  C10 UNL     1      20.431  -0.681  53.876  1.00  0.00     0.001 A 
HETATM    8  C11 UNL     1      21.584  -0.879  54.318  1.00  0.00     0.002 A 
HETATM    9  C12 UNL     1      22.962  -0.900  54.580  1.00  0.00     0.030 A 
HETATM   10  C13 UNL     1      23.425   0.009  53.542  1.00  0.00     0.044 A 
BRANCH  10  11
HETATM   11  N2  UNL     1      24.797   0.035  53.652  1.00  0.00    -0.385 N 
HETATM   12  H11 UNL     1      24.904   0.861  54.218  1.00  0.00     0.160 HD
BRANCH  11  13
HETATM   13  C14 UNL     1      25.761  -0.901  53.077  1.00  0.00     0.158 C 
BRANCH  13  14
HETATM   14  C15 UNL     1      27.157  -0.658  53.307  1.00  0.00    -0.038 A 
HETATM   15  C16 UNL     1      27.389   0.686  53.973  1.00  0.00     0.028 A 
HETATM   16  C17 UNL     1      28.807   0.946  54.234  1.00  0.00     0.116 A 
HETATM   17  N3  UNL     1      29.911   0.142  53.936  1.00  0.00    -0.273 NA
HETATM   18  C18 UNL     1      29.685  -1.058  53.321  1.00  0.00     0.116 A 
HETATM   19  C19 UNL     1      28.330  -1.001  53.237  1.00  0.00     0.028 A 
ENDBRANCH  13  14
ENDBRANCH  11  13
ENDBRANCH  10  11
ENDBRANCH   2   5
BRANCH   1  20
HETATM   20  C6  UNL     1      22.416   4.060  51.013  1.00  0.00     0.040 C 
HETATM   21  C5  UNL     1      23.316   4.689  51.848  1.00  0.00     0.030 C 
HETATM   22  C4  UNL     1      23.908   5.985  51.831  1.00  0.00     0.004 C 
HETATM   23  C3  UNL     1      23.242   6.587  50.779  1.00  0.00     0.027 C 
HETATM   24  C2  UNL     1      22.823   7.505  49.765  1.00  0.00     0.035 C 
HETATM   25  C1  UNL     1      22.022   8.208  48.752  1.00  0.00     0.065 C 
HETATM   26  N4  UNL     1      24.179   7.599  49.221  1.00  0.00    -0.251 NA
HETATM   27  C26 UNL     1      24.352   6.817  48.167  1.00  0.00     0.085 C 
HETATM   28  C25 UNL     1      23.677   7.279  47.094  1.00  0.00     0.034 C 
HETATM   29  C24 UNL     1      22.860   6.068  47.236  1.00  0.00    -0.001 C 
HETATM   30  C23 UNL     1      22.601   4.848  47.746  1.00  0.00    -0.022 C 
HETATM   31  C22 UNL     1      22.960   3.656  48.659  1.00  0.00     0.067 C 
HETATM   32  C20 UNL     1      21.759   3.588  49.751  1.00  0.00    -0.037 C 
HETATM   33  C21 UNL     1      20.863   3.028  49.135  1.00  0.00     0.021 C 
ENDBRANCH   1  20
TORSDOF 5
ENDMDL
MODEL 8
REMARK VINA RESULT:      -9.0      2.330      5.632
REMARK  5 active torsions:
REMARK  status: ('A' for Active; 'I' for Inactive)
REMARK    1  A    between atoms: C6_6  and  N1_7 
REMARK       I    between atoms: N1_7  and  C7_8 
REMARK    2  A    between atoms: C7_8  and  C8_10 
REMARK    3  A    between atoms: C13_15  and  N2_16 
REMARK    4  A    between atoms: N2_16  and  C14_17 
REMARK    5  A    between atoms: C14_17  and  C15_18 
ROOT
HETATM    1  N1  UNL     1      21.188   2.910  51.200  1.00  0.00    -0.322 N 
HETATM    2  C7  UNL     1      21.247   1.437  51.061  1.00  0.00     0.258 C 
HETATM    3  O1  UNL     1      22.320   1.125  50.408  1.00  0.00    -0.267 OA
HETATM    4  H6  UNL     1      20.251   2.910  51.633  1.00  0.00     0.169 HD
ENDROOT
BRANCH   2   5
HETATM    5  C8  UNL     1      20.104   0.468  51.632  1.00  0.00     0.058 A 
HETATM    6  C9  UNL     1      19.061   0.538  50.754  1.00  0.00     0.019 A 
HETATM    7  C10 UNL     1      17.863  -0.306  51.528  1.00  0.00     0.001 A 
HETATM    8  C11 UNL     1      18.596  -0.553  52.511  1.00  0.00     0.002 A 
HETATM    9  C12 UNL     1      19.636  -0.663  53.447  1.00  0.00     0.030 A 
HETATM   10  C13 UNL     1      20.671   0.090  52.757  1.00  0.00     0.044 A 
BRANCH  10  11
HETATM   11  N2  UNL     1      21.788   0.012  53.558  1.00  0.00    -0.385 N 
HETATM   12  H11 UNL     1      21.505   0.629  54.302  1.00  0.00     0.160 HD
BRANCH  11  13
HETATM   13  C14 UNL     1      23.005  -0.765  53.328  1.00  0.00     0.158 C 
BRANCH  13  14
HETATM   14  C15 UNL     1      24.259  -0.183  53.712  1.00  0.00    -0.038 A 
HETATM   15  C16 UNL     1      24.433   1.208  53.132  1.00  0.00     0.028 A 
HETATM   16  C17 UNL     1      25.700   1.828  53.527  1.00  0.00     0.116 A 
HETATM   17  N3  UNL     1      26.719   1.299  54.323  1.00  0.00    -0.273 NA
HETATM   18  C18 UNL     1      26.553   0.038  54.826  1.00  0.00     0.116 A 
HETATM   19  C19 UNL     1      25.328  -0.238  54.306  1.00  0.00     0.028 A 
ENDBRANCH  13  14
ENDBRANCH  11  13
ENDBRANCH  10  11
ENDBRANCH   2   5
BRANCH   1  20
HETATM   20  C6  UNL     1      21.955   4.116  50.906  1.00  0.00     0.040 C 
HETATM   21  C5  UNL     1      22.784   4.157  52.007  1.00  0.00     0.030 C 
HETATM   22  C4  UNL     1      23.778   5.083  52.437  1.00  0.00     0.004 C 
HETATM   23  C3  UNL     1      23.644   6.095  51.502  1.00  0.00     0.027 C 
HETATM   24  C2  UNL     1      23.835   7.282  50.728  1.00  0.00     0.035 C 
HETATM   25  C1  UNL     1      23.605   8.429  49.838  1.00  0.00     0.065 C 
HETATM   26  N4  UNL     1      25.228   6.930  50.442  1.00  0.00    -0.251 NA
HETATM   27  C26 UNL     1      25.368   6.366  49.253  1.00  0.00     0.085 C 
HETATM   28  C25 UNL     1      25.182   7.260  48.258  1.00  0.00     0.034 C 
HETATM   29  C24 UNL     1      23.985   6.474  47.937  1.00  0.00    -0.001 C 
HETATM   30  C23 UNL     1      23.199   5.385  48.048  1.00  0.00    -0.022 C 
HETATM   31  C22 UNL     1      22.882   3.996  48.642  1.00  0.00     0.067 C 
HETATM   32  C20 UNL     1      21.505   4.203  49.479  1.00  0.00    -0.037 C 
HETATM   33  C21 UNL     1      20.650   4.180  48.605  1.00  0.00     0.021 C 
ENDBRANCH   1  20
TORSDOF 5
ENDMDL
MODEL 9
REMARK VINA RESULT:      -8.7      2.246      8.273
REMARK  5 active torsions:
REMARK  status: ('A' for Active; 'I' for Inactive)
REMARK    1  A    between atoms: C6_6  and  N1_7 
REMARK       I    between atoms: N1_7  and  C7_8 
REMARK    2  A    between atoms: C7_8  and  C8_10 
REMARK    3  A    between atoms: C13_15  and  N2_16 
REMARK    4  A    between atoms: N2_16  and  C14_17 
REMARK    5  A    between atoms: C14_17  and  C15_18 
ROOT
HETATM    1  N1  UNL     1      23.314   3.325  50.258  1.00  0.00    -0.322 N 
HETATM    2  C7  UNL     1      22.560   4.567  50.544  1.00  0.00     0.258 C 
HETATM    3  O1  UNL     1      22.636   4.813  51.813  1.00  0.00    -0.267 OA
HETATM    4  H6  UNL     1      23.030   3.289  49.266  1.00  0.00     0.169 HD
ENDROOT
BRANCH   2   5
HETATM    5  C8  UNL     1      21.781   5.388  49.408  1.00  0.00     0.058 A 
HETATM    6  C9  UNL     1      21.258   4.464  48.551  1.00  0.00     0.019 A 
HETATM    7  C10 UNL     1      20.672   5.393  47.310  1.00  0.00     0.001 A 
HETATM    8  C11 UNL     1      21.035   6.455  47.862  1.00  0.00     0.002 A 
HETATM    9  C12 UNL     1      21.549   7.449  48.709  1.00  0.00     0.030 A 
HETATM   10  C13 UNL     1      22.067   6.615  49.783  1.00  0.00     0.044 A 
BRANCH  10  11
HETATM   11  N2  UNL     1      22.560   7.487  50.729  1.00  0.00    -0.385 N 
HETATM   12  H11 UNL     1      21.727   7.626  51.278  1.00  0.00     0.160 HD
BRANCH  11  13
HETATM   13  C14 UNL     1      23.916   8.019  50.837  1.00  0.00     0.158 C 
BRANCH  13  14
HETATM   14  C15 UNL     1      24.924   7.480  49.969  1.00  0.00    -0.038 A 
HETATM   15  C16 UNL     1      25.393   8.503  48.951  1.00  0.00     0.028 A 
HETATM   16  C17 UNL     1      26.437   7.978  48.066  1.00  0.00     0.116 A 
HETATM   17  N3  UNL     1      27.004   6.701  48.048  1.00  0.00    -0.273 NA
HETATM   18  C18 UNL     1      26.559   5.787  48.963  1.00  0.00     0.116 A 
HETATM   19  C19 UNL     1      25.646   6.559  49.608  1.00  0.00     0.028 A 
ENDBRANCH  13  14
ENDBRANCH  11  13
ENDBRANCH  10  11
ENDBRANCH   2   5
BRANCH   1  20
HETATM   20  C6  UNL     1      24.158   2.326  50.905  1.00  0.00     0.040 C 
HETATM   21  C5  UNL     1      25.364   2.994  50.920  1.00  0.00     0.030 C 
HETATM   22  C4  UNL     1      26.669   2.625  51.358  1.00  0.00     0.004 C 
HETATM   23  C3  UNL     1      26.492   1.291  51.681  1.00  0.00     0.027 C 
HETATM   24  C2  UNL     1      26.690  -0.045  52.150  1.00  0.00     0.035 C 
HETATM   25  C1  UNL     1      26.559  -1.495  52.354  1.00  0.00     0.065 C 
HETATM   26  N4  UNL     1      27.096   0.427  53.475  1.00  0.00    -0.251 NA
HETATM   27  C26 UNL     1      26.103   0.379  54.349  1.00  0.00     0.085 C 
HETATM   28  C25 UNL     1      25.798  -0.894  54.680  1.00  0.00     0.034 C 
HETATM   29  C24 UNL     1      24.524  -0.639  53.998  1.00  0.00    -0.001 C 
HETATM   30  C23 UNL     1      23.608   0.169  53.429  1.00  0.00    -0.022 C 
HETATM   31  C22 UNL     1      23.118   1.565  52.988  1.00  0.00     0.067 C 
HETATM   32  C20 UNL     1      23.011   1.480  51.369  1.00  0.00    -0.037 C 
HETATM   33  C21 UNL     1      21.949   0.898  51.198  1.00  0.00     0.021 C 
ENDBRANCH   1  20
TORSDOF 5
ENDMDL
