MODEL 1
REMARK VINA RESULT:      -7.8      0.000      0.000
REMARK  5 active torsions:
REMARK  status: ('A' for Active; 'I' for Inactive)
REMARK    1  A    between atoms: N1_1  and  C1_2 
REMARK    2  A    between atoms: C1_2  and  C2_3 
REMARK    3  A    between atoms: C2_3  and  N2_4 
REMARK    4  A    between atoms: N2_4  and  C3_5 
REMARK    5  A    between atoms: C8_10  and  N3_11 
ROOT
HETATM    1  C2  UNL     1      24.839   0.621  53.430  1.00  0.00     0.047 C 
HETATM    2  C9  UNL     1      23.752  -0.077  53.744  1.00  0.00     0.003 C 
HETATM    3  C10 UNL     1      23.344  -1.095  54.788  1.00  0.00     0.217 C 
HETATM    4  O1  UNL     1      22.029  -0.663  55.086  1.00  0.00    -0.346 OA
HETATM    5  C11 UNL     1      21.460  -0.333  53.860  1.00  0.00     0.080 A 
HETATM    6  C12 UNL     1      20.135  -0.322  53.418  1.00  0.00     0.040 A 
HETATM    7  C13 UNL     1      19.828   0.055  52.123  1.00  0.00     0.045 A 
HETATM    8  C14 UNL     1      20.827   0.429  51.234  1.00  0.00     0.117 A 
HETATM    9  F1  UNL     1      20.580   0.806  49.957  1.00  0.00    -0.206 F 
HETATM   10  C15 UNL     1      22.124   0.409  51.697  1.00  0.00     0.057 A 
HETATM   11  C16 UNL     1      22.487   0.040  52.985  1.00  0.00     0.011 A 
ENDROOT
BRANCH   1  12
HETATM   12  C1  UNL     1      25.438   1.618  52.508  1.00  0.00     0.324 C 
BRANCH  12  13
HETATM   13  N1  UNL     1      25.717   2.875  53.223  1.00  0.00     0.083 N 
HETATM   14  H1  UNL     1      26.592   3.319  52.810  1.00  0.00     0.313 HD
HETATM   15  H2  UNL     1      26.022   2.593  54.181  1.00  0.00     0.313 HD
ENDBRANCH  12  13
ENDBRANCH   1  12
BRANCH   1  16
HETATM   16  N2  UNL     1      25.860   0.240  54.381  1.00  0.00    -0.356 N 
HETATM   17  H5  UNL     1      25.745   0.524  55.379  1.00  0.00     0.166 HD
BRANCH  16  18
HETATM   18  C3  UNL     1      26.960  -0.493  53.917  1.00  0.00     0.059 A 
HETATM   19  C4  UNL     1      26.757  -1.608  53.132  1.00  0.00     0.032 A 
HETATM   20  C5  UNL     1      27.859  -2.333  52.674  1.00  0.00     0.002 A 
HETATM   21  C6  UNL     1      29.118  -1.889  53.036  1.00  0.00     0.002 A 
HETATM   22  C7  UNL     1      29.329  -0.777  53.820  1.00  0.00     0.031 A 
HETATM   23  C8  UNL     1      28.226  -0.071  54.264  1.00  0.00     0.052 A 
BRANCH  23  24
HETATM   24  N3  UNL     1      28.449   1.081  55.075  1.00  0.00    -0.397 N 
HETATM   25  H10 UNL     1      27.891   1.847  54.667  1.00  0.00     0.156 HD
HETATM   26  H11 UNL     1      29.053   1.185  55.931  1.00  0.00     0.156 HD
ENDBRANCH  23  24
ENDBRANCH  16  18
ENDBRANCH   1  16
TORSDOF 5
ENDMDL
MODEL 2
REMARK VINA RESULT:      -7.2      3.093      6.569
REMARK  5 active torsions:
REMARK  status: ('A' for Active; 'I' for Inactive)
REMARK    1  A    between atoms: N1_1  and  C1_2 
REMARK    2  A    between atoms: C1_2  and  C2_3 
REMARK    3  A    between atoms: C2_3  and  N2_4 
REMARK    4  A    between atoms: N2_4  and  C3_5 
REMARK    5  A    between atoms: C8_10  and  N3_11 
ROOT
HETATM    1  C2  UNL     1      25.115   0.993  52.356  1.00  0.00     0.047 C 
HETATM    2  C9  UNL     1      25.931   0.016  52.742  1.00  0.00     0.003 C 
HETATM    3  C10 UNL     1      25.899  -1.495  52.826  1.00  0.00     0.217 C 
HETATM    4  O1  UNL     1      27.213  -1.816  52.406  1.00  0.00    -0.346 OA
HETATM    5  C11 UNL     1      28.038  -0.884  53.026  1.00  0.00     0.080 A 
HETATM    6  C12 UNL     1      29.379  -0.935  53.413  1.00  0.00     0.040 A 
HETATM    7  C13 UNL     1      29.978   0.152  54.026  1.00  0.00     0.045 A 
HETATM    8  C14 UNL     1      29.262   1.316  54.269  1.00  0.00     0.117 A 
HETATM    9  F1  UNL     1      29.799   2.406  54.864  1.00  0.00    -0.206 F 
HETATM   10  C15 UNL     1      27.941   1.339  53.877  1.00  0.00     0.057 A 
HETATM   11  C16 UNL     1      27.293   0.279  53.259  1.00  0.00     0.011 A 
ENDROOT
BRANCH   1  12
HETATM   12  C1  UNL     1      24.940   2.458  52.191  1.00  0.00     0.324 C 
BRANCH  12  13
HETATM   13  N1  UNL     1      24.873   3.118  53.505  1.00  0.00     0.083 N 
HETATM   14  H1  UNL     1      25.549   2.631  54.169  1.00  0.00     0.313 HD
HETATM   15  H2  UNL     1      23.937   2.873  53.897  1.00  0.00     0.313 HD
ENDBRANCH  12  13
ENDBRANCH   1  12
BRANCH   1  16
HETATM   16  N2  UNL     1      23.890   0.357  51.923  1.00  0.00    -0.356 N 
HETATM   17  H5  UNL     1      23.857  -0.071  50.972  1.00  0.00     0.166 HD
BRANCH  16  18
HETATM   18  C3  UNL     1      22.801   0.345  52.804  1.00  0.00     0.059 A 
HETATM   19  C4  UNL     1      22.860  -0.411  53.956  1.00  0.00     0.032 A 
HETATM   20  C5  UNL     1      21.770  -0.416  54.828  1.00  0.00     0.002 A 
HETATM   21  C6  UNL     1      20.668   0.348  54.487  1.00  0.00     0.002 A 
HETATM   22  C7  UNL     1      20.601   1.105  53.339  1.00  0.00     0.031 A 
HETATM   23  C8  UNL     1      21.690   1.099  52.487  1.00  0.00     0.052 A 
BRANCH  23  24
HETATM   24  N3  UNL     1      21.617   1.885  51.300  1.00  0.00    -0.397 N 
HETATM   25  H10 UNL     1      21.816   2.860  51.572  1.00  0.00     0.156 HD
HETATM   26  H11 UNL     1      21.407   1.583  50.313  1.00  0.00     0.156 HD
ENDBRANCH  23  24
ENDBRANCH  16  18
ENDBRANCH   1  16
TORSDOF 5
ENDMDL
MODEL 3
REMARK VINA RESULT:      -7.2      2.771      3.435
REMARK  5 active torsions:
REMARK  status: ('A' for Active; 'I' for Inactive)
REMARK    1  A    between atoms: N1_1  and  C1_2 
REMARK    2  A    between atoms: C1_2  and  C2_3 
REMARK    3  A    between atoms: C2_3  and  N2_4 
REMARK    4  A    between atoms: N2_4  and  C3_5 
REMARK    5  A    between atoms: C8_10  and  N3_11 
ROOT
HETATM    1  C2  UNL     1      25.288   2.739  51.267  1.00  0.00     0.047 C 
HETATM    2  C9  UNL     1      23.976   2.544  51.362  1.00  0.00     0.003 C 
HETATM    3  C10 UNL     1      22.981   2.155  52.434  1.00  0.00     0.217 C 
HETATM    4  O1  UNL     1      21.899   3.014  52.123  1.00  0.00    -0.346 OA
HETATM    5  C11 UNL     1      21.800   2.997  50.735  1.00  0.00     0.080 A 
HETATM    6  C12 UNL     1      20.722   3.206  49.873  1.00  0.00     0.040 A 
HETATM    7  C13 UNL     1      20.890   3.131  48.502  1.00  0.00     0.045 A 
HETATM    8  C14 UNL     1      22.133   2.846  47.952  1.00  0.00     0.117 A 
HETATM    9  F1  UNL     1      22.352   2.762  46.619  1.00  0.00    -0.206 F 
HETATM   10  C15 UNL     1      23.179   2.645  48.826  1.00  0.00     0.057 A 
HETATM   11  C16 UNL     1      23.065   2.709  50.207  1.00  0.00     0.011 A 
ENDROOT
BRANCH   1  12
HETATM   12  C1  UNL     1      26.418   3.103  50.376  1.00  0.00     0.324 C 
BRANCH  12  13
HETATM   13  N1  UNL     1      26.436   4.556  50.137  1.00  0.00     0.083 N 
HETATM   14  H1  UNL     1      25.847   4.770  49.276  1.00  0.00     0.313 HD
HETATM   15  H2  UNL     1      27.407   4.778  49.822  1.00  0.00     0.313 HD
ENDBRANCH  12  13
ENDBRANCH   1  12
BRANCH   1  16
HETATM   16  N2  UNL     1      25.836   2.481  52.581  1.00  0.00    -0.356 N 
HETATM   17  H5  UNL     1      25.647   3.167  53.345  1.00  0.00     0.166 HD
BRANCH  16  18
HETATM   18  C3  UNL     1      26.599   1.322  52.767  1.00  0.00     0.059 A 
HETATM   19  C4  UNL     1      26.107   0.105  52.344  1.00  0.00     0.032 A 
HETATM   20  C5  UNL     1      26.874  -1.047  52.534  1.00  0.00     0.002 A 
HETATM   21  C6  UNL     1      28.107  -0.907  53.145  1.00  0.00     0.002 A 
HETATM   22  C7  UNL     1      28.605   0.305  53.571  1.00  0.00     0.031 A 
HETATM   23  C8  UNL     1      27.832   1.434  53.375  1.00  0.00     0.052 A 
BRANCH  23  24
HETATM   24  N3  UNL     1      28.351   2.687  53.816  1.00  0.00    -0.397 N 
HETATM   25  H10 UNL     1      27.561   3.215  54.216  1.00  0.00     0.156 HD
HETATM   26  H11 UNL     1      29.337   3.053  53.768  1.00  0.00     0.156 HD
ENDBRANCH  23  24
ENDBRANCH  16  18
ENDBRANCH   1  16
TORSDOF 5
ENDMDL
MODEL 4
REMARK VINA RESULT:      -7.2      3.176      6.442
REMARK  5 active torsions:
REMARK  status: ('A' for Active; 'I' for Inactive)
REMARK    1  A    between atoms: N1_1  and  C1_2 
REMARK    2  A    between atoms: C1_2  and  C2_3 
REMARK    3  A    between atoms: C2_3  and  N2_4 
REMARK    4  A    between atoms: N2_4  and  C3_5 
REMARK    5  A    between atoms: C8_10  and  N3_11 
ROOT
HETATM    1  C2  UNL     1      24.443   0.789  53.151  1.00  0.00     0.047 C 
HETATM    2  C9  UNL     1      25.725   1.143  53.162  1.00  0.00     0.003 C 
HETATM    3  C10 UNL     1      26.527   2.427  53.143  1.00  0.00     0.217 C 
HETATM    4  O1  UNL     1      27.560   2.113  54.059  1.00  0.00    -0.346 OA
HETATM    5  C11 UNL     1      27.926   0.803  53.769  1.00  0.00     0.080 A 
HETATM    6  C12 UNL     1      29.126   0.109  53.941  1.00  0.00     0.040 A 
HETATM    7  C13 UNL     1      29.234  -1.218  53.562  1.00  0.00     0.045 A 
HETATM    8  C14 UNL     1      28.154  -1.888  53.003  1.00  0.00     0.117 A 
HETATM    9  F1  UNL     1      28.206  -3.184  52.616  1.00  0.00    -0.206 F 
HETATM   10  C15 UNL     1      26.983  -1.179  52.845  1.00  0.00     0.057 A 
HETATM   11  C16 UNL     1      26.821   0.150  53.208  1.00  0.00     0.011 A 
ENDROOT
BRANCH   1  12
HETATM   12  C1  UNL     1      23.477  -0.338  53.165  1.00  0.00     0.324 C 
BRANCH  12  13
HETATM   13  N1  UNL     1      23.327  -0.869  54.530  1.00  0.00     0.083 N 
HETATM   14  H1  UNL     1      23.540  -0.092  55.227  1.00  0.00     0.313 HD
HETATM   15  H2  UNL     1      24.123  -1.533  54.664  1.00  0.00     0.313 HD
ENDBRANCH  12  13
ENDBRANCH   1  12
BRANCH   1  16
HETATM   16  N2  UNL     1      23.679   2.016  53.098  1.00  0.00    -0.356 N 
HETATM   17  H5  UNL     1      23.320   2.421  53.990  1.00  0.00     0.166 HD
BRANCH  16  18
HETATM   18  C3  UNL     1      23.454   2.604  51.847  1.00  0.00     0.059 A 
HETATM   19  C4  UNL     1      23.143   1.811  50.763  1.00  0.00     0.032 A 
HETATM   20  C5  UNL     1      22.920   2.406  49.520  1.00  0.00     0.002 A 
HETATM   21  C6  UNL     1      23.025   3.782  49.436  1.00  0.00     0.002 A 
HETATM   22  C7  UNL     1      23.336   4.582  50.513  1.00  0.00     0.031 A 
HETATM   23  C8  UNL     1      23.553   3.976  51.737  1.00  0.00     0.052 A 
BRANCH  23  24
HETATM   24  N3  UNL     1      23.874   4.807  52.850  1.00  0.00    -0.397 N 
HETATM   25  H10 UNL     1      24.375   5.628  52.476  1.00  0.00     0.156 HD
HETATM   26  H11 UNL     1      23.665   4.662  53.871  1.00  0.00     0.156 HD
ENDBRANCH  23  24
ENDBRANCH  16  18
ENDBRANCH   1  16
TORSDOF 5
ENDMDL
MODEL 5
REMARK VINA RESULT:      -7.1      3.071      6.679
REMARK  5 active torsions:
REMARK  status: ('A' for Active; 'I' for Inactive)
REMARK    1  A    between atoms: N1_1  and  C1_2 
REMARK    2  A    between atoms: C1_2  and  C2_3 
REMARK    3  A    between atoms: C2_3  and  N2_4 
REMARK    4  A    between atoms: N2_4  and  C3_5 
REMARK    5  A    between atoms: C8_10  and  N3_11 
ROOT
HETATM    1  C2  UNL     1      24.771   0.388  53.254  1.00  0.00     0.047 C 
HETATM    2  C9  UNL     1      25.968   0.960  53.162  1.00  0.00     0.003 C 
HETATM    3  C10 UNL     1      26.524   2.351  52.946  1.00  0.00     0.217 C 
HETATM    4  O1  UNL     1      27.617   2.348  53.846  1.00  0.00    -0.346 OA
HETATM    5  C11 UNL     1      28.207   1.096  53.708  1.00  0.00     0.080 A 
HETATM    6  C12 UNL     1      29.516   0.653  53.912  1.00  0.00     0.040 A 
HETATM    7  C13 UNL     1      29.853  -0.672  53.698  1.00  0.00     0.045 A 
HETATM    8  C14 UNL     1      28.900  -1.590  53.277  1.00  0.00     0.117 A 
HETATM    9  F1  UNL     1      29.176  -2.896  53.054  1.00  0.00    -0.206 F 
HETATM   10  C15 UNL     1      27.617  -1.125  53.084  1.00  0.00     0.057 A 
HETATM   11  C16 UNL     1      27.226   0.191  53.284  1.00  0.00     0.011 A 
ENDROOT
BRANCH   1  12
HETATM   12  C1  UNL     1      24.025  -0.880  53.453  1.00  0.00     0.324 C 
BRANCH  12  13
HETATM   13  N1  UNL     1      23.711  -1.073  54.879  1.00  0.00     0.083 N 
HETATM   14  H1  UNL     1      23.654  -0.120  55.351  1.00  0.00     0.313 HD
HETATM   15  H2  UNL     1      24.568  -1.496  55.302  1.00  0.00     0.313 HD
ENDBRANCH  12  13
ENDBRANCH   1  12
BRANCH   1  16
HETATM   16  N2  UNL     1      23.797   1.443  53.081  1.00  0.00    -0.356 N 
HETATM   17  H5  UNL     1      23.856   2.284  53.698  1.00  0.00     0.166 HD
BRANCH  16  18
HETATM   18  C3  UNL     1      22.817   1.287  52.094  1.00  0.00     0.059 A 
HETATM   19  C4  UNL     1      21.672   0.569  52.373  1.00  0.00     0.032 A 
HETATM   20  C5  UNL     1      20.700   0.418  51.382  1.00  0.00     0.002 A 
HETATM   21  C6  UNL     1      20.937   1.004  50.152  1.00  0.00     0.002 A 
HETATM   22  C7  UNL     1      22.077   1.721  49.864  1.00  0.00     0.031 A 
HETATM   23  C8  UNL     1      23.029   1.860  50.858  1.00  0.00     0.052 A 
BRANCH  23  24
HETATM   24  N3  UNL     1      24.208   2.604  50.557  1.00  0.00    -0.397 N 
HETATM   25  H10 UNL     1      25.001   1.947  50.618  1.00  0.00     0.156 HD
HETATM   26  H11 UNL     1      24.307   3.623  50.312  1.00  0.00     0.156 HD
ENDBRANCH  23  24
ENDBRANCH  16  18
ENDBRANCH   1  16
TORSDOF 5
ENDMDL
MODEL 6
REMARK VINA RESULT:      -7.0      3.219      6.660
REMARK  5 active torsions:
REMARK  status: ('A' for Active; 'I' for Inactive)
REMARK    1  A    between atoms: N1_1  and  C1_2 
REMARK    2  A    between atoms: C1_2  and  C2_3 
REMARK    3  A    between atoms: C2_3  and  N2_4 
REMARK    4  A    between atoms: N2_4  and  C3_5 
REMARK    5  A    between atoms: C8_10  and  N3_11 
ROOT
HETATM    1  C2  UNL     1      23.736   2.258  52.588  1.00  0.00     0.047 C 
HETATM    2  C9  UNL     1      24.399   1.214  53.076  1.00  0.00     0.003 C 
HETATM    3  C10 UNL     1      24.074  -0.176  53.582  1.00  0.00     0.217 C 
HETATM    4  O1  UNL     1      25.148  -0.920  53.036  1.00  0.00    -0.346 OA
HETATM    5  C11 UNL     1      26.276  -0.124  53.211  1.00  0.00     0.080 A 
HETATM    6  C12 UNL     1      27.629  -0.440  53.347  1.00  0.00     0.040 A 
HETATM    7  C13 UNL     1      28.573   0.558  53.514  1.00  0.00     0.045 A 
HETATM    8  C14 UNL     1      28.197   1.894  53.549  1.00  0.00     0.117 A 
HETATM    9  F1  UNL     1      29.079   2.908  53.709  1.00  0.00    -0.206 F 
HETATM   10  C15 UNL     1      26.855   2.177  53.413  1.00  0.00     0.057 A 
HETATM   11  C16 UNL     1      25.869   1.215  53.243  1.00  0.00     0.011 A 
ENDROOT
BRANCH   1  12
HETATM   12  C1  UNL     1      23.836   3.640  52.057  1.00  0.00     0.324 C 
BRANCH  12  13
HETATM   13  N1  UNL     1      23.996   4.604  53.159  1.00  0.00     0.083 N 
HETATM   14  H1  UNL     1      24.365   4.089  54.015  1.00  0.00     0.313 HD
HETATM   15  H2  UNL     1      23.027   4.873  53.442  1.00  0.00     0.313 HD
ENDBRANCH  12  13
ENDBRANCH   1  12
BRANCH   1  16
HETATM   16  N2  UNL     1      22.337   1.889  52.580  1.00  0.00    -0.356 N 
HETATM   17  H5  UNL     1      21.878   1.650  53.487  1.00  0.00     0.166 HD
BRANCH  16  18
HETATM   18  C3  UNL     1      21.663   1.867  51.353  1.00  0.00     0.059 A 
HETATM   19  C4  UNL     1      22.060   0.986  50.370  1.00  0.00     0.032 A 
HETATM   20  C5  UNL     1      21.382   0.971  49.149  1.00  0.00     0.002 A 
HETATM   21  C6  UNL     1      20.332   1.854  48.985  1.00  0.00     0.002 A 
HETATM   22  C7  UNL     1      19.929   2.738  49.961  1.00  0.00     0.031 A 
HETATM   23  C8  UNL     1      20.612   2.739  51.164  1.00  0.00     0.052 A 
BRANCH  23  24
HETATM   24  N3  UNL     1      20.191   3.654  52.173  1.00  0.00    -0.397 N 
HETATM   25  H10 UNL     1      19.287   4.045  51.865  1.00  0.00     0.156 HD
HETATM   26  H11 UNL     1      20.668   3.918  53.073  1.00  0.00     0.156 HD
ENDBRANCH  23  24
ENDBRANCH  16  18
ENDBRANCH   1  16
TORSDOF 5
ENDMDL
MODEL 7
REMARK VINA RESULT:      -7.0      3.906      6.119
REMARK  5 active torsions:
REMARK  status: ('A' for Active; 'I' for Inactive)
REMARK    1  A    between atoms: N1_1  and  C1_2 
REMARK    2  A    between atoms: C1_2  and  C2_3 
REMARK    3  A    between atoms: C2_3  and  N2_4 
REMARK    4  A    between atoms: N2_4  and  C3_5 
REMARK    5  A    between atoms: C8_10  and  N3_11 
ROOT
HETATM    1  C2  UNL     1      24.168   3.750  51.981  1.00  0.00     0.047 C 
HETATM    2  C9  UNL     1      24.479   2.458  51.937  1.00  0.00     0.003 C 
HETATM    3  C10 UNL     1      25.522   1.585  51.273  1.00  0.00     0.217 C 
HETATM    4  O1  UNL     1      25.814   0.673  52.317  1.00  0.00    -0.346 OA
HETATM    5  C11 UNL     1      24.584   0.356  52.886  1.00  0.00     0.080 A 
HETATM    6  C12 UNL     1      24.136  -0.776  53.570  1.00  0.00     0.040 A 
HETATM    7  C13 UNL     1      22.838  -0.845  54.045  1.00  0.00     0.045 A 
HETATM    8  C14 UNL     1      21.954   0.208  53.854  1.00  0.00     0.117 A 
HETATM    9  F1  UNL     1      20.675   0.192  54.299  1.00  0.00    -0.206 F 
HETATM   10  C15 UNL     1      22.423   1.312  53.177  1.00  0.00     0.057 A 
HETATM   11  C16 UNL     1      23.713   1.432  52.680  1.00  0.00     0.011 A 
ENDROOT
BRANCH   1  12
HETATM   12  C1  UNL     1      23.247   4.777  52.531  1.00  0.00     0.324 C 
BRANCH  12  13
HETATM   13  N1  UNL     1      23.893   5.508  53.634  1.00  0.00     0.083 N 
HETATM   14  H1  UNL     1      23.766   6.553  53.475  1.00  0.00     0.313 HD
HETATM   15  H2  UNL     1      24.920   5.369  53.501  1.00  0.00     0.313 HD
ENDBRANCH  12  13
ENDBRANCH   1  12
BRANCH   1  16
HETATM   16  N2  UNL     1      25.124   4.431  51.137  1.00  0.00    -0.356 N 
HETATM   17  H5  UNL     1      26.139   4.358  51.370  1.00  0.00     0.166 HD
BRANCH  16  18
HETATM   18  C3  UNL     1      24.643   5.161  50.043  1.00  0.00     0.059 A 
HETATM   19  C4  UNL     1      23.799   4.557  49.135  1.00  0.00     0.032 A 
HETATM   20  C5  UNL     1      23.324   5.292  48.047  1.00  0.00     0.002 A 
HETATM   21  C6  UNL     1      23.730   6.609  47.933  1.00  0.00     0.002 A 
HETATM   22  C7  UNL     1      24.572   7.221  48.835  1.00  0.00     0.031 A 
HETATM   23  C8  UNL     1      25.033   6.477  49.906  1.00  0.00     0.052 A 
BRANCH  23  24
HETATM   24  N3  UNL     1      25.904   7.113  50.838  1.00  0.00    -0.397 N 
HETATM   25  H10 UNL     1      25.514   8.051  51.022  1.00  0.00     0.156 HD
HETATM   26  H11 UNL     1      26.784   6.746  51.284  1.00  0.00     0.156 HD
ENDBRANCH  23  24
ENDBRANCH  16  18
ENDBRANCH   1  16
TORSDOF 5
ENDMDL
MODEL 8
REMARK VINA RESULT:      -7.0      4.340      6.996
REMARK  5 active torsions:
REMARK  status: ('A' for Active; 'I' for Inactive)
REMARK    1  A    between atoms: N1_1  and  C1_2 
REMARK    2  A    between atoms: C1_2  and  C2_3 
REMARK    3  A    between atoms: C2_3  and  N2_4 
REMARK    4  A    between atoms: N2_4  and  C3_5 
REMARK    5  A    between atoms: C8_10  and  N3_11 
ROOT
HETATM    1  C2  UNL     1      24.463   4.062  51.767  1.00  0.00     0.047 C 
HETATM    2  C9  UNL     1      25.272   3.046  51.485  1.00  0.00     0.003 C 
HETATM    3  C10 UNL     1      26.475   2.791  50.601  1.00  0.00     0.217 C 
HETATM    4  O1  UNL     1      27.268   1.983  51.451  1.00  0.00    -0.346 OA
HETATM    5  C11 UNL     1      26.379   1.103  52.061  1.00  0.00     0.080 A 
HETATM    6  C12 UNL     1      26.546  -0.181  52.583  1.00  0.00     0.040 A 
HETATM    7  C13 UNL     1      25.479  -0.858  53.147  1.00  0.00     0.045 A 
HETATM    8  C14 UNL     1      24.219  -0.277  53.207  1.00  0.00     0.117 A 
HETATM    9  F1  UNL     1      23.143  -0.894  53.747  1.00  0.00    -0.206 F 
HETATM   10  C15 UNL     1      24.083   0.991  52.684  1.00  0.00     0.057 A 
HETATM   11  C16 UNL     1      25.119   1.713  52.109  1.00  0.00     0.011 A 
ENDROOT
BRANCH   1  12
HETATM   12  C1  UNL     1      23.289   4.520  52.553  1.00  0.00     0.324 C 
BRANCH  12  13
HETATM   13  N1  UNL     1      23.722   5.385  53.664  1.00  0.00     0.083 N 
HETATM   14  H1  UNL     1      24.785   5.439  53.664  1.00  0.00     0.313 HD
HETATM   15  H2  UNL     1      23.511   4.850  54.537  1.00  0.00     0.313 HD
ENDBRANCH  12  13
ENDBRANCH   1  12
BRANCH   1  16
HETATM   16  N2  UNL     1      24.915   5.181  50.970  1.00  0.00    -0.356 N 
HETATM   17  H5  UNL     1      25.865   5.574  51.153  1.00  0.00     0.166 HD
BRANCH  16  18
HETATM   18  C3  UNL     1      24.055   5.688  49.989  1.00  0.00     0.059 A 
HETATM   19  C4  UNL     1      23.684   4.892  48.926  1.00  0.00     0.032 A 
HETATM   20  C5  UNL     1      22.826   5.406  47.952  1.00  0.00     0.002 A 
HETATM   21  C6  UNL     1      22.385   6.708  48.103  1.00  0.00     0.002 A 
HETATM   22  C7  UNL     1      22.751   7.511  49.161  1.00  0.00     0.031 A 
HETATM   23  C8  UNL     1      23.601   6.985  50.116  1.00  0.00     0.052 A 
BRANCH  23  24
HETATM   24  N3  UNL     1      23.978   7.818  51.210  1.00  0.00    -0.397 N 
HETATM   25  H10 UNL     1      23.316   8.609  51.226  1.00  0.00     0.156 HD
HETATM   26  H11 UNL     1      24.765   7.698  51.898  1.00  0.00     0.156 HD
ENDBRANCH  23  24
ENDBRANCH  16  18
ENDBRANCH   1  16
TORSDOF 5
ENDMDL
MODEL 9
REMARK VINA RESULT:      -6.9      5.514      8.338
REMARK  5 active torsions:
REMARK  status: ('A' for Active; 'I' for Inactive)
REMARK    1  A    between atoms: N1_1  and  C1_2 
REMARK    2  A    between atoms: C1_2  and  C2_3 
REMARK    3  A    between atoms: C2_3  and  N2_4 
REMARK    4  A    between atoms: N2_4  and  C3_5 
REMARK    5  A    between atoms: C8_10  and  N3_11 
ROOT
HETATM    1  C2  UNL     1      25.309   3.944  50.234  1.00  0.00     0.047 C 
HETATM    2  C9  UNL     1      25.448   5.057  49.521  1.00  0.00     0.003 C 
HETATM    3  C10 UNL     1      24.568   6.192  49.043  1.00  0.00     0.217 C 
HETATM    4  O1  UNL     1      25.431   7.300  49.227  1.00  0.00    -0.346 OA
HETATM    5  C11 UNL     1      26.682   6.869  48.796  1.00  0.00     0.080 A 
HETATM    6  C12 UNL     1      27.778   7.560  48.274  1.00  0.00     0.040 A 
HETATM    7  C13 UNL     1      28.930   6.884  47.914  1.00  0.00     0.045 A 
HETATM    8  C14 UNL     1      29.024   5.507  48.063  1.00  0.00     0.117 A 
HETATM    9  F1  UNL     1      30.127   4.798  47.727  1.00  0.00    -0.206 F 
HETATM   10  C15 UNL     1      27.927   4.851  48.580  1.00  0.00     0.057 A 
HETATM   11  C16 UNL     1      26.749   5.480  48.956  1.00  0.00     0.011 A 
ENDROOT
BRANCH   1  12
HETATM   12  C1  UNL     1      25.988   2.750  50.799  1.00  0.00     0.324 C 
BRANCH  12  13
HETATM   13  N1  UNL     1      26.066   2.850  52.266  1.00  0.00     0.083 N 
HETATM   14  H1  UNL     1      25.241   3.427  52.616  1.00  0.00     0.313 HD
HETATM   15  H2  UNL     1      26.887   3.465  52.463  1.00  0.00     0.313 HD
ENDBRANCH  12  13
ENDBRANCH   1  12
BRANCH   1  16
HETATM   16  N2  UNL     1      23.913   3.866  50.604  1.00  0.00    -0.356 N 
HETATM   17  H5  UNL     1      23.544   4.541  51.310  1.00  0.00     0.166 HD
BRANCH  16  18
HETATM   18  C3  UNL     1      23.119   2.884  49.999  1.00  0.00     0.059 A 
HETATM   19  C4  UNL     1      22.998   2.854  48.625  1.00  0.00     0.032 A 
HETATM   20  C5  UNL     1      22.204   1.872  48.029  1.00  0.00     0.002 A 
HETATM   21  C6  UNL     1      21.569   0.966  48.859  1.00  0.00     0.002 A 
HETATM   22  C7  UNL     1      21.684   0.989  50.231  1.00  0.00     0.031 A 
HETATM   23  C8  UNL     1      22.475   1.968  50.804  1.00  0.00     0.052 A 
BRANCH  23  24
HETATM   24  N3  UNL     1      22.592   1.989  52.224  1.00  0.00    -0.397 N 
HETATM   25  H10 UNL     1      21.888   2.657  52.574  1.00  0.00     0.156 HD
HETATM   26  H11 UNL     1      23.249   1.450  52.846  1.00  0.00     0.156 HD
ENDBRANCH  23  24
ENDBRANCH  16  18
ENDBRANCH   1  16
TORSDOF 5
ENDMDL
