MODEL 1
REMARK VINA RESULT:      -7.9      0.000      0.000
REMARK  3 active torsions:
REMARK  status: ('A' for Active; 'I' for Inactive)
REMARK    1  A    between atoms: O1_2  and  C2_3 
REMARK    2  A    between atoms: C15_20  and  C16_21 
REMARK    3  A    between atoms: C16_21  and  O3_22 
ROOT
HETATM    1  C2  UNL     1      26.927   0.910  53.495  1.00  0.00     0.079 C 
HETATM    2  C3  UNL     1      27.415   1.991  52.939  1.00  0.00     0.066 C 
HETATM    3  C4  UNL     1      26.932   2.513  51.621  1.00  0.00     0.061 A 
HETATM    4  C5  UNL     1      25.593   2.504  51.840  1.00  0.00     0.061 A 
HETATM    5  C6  UNL     1      24.253   2.684  51.549  1.00  0.00     0.036 A 
HETATM    6  C7  UNL     1      24.391   3.171  50.238  1.00  0.00     0.049 A 
HETATM    7  C8  UNL     1      25.695   3.285  49.753  1.00  0.00     0.119 A 
HETATM    8  N1  UNL     1      26.801   2.976  50.412  1.00  0.00    -0.261 NA
HETATM    9  N2  UNL     1      22.985   2.486  52.132  1.00  0.00    -0.354 N 
HETATM   10  C9  UNL     1      22.685   1.247  52.739  1.00  0.00     0.067 A 
HETATM   11  C10 UNL     1      21.351   0.960  52.569  1.00  0.00     0.051 A 
HETATM   12  C11 UNL     1      20.634  -0.165  53.009  1.00  0.00     0.013 A 
HETATM   13 BR1  UNL     1      18.792  -0.455  52.712  1.00  0.00    -0.051 Br
HETATM   14  C12 UNL     1      21.418  -1.093  53.712  1.00  0.00     0.022 A 
HETATM   15  C13 UNL     1      22.780  -0.809  53.892  1.00  0.00     0.040 A 
HETATM   16  C14 UNL     1      23.439   0.326  53.430  1.00  0.00     0.096 A 
HETATM   17  O2  UNL     1      24.758   0.126  53.864  1.00  0.00    -0.335 OA
HETATM   18  C15 UNL     1      25.870  -0.001  53.019  1.00  0.00     0.209 C 
HETATM   19  H8  UNL     1      22.435   3.345  52.007  1.00  0.00     0.166 HD
ENDROOT
BRANCH  18  20
HETATM   20  C16 UNL     1      26.470  -1.398  53.320  1.00  0.00     0.203 C 
BRANCH  20  21
HETATM   21  O3  UNL     1      27.789  -1.501  52.984  1.00  0.00    -0.398 OA
HETATM   22  H15 UNL     1      28.034  -2.112  52.278  1.00  0.00     0.209 HD
ENDBRANCH  20  21
ENDBRANCH  18  20
BRANCH   1  23
HETATM   23  O1  UNL     1      27.686   0.880  54.642  1.00  0.00    -0.357 OA
HETATM   24  C1  UNL     1      29.053   1.227  54.551  1.00  0.00     0.209 C 
ENDBRANCH   1  23
TORSDOF 3
ENDMDL
MODEL 2
REMARK VINA RESULT:      -7.7      2.681      5.012
REMARK  3 active torsions:
REMARK  status: ('A' for Active; 'I' for Inactive)
REMARK    1  A    between atoms: O1_2  and  C2_3 
REMARK    2  A    between atoms: C15_20  and  C16_21 
REMARK    3  A    between atoms: C16_21  and  O3_22 
ROOT
HETATM    1  C2  UNL     1      26.417   0.104  52.641  1.00  0.00     0.079 C 
HETATM    2  C3  UNL     1      25.479  -0.727  53.020  1.00  0.00     0.066 C 
HETATM    3  C4  UNL     1      24.110  -0.274  53.423  1.00  0.00     0.061 A 
HETATM    4  C5  UNL     1      23.809   0.532  52.373  1.00  0.00     0.061 A 
HETATM    5  C6  UNL     1      23.049   1.399  51.609  1.00  0.00     0.036 A 
HETATM    6  C7  UNL     1      21.916   1.463  52.437  1.00  0.00     0.049 A 
HETATM    7  C8  UNL     1      21.961   0.709  53.611  1.00  0.00     0.119 A 
HETATM    8  N1  UNL     1      22.968  -0.054  54.008  1.00  0.00    -0.261 NA
HETATM    9  N2  UNL     1      23.136   2.149  50.419  1.00  0.00    -0.354 N 
HETATM   10  C9  UNL     1      24.280   2.943  50.181  1.00  0.00     0.067 A 
HETATM   11  C10 UNL     1      23.920   4.071  49.480  1.00  0.00     0.051 A 
HETATM   12  C11 UNL     1      24.738   5.124  49.038  1.00  0.00     0.013 A 
HETATM   13 BR1  UNL     1      24.131   6.634  48.081  1.00  0.00    -0.051 Br
HETATM   14  C12 UNL     1      26.092   4.966  49.374  1.00  0.00     0.022 A 
HETATM   15  C13 UNL     1      26.469   3.819  50.089  1.00  0.00     0.040 A 
HETATM   16  C14 UNL     1      25.611   2.804  50.503  1.00  0.00     0.096 A 
HETATM   17  O2  UNL     1      26.469   1.913  51.162  1.00  0.00    -0.335 OA
HETATM   18  C15 UNL     1      26.384   1.574  52.522  1.00  0.00     0.209 C 
HETATM   19  H8  UNL     1      22.281   1.988  49.873  1.00  0.00     0.166 HD
ENDROOT
BRANCH  18  20
HETATM   20  C16 UNL     1      27.740   1.993  53.145  1.00  0.00     0.203 C 
BRANCH  20  21
HETATM   21  O3  UNL     1      27.605   2.852  54.196  1.00  0.00    -0.398 OA
HETATM   22  H15 UNL     1      27.957   2.584  55.054  1.00  0.00     0.209 HD
ENDBRANCH  20  21
ENDBRANCH  18  20
BRANCH   1  23
HETATM   23  O1  UNL     1      27.430  -0.791  52.392  1.00  0.00    -0.357 OA
HETATM   24  C1  UNL     1      27.201  -2.158  52.669  1.00  0.00     0.209 C 
ENDBRANCH   1  23
TORSDOF 3
ENDMDL
MODEL 3
REMARK VINA RESULT:      -7.5      3.440      6.342
REMARK  3 active torsions:
REMARK  status: ('A' for Active; 'I' for Inactive)
REMARK    1  A    between atoms: O1_2  and  C2_3 
REMARK    2  A    between atoms: C15_20  and  C16_21 
REMARK    3  A    between atoms: C16_21  and  O3_22 
ROOT
HETATM    1  C2  UNL     1      21.540   2.231  52.024  1.00  0.00     0.079 C 
HETATM    2  C3  UNL     1      20.540   1.886  52.797  1.00  0.00     0.066 C 
HETATM    3  C4  UNL     1      20.317   0.478  53.253  1.00  0.00     0.061 A 
HETATM    4  C5  UNL     1      21.560   0.177  53.709  1.00  0.00     0.061 A 
HETATM    5  C6  UNL     1      22.558  -0.598  54.269  1.00  0.00     0.036 A 
HETATM    6  C7  UNL     1      21.810  -1.766  54.493  1.00  0.00     0.049 A 
HETATM    7  C8  UNL     1      20.469  -1.727  54.109  1.00  0.00     0.119 A 
HETATM    8  N1  UNL     1      19.847  -0.697  53.557  1.00  0.00    -0.261 NA
HETATM    9  N2  UNL     1      23.932  -0.532  54.577  1.00  0.00    -0.354 N 
HETATM   10  C9  UNL     1      24.842  -0.068  53.601  1.00  0.00     0.067 A 
HETATM   11  C10 UNL     1      26.042  -0.724  53.740  1.00  0.00     0.051 A 
HETATM   12  C11 UNL     1      27.216  -0.573  52.982  1.00  0.00     0.013 A 
HETATM   13 BR1  UNL     1      28.814  -1.537  53.263  1.00  0.00    -0.051 Br
HETATM   14  C12 UNL     1      27.107   0.385  51.961  1.00  0.00     0.022 A 
HETATM   15  C13 UNL     1      25.886   1.060  51.812  1.00  0.00     0.040 A 
HETATM   16  C14 UNL     1      24.753   0.867  52.595  1.00  0.00     0.096 A 
HETATM   17  O2  UNL     1      23.829   1.767  52.043  1.00  0.00    -0.335 OA
HETATM   18  C15 UNL     1      22.613   1.403  51.444  1.00  0.00     0.209 C 
HETATM   19  H8  UNL     1      24.063  -0.865  55.541  1.00  0.00     0.166 HD
ENDROOT
BRANCH  18  20
HETATM   20  C16 UNL     1      22.691   1.924  49.986  1.00  0.00     0.203 C 
BRANCH  20  21
HETATM   21  O3  UNL     1      23.389   3.090  49.869  1.00  0.00    -0.398 OA
HETATM   22  H15 UNL     1      24.151   3.227  50.446  1.00  0.00     0.209 HD
ENDBRANCH  20  21
ENDBRANCH  18  20
BRANCH   1  23
HETATM   23  O1  UNL     1      21.290   3.579  51.914  1.00  0.00    -0.357 OA
HETATM   24  C1  UNL     1      19.993   3.992  51.532  1.00  0.00     0.209 C 
ENDBRANCH   1  23
TORSDOF 3
ENDMDL
MODEL 4
REMARK VINA RESULT:      -7.5      2.480      4.790
REMARK  3 active torsions:
REMARK  status: ('A' for Active; 'I' for Inactive)
REMARK    1  A    between atoms: O1_2  and  C2_3 
REMARK    2  A    between atoms: C15_20  and  C16_21 
REMARK    3  A    between atoms: C16_21  and  O3_22 
ROOT
HETATM    1  C2  UNL     1      25.339  -0.323  53.740  1.00  0.00     0.079 C 
HETATM    2  C3  UNL     1      24.457  -1.169  54.210  1.00  0.00     0.066 C 
HETATM    3  C4  UNL     1      23.025  -0.800  54.448  1.00  0.00     0.061 A 
HETATM    4  C5  UNL     1      22.728  -0.225  53.254  1.00  0.00     0.061 A 
HETATM    5  C6  UNL     1      21.950   0.412  52.305  1.00  0.00     0.036 A 
HETATM    6  C7  UNL     1      20.758   0.500  53.044  1.00  0.00     0.049 A 
HETATM    7  C8  UNL     1      20.786  -0.031  54.334  1.00  0.00     0.119 A 
HETATM    8  N1  UNL     1      21.828  -0.603  54.918  1.00  0.00    -0.261 NA
HETATM    9  N2  UNL     1      22.054   0.950  51.007  1.00  0.00    -0.354 N 
HETATM   10  C9  UNL     1      23.133   1.806  50.693  1.00  0.00     0.067 A 
HETATM   11  C10 UNL     1      22.722   2.751  49.782  1.00  0.00     0.051 A 
HETATM   12  C11 UNL     1      23.469   3.791  49.204  1.00  0.00     0.013 A 
HETATM   13 BR1  UNL     1      22.795   5.040  47.958  1.00  0.00    -0.051 Br
HETATM   14  C12 UNL     1      24.803   3.837  49.639  1.00  0.00     0.022 A 
HETATM   15  C13 UNL     1      25.231   2.877  50.568  1.00  0.00     0.040 A 
HETATM   16  C14 UNL     1      24.443   1.866  51.109  1.00  0.00     0.096 A 
HETATM   17  O2  UNL     1      25.330   1.197  51.966  1.00  0.00    -0.335 OA
HETATM   18  C15 UNL     1      25.177   1.092  53.357  1.00  0.00     0.209 C 
HETATM   19  H8  UNL     1      21.260   0.607  50.451  1.00  0.00     0.166 HD
ENDROOT
BRANCH  18  20
HETATM   20  C16 UNL     1      26.438   1.753  53.970  1.00  0.00     0.203 C 
BRANCH  20  21
HETATM   21  O3  UNL     1      26.854   1.151  55.122  1.00  0.00    -0.398 OA
HETATM   22  H15 UNL     1      27.396   1.663  55.735  1.00  0.00     0.209 HD
ENDBRANCH  20  21
ENDBRANCH  18  20
BRANCH   1  23
HETATM   23  O1  UNL     1      26.447  -1.137  53.714  1.00  0.00    -0.357 OA
HETATM   24  C1  UNL     1      26.781  -1.776  52.498  1.00  0.00     0.209 C 
ENDBRANCH   1  23
TORSDOF 3
ENDMDL
MODEL 5
REMARK VINA RESULT:      -7.4      2.563      4.120
REMARK  3 active torsions:
REMARK  status: ('A' for Active; 'I' for Inactive)
REMARK    1  A    between atoms: O1_2  and  C2_3 
REMARK    2  A    between atoms: C15_20  and  C16_21 
REMARK    3  A    between atoms: C16_21  and  O3_22 
ROOT
HETATM    1  C2  UNL     1      24.949   3.139  51.820  1.00  0.00     0.079 C 
HETATM    2  C3  UNL     1      26.107   2.596  52.102  1.00  0.00     0.066 C 
HETATM    3  C4  UNL     1      26.325   1.731  53.304  1.00  0.00     0.061 A 
HETATM    4  C5  UNL     1      25.278   0.876  53.173  1.00  0.00     0.061 A 
HETATM    5  C6  UNL     1      24.447  -0.179  53.499  1.00  0.00     0.036 A 
HETATM    6  C7  UNL     1      25.105  -0.607  54.664  1.00  0.00     0.049 A 
HETATM    7  C8  UNL     1      26.242   0.113  55.035  1.00  0.00     0.119 A 
HETATM    8  N1  UNL     1      26.748   1.154  54.391  1.00  0.00    -0.261 NA
HETATM    9  N2  UNL     1      23.265  -0.802  53.050  1.00  0.00    -0.354 N 
HETATM   10  C9  UNL     1      22.136  -0.011  52.741  1.00  0.00     0.067 A 
HETATM   11  C10 UNL     1      20.989  -0.703  53.049  1.00  0.00     0.051 A 
HETATM   12  C11 UNL     1      19.653  -0.293  52.904  1.00  0.00     0.013 A 
HETATM   13 BR1  UNL     1      18.147  -1.334  53.367  1.00  0.00    -0.051 Br
HETATM   14  C12 UNL     1      19.515   0.998  52.370  1.00  0.00     0.022 A 
HETATM   15  C13 UNL     1      20.680   1.713  52.051  1.00  0.00     0.040 A 
HETATM   16  C14 UNL     1      21.983   1.253  52.219  1.00  0.00     0.096 A 
HETATM   17  O2  UNL     1      22.759   2.327  51.759  1.00  0.00    -0.335 OA
HETATM   18  C15 UNL     1      23.667   3.056  52.543  1.00  0.00     0.209 C 
HETATM   19  H8  UNL     1      23.426  -1.817  53.021  1.00  0.00     0.166 HD
ENDROOT
BRANCH  18  20
HETATM   20  C16 UNL     1      23.166   4.522  52.513  1.00  0.00     0.203 C 
BRANCH  20  21
HETATM   21  O3  UNL     1      24.046   5.401  53.075  1.00  0.00    -0.398 OA
HETATM   22  H15 UNL     1      24.579   5.100  53.821  1.00  0.00     0.209 HD
ENDBRANCH  20  21
ENDBRANCH  18  20
BRANCH   1  23
HETATM   23  O1  UNL     1      25.282   3.803  50.663  1.00  0.00    -0.357 OA
HETATM   24  C1  UNL     1      26.398   3.347  49.925  1.00  0.00     0.209 C 
ENDBRANCH   1  23
TORSDOF 3
ENDMDL
MODEL 6
REMARK VINA RESULT:      -7.2      3.339      5.314
REMARK  3 active torsions:
REMARK  status: ('A' for Active; 'I' for Inactive)
REMARK    1  A    between atoms: O1_2  and  C2_3 
REMARK    2  A    between atoms: C15_20  and  C16_21 
REMARK    3  A    between atoms: C16_21  and  O3_22 
ROOT
HETATM    1  C2  UNL     1      22.317  -0.107  53.399  1.00  0.00     0.079 C 
HETATM    2  C3  UNL     1      23.396  -0.675  53.876  1.00  0.00     0.066 C 
HETATM    3  C4  UNL     1      24.751  -0.484  53.268  1.00  0.00     0.061 A 
HETATM    4  C5  UNL     1      24.778   0.870  53.174  1.00  0.00     0.061 A 
HETATM    5  C6  UNL     1      25.295   2.116  52.869  1.00  0.00     0.036 A 
HETATM    6  C7  UNL     1      26.533   1.703  52.351  1.00  0.00     0.049 A 
HETATM    7  C8  UNL     1      26.771   0.328  52.332  1.00  0.00     0.119 A 
HETATM    8  N1  UNL     1      25.939  -0.612  52.755  1.00  0.00    -0.261 NA
HETATM    9  N2  UNL     1      24.925   3.476  52.900  1.00  0.00    -0.354 N 
HETATM   10  C9  UNL     1      23.673   3.868  52.376  1.00  0.00     0.067 A 
HETATM   11  C10 UNL     1      23.778   5.122  51.821  1.00  0.00     0.051 A 
HETATM   12  C11 UNL     1      22.781   5.886  51.192  1.00  0.00     0.013 A 
HETATM   13 BR1  UNL     1      23.042   7.606  50.458  1.00  0.00    -0.051 Br
HETATM   14  C12 UNL     1      21.529   5.252  51.146  1.00  0.00     0.022 A 
HETATM   15  C13 UNL     1      21.412   3.973  51.710  1.00  0.00     0.040 A 
HETATM   16  C14 UNL     1      22.439   3.261  52.323  1.00  0.00     0.096 A 
HETATM   17  O2  UNL     1      21.811   2.067  52.707  1.00  0.00    -0.335 OA
HETATM   18  C15 UNL     1      22.159   0.790  52.239  1.00  0.00     0.209 C 
HETATM   19  H8  UNL     1      25.691   4.008  53.331  1.00  0.00     0.166 HD
ENDROOT
BRANCH  18  20
HETATM   20  C16 UNL     1      20.885   0.233  51.553  1.00  0.00     0.203 C 
BRANCH  20  21
HETATM   21  O3  UNL     1      19.736   0.552  52.216  1.00  0.00    -0.398 OA
HETATM   22  H15 UNL     1      19.601   1.470  52.481  1.00  0.00     0.209 HD
ENDBRANCH  20  21
ENDBRANCH  18  20
BRANCH   1  23
HETATM   23  O1  UNL     1      21.388  -0.591  54.289  1.00  0.00    -0.357 OA
HETATM   24  C1  UNL     1      21.398  -1.974  54.582  1.00  0.00     0.209 C 
ENDBRANCH   1  23
TORSDOF 3
ENDMDL
MODEL 7
REMARK VINA RESULT:      -6.9      3.149      4.628
REMARK  3 active torsions:
REMARK  status: ('A' for Active; 'I' for Inactive)
REMARK    1  A    between atoms: O1_2  and  C2_3 
REMARK    2  A    between atoms: C15_20  and  C16_21 
REMARK    3  A    between atoms: C16_21  and  O3_22 
ROOT
HETATM    1  C2  UNL     1      24.892   4.723  49.608  1.00  0.00     0.079 C 
HETATM    2  C3  UNL     1      24.060   5.350  48.814  1.00  0.00     0.066 C 
HETATM    3  C4  UNL     1      22.963   4.651  48.073  1.00  0.00     0.061 A 
HETATM    4  C5  UNL     1      22.404   3.945  49.090  1.00  0.00     0.061 A 
HETATM    5  C6  UNL     1      21.521   3.075  49.703  1.00  0.00     0.036 A 
HETATM    6  C7  UNL     1      20.751   2.738  48.577  1.00  0.00     0.049 A 
HETATM    7  C8  UNL     1      21.116   3.340  47.372  1.00  0.00     0.119 A 
HETATM    8  N1  UNL     1      22.117   4.190  47.199  1.00  0.00    -0.261 NA
HETATM    9  N2  UNL     1      21.274   2.499  50.965  1.00  0.00    -0.354 N 
HETATM   10  C9  UNL     1      22.341   1.921  51.688  1.00  0.00     0.067 A 
HETATM   11  C10 UNL     1      21.880   0.848  52.413  1.00  0.00     0.051 A 
HETATM   12  C11 UNL     1      22.600  -0.007  53.264  1.00  0.00     0.013 A 
HETATM   13 BR1  UNL     1      21.857  -1.461  54.213  1.00  0.00    -0.051 Br
HETATM   14  C12 UNL     1      23.964   0.310  53.359  1.00  0.00     0.022 A 
HETATM   15  C13 UNL     1      24.444   1.404  52.623  1.00  0.00     0.040 A 
HETATM   16  C14 UNL     1      23.681   2.218  51.792  1.00  0.00     0.096 A 
HETATM   17  O2  UNL     1      24.618   3.140  51.304  1.00  0.00    -0.335 OA
HETATM   18  C15 UNL     1      24.968   3.292  49.954  1.00  0.00     0.209 C 
HETATM   19  H8  UNL     1      20.271   2.596  51.172  1.00  0.00     0.166 HD
ENDROOT
BRANCH  18  20
HETATM   20  C16 UNL     1      26.490   3.007  49.878  1.00  0.00     0.203 C 
BRANCH  20  21
HETATM   21  O3  UNL     1      27.161   3.376  51.008  1.00  0.00    -0.398 OA
HETATM   22  H15 UNL     1      27.655   4.205  50.995  1.00  0.00     0.209 HD
ENDBRANCH  20  21
ENDBRANCH  18  20
BRANCH   1  23
HETATM   23  O1  UNL     1      25.664   5.785  50.016  1.00  0.00    -0.357 OA
HETATM   24  C1  UNL     1      25.014   6.924  50.544  1.00  0.00     0.209 C 
ENDBRANCH   1  23
TORSDOF 3
ENDMDL
MODEL 8
REMARK VINA RESULT:      -6.8      3.272      5.946
REMARK  3 active torsions:
REMARK  status: ('A' for Active; 'I' for Inactive)
REMARK    1  A    between atoms: O1_2  and  C2_3 
REMARK    2  A    between atoms: C15_20  and  C16_21 
REMARK    3  A    between atoms: C16_21  and  O3_22 
ROOT
HETATM    1  C2  UNL     1      22.329   4.060  51.515  1.00  0.00     0.079 C 
HETATM    2  C3  UNL     1      21.115   3.964  51.998  1.00  0.00     0.066 C 
HETATM    3  C4  UNL     1      20.353   2.675  52.026  1.00  0.00     0.061 A 
HETATM    4  C5  UNL     1      21.285   1.862  52.584  1.00  0.00     0.061 A 
HETATM    5  C6  UNL     1      21.819   0.685  53.077  1.00  0.00     0.036 A 
HETATM    6  C7  UNL     1      20.709  -0.149  52.862  1.00  0.00     0.049 A 
HETATM    7  C8  UNL     1      19.586   0.448  52.289  1.00  0.00     0.119 A 
HETATM    8  N1  UNL     1      19.476   1.719  51.932  1.00  0.00    -0.261 NA
HETATM    9  N2  UNL     1      23.024   0.186  53.611  1.00  0.00    -0.354 N 
HETATM   10  C9  UNL     1      24.243   0.461  52.953  1.00  0.00     0.067 A 
HETATM   11  C10 UNL     1      25.102  -0.602  53.108  1.00  0.00     0.051 A 
HETATM   12  C11 UNL     1      26.410  -0.749  52.618  1.00  0.00     0.013 A 
HETATM   13 BR1  UNL     1      27.502  -2.265  52.894  1.00  0.00    -0.051 Br
HETATM   14  C12 UNL     1      26.862   0.356  51.880  1.00  0.00     0.022 A 
HETATM   15  C13 UNL     1      25.994   1.445  51.715  1.00  0.00     0.040 A 
HETATM   16  C14 UNL     1      24.702   1.535  52.225  1.00  0.00     0.096 A 
HETATM   17  O2  UNL     1      24.275   2.797  51.785  1.00  0.00    -0.335 OA
HETATM   18  C15 UNL     1      23.192   3.022  50.922  1.00  0.00     0.209 C 
HETATM   19  H8  UNL     1      22.803  -0.346  54.462  1.00  0.00     0.166 HD
ENDROOT
BRANCH  18  20
HETATM   20  C16 UNL     1      23.784   3.743  49.684  1.00  0.00     0.203 C 
BRANCH  20  21
HETATM   21  O3  UNL     1      24.797   4.602  49.996  1.00  0.00    -0.398 OA
HETATM   22  H15 UNL     1      25.685   4.395  49.679  1.00  0.00     0.209 HD
ENDBRANCH  20  21
ENDBRANCH  18  20
BRANCH   1  23
HETATM   23  O1  UNL     1      22.553   5.400  51.723  1.00  0.00    -0.357 OA
HETATM   24  C1  UNL     1      21.650   6.328  51.156  1.00  0.00     0.209 C 
ENDBRANCH   1  23
TORSDOF 3
ENDMDL
MODEL 9
REMARK VINA RESULT:      -6.8      3.681      5.850
REMARK  3 active torsions:
REMARK  status: ('A' for Active; 'I' for Inactive)
REMARK    1  A    between atoms: O1_2  and  C2_3 
REMARK    2  A    between atoms: C15_20  and  C16_21 
REMARK    3  A    between atoms: C16_21  and  O3_22 
ROOT
HETATM    1  C2  UNL     1      22.963   4.921  50.461  1.00  0.00     0.079 C 
HETATM    2  C3  UNL     1      23.262   5.442  49.297  1.00  0.00     0.066 C 
HETATM    3  C4  UNL     1      24.658   5.831  48.917  1.00  0.00     0.061 A 
HETATM    4  C5  UNL     1      25.320   4.696  49.255  1.00  0.00     0.061 A 
HETATM    5  C6  UNL     1      26.404   3.852  49.412  1.00  0.00     0.036 A 
HETATM    6  C7  UNL     1      27.402   4.705  48.913  1.00  0.00     0.049 A 
HETATM    7  C8  UNL     1      26.984   5.966  48.484  1.00  0.00     0.119 A 
HETATM    8  N1  UNL     1      25.741   6.423  48.507  1.00  0.00    -0.261 NA
HETATM    9  N2  UNL     1      26.712   2.571  49.913  1.00  0.00    -0.354 N 
HETATM   10  C9  UNL     1      26.232   2.187  51.184  1.00  0.00     0.067 A 
HETATM   11  C10 UNL     1      27.145   1.358  51.792  1.00  0.00     0.051 A 
HETATM   12  C11 UNL     1      27.070   0.750  53.056  1.00  0.00     0.013 A 
HETATM   13 BR1  UNL     1      28.394  -0.376  53.794  1.00  0.00    -0.051 Br
HETATM   14  C12 UNL     1      25.893   1.055  53.758  1.00  0.00     0.022 A 
HETATM   15  C13 UNL     1      24.955   1.900  53.147  1.00  0.00     0.040 A 
HETATM   16  C14 UNL     1      25.084   2.476  51.887  1.00  0.00     0.096 A 
HETATM   17  O2  UNL     1      23.900   3.216  51.754  1.00  0.00    -0.335 OA
HETATM   18  C15 UNL     1      23.837   4.610  51.607  1.00  0.00     0.209 C 
HETATM   19  H8  UNL     1      27.289   2.083  49.216  1.00  0.00     0.166 HD
ENDROOT
BRANCH  18  20
HETATM   20  C16 UNL     1      23.007   5.122  52.812  1.00  0.00     0.203 C 
BRANCH  20  21
HETATM   21  O3  UNL     1      23.778   5.515  53.867  1.00  0.00    -0.398 OA
HETATM   22  H15 UNL     1      23.677   5.047  54.706  1.00  0.00     0.209 HD
ENDBRANCH  20  21
ENDBRANCH  18  20
BRANCH   1  23
HETATM   23  O1  UNL     1      21.608   4.756  50.297  1.00  0.00    -0.357 OA
HETATM   24  C1  UNL     1      21.155   3.946  49.231  1.00  0.00     0.209 C 
ENDBRANCH   1  23
TORSDOF 3
ENDMDL
