MODEL 1
REMARK VINA RESULT:      -8.3      0.000      0.000
REMARK  6 active torsions:
REMARK  status: ('A' for Active; 'I' for Inactive)
REMARK    1  A    between atoms: O1_2  and  C2_3 
REMARK    2  A    between atoms: C5_6  and  N1_7 
REMARK    3  A    between atoms: N1_7  and  C6_8 
REMARK    4  A    between atoms: C10_15  and  C11_16 
REMARK    5  A    between atoms: C11_16  and  N5_17 
REMARK    6  A    between atoms: C14_20  and  O2_21 
ROOT
HETATM    1  C6  UNL     1      21.721   0.687  51.683  1.00  0.00     0.159 A 
HETATM    2  N2  UNL     1      20.432   0.713  51.329  1.00  0.00    -0.220 NA
HETATM    3  C7  UNL     1      19.419   0.161  51.987  1.00  0.00     0.258 A 
HETATM    4  N3  UNL     1      19.773  -0.489  53.135  1.00  0.00    -0.161 NA
HETATM    5  N4  UNL     1      21.035  -0.540  53.524  1.00  0.00    -0.240 N 
HETATM    6  C8  UNL     1      21.507  -1.145  54.625  1.00  0.00     0.119 A 
HETATM    7  C9  UNL     1      22.871  -0.953  54.639  1.00  0.00     0.030 A 
HETATM    8  C10 UNL     1      23.223  -0.204  53.504  1.00  0.00     0.004 A 
HETATM    9  C17 UNL     1      22.042   0.029  52.839  1.00  0.00     0.112 A 
ENDROOT
BRANCH   1  10
HETATM   10  N1  UNL     1      22.702   1.311  50.881  1.00  0.00    -0.339 N 
HETATM   11  H6  UNL     1      23.311   1.029  50.106  1.00  0.00     0.167 HD
BRANCH  10  12
HETATM   12  C5  UNL     1      23.089   2.676  51.007  1.00  0.00     0.035 A 
HETATM   13  C4  UNL     1      22.654   3.635  51.934  1.00  0.00     0.032 A 
HETATM   14  C3  UNL     1      23.074   4.919  52.017  1.00  0.00     0.041 A 
HETATM   15  C2  UNL     1      24.009   5.373  51.136  1.00  0.00     0.090 A 
HETATM   16  C19 UNL     1      24.486   4.471  50.184  1.00  0.00     0.069 A 
HETATM   17  C18 UNL     1      24.034   3.180  50.136  1.00  0.00     0.056 A 
HETATM   18 CL1  UNL     1      25.689   5.167  49.098  1.00  0.00    -0.081 Cl
BRANCH  15  19
HETATM   19  O1  UNL     1      24.436   6.682  51.222  1.00  0.00    -0.354 OA
HETATM   20  C1  UNL     1      23.608   7.736  50.828  1.00  0.00     0.210 C 
ENDBRANCH  15  19
ENDBRANCH  10  12
ENDBRANCH   1  10
BRANCH   8  21
HETATM   21  C11 UNL     1      24.590   0.213  53.182  1.00  0.00     0.313 C 
BRANCH  21  22
HETATM   22  N5  UNL     1      25.608  -0.493  53.932  1.00  0.00     0.092 N 
HETATM   23  C12 UNL     1      26.449  -1.199  53.020  1.00  0.00     0.275 C 
HETATM   24  C13 UNL     1      27.473  -0.268  52.412  1.00  0.00     0.062 C 
HETATM   25  C14 UNL     1      28.446   0.119  53.477  1.00  0.00     0.121 C 
HETATM   26  C15 UNL     1      27.807   0.216  54.818  1.00  0.00     0.062 C 
HETATM   27  C16 UNL     1      26.327   0.374  54.828  1.00  0.00     0.275 C 
BRANCH  25  28
HETATM   28  O2  UNL     1      29.160   1.285  53.134  1.00  0.00    -0.395 OA
HETATM   29  H17 UNL     1      28.491   1.916  52.761  1.00  0.00     0.210 HD
ENDBRANCH  25  28
ENDBRANCH  21  22
ENDBRANCH   8  21
TORSDOF 6
ENDMDL
MODEL 2
REMARK VINA RESULT:      -8.3      2.330      3.268
REMARK  6 active torsions:
REMARK  status: ('A' for Active; 'I' for Inactive)
REMARK    1  A    between atoms: O1_2  and  C2_3 
REMARK    2  A    between atoms: C5_6  and  N1_7 
REMARK    3  A    between atoms: N1_7  and  C6_8 
REMARK    4  A    between atoms: C10_15  and  C11_16 
REMARK    5  A    between atoms: C11_16  and  N5_17 
REMARK    6  A    between atoms: C14_20  and  O2_21 
ROOT
HETATM    1  C6  UNL     1      23.936   2.706  50.961  1.00  0.00     0.159 A 
HETATM    2  N2  UNL     1      23.199   3.004  49.886  1.00  0.00    -0.220 NA
HETATM    3  C7  UNL     1      22.108   2.367  49.473  1.00  0.00     0.258 A 
HETATM    4  N3  UNL     1      21.738   1.309  50.253  1.00  0.00    -0.161 NA
HETATM    5  N4  UNL     1      22.436   0.979  51.325  1.00  0.00    -0.240 N 
HETATM    6  C8  UNL     1      22.176  -0.034  52.166  1.00  0.00     0.119 A 
HETATM    7  C9  UNL     1      23.153  -0.014  53.138  1.00  0.00     0.030 A 
HETATM    8  C10 UNL     1      24.026   1.051  52.863  1.00  0.00     0.004 A 
HETATM    9  C17 UNL     1      23.537   1.641  51.721  1.00  0.00     0.112 A 
ENDROOT
BRANCH   1  10
HETATM   10  N1  UNL     1      25.084   3.464  51.280  1.00  0.00    -0.339 N 
HETATM   11  H6  UNL     1      25.665   3.610  52.113  1.00  0.00     0.167 HD
BRANCH  10  12
HETATM   12  C5  UNL     1      25.775   4.299  50.355  1.00  0.00     0.035 A 
HETATM   13  C4  UNL     1      26.855   3.983  49.519  1.00  0.00     0.032 A 
HETATM   14  C3  UNL     1      27.462   4.818  48.641  1.00  0.00     0.041 A 
HETATM   15  C2  UNL     1      27.015   6.099  48.523  1.00  0.00     0.090 A 
HETATM   16  C19 UNL     1      25.940   6.481  49.327  1.00  0.00     0.069 A 
HETATM   17  C18 UNL     1      25.356   5.605  50.200  1.00  0.00     0.056 A 
HETATM   18 CL1  UNL     1      25.448   8.159  49.090  1.00  0.00    -0.081 Cl
BRANCH  15  19
HETATM   19  O1  UNL     1      27.633   6.948  47.628  1.00  0.00    -0.354 OA
HETATM   20  C1  UNL     1      29.022   6.943  47.474  1.00  0.00     0.210 C 
ENDBRANCH  15  19
ENDBRANCH  10  12
ENDBRANCH   1  10
BRANCH   8  21
HETATM   21  C11 UNL     1      25.185   1.401  53.688  1.00  0.00     0.313 C 
BRANCH  21  22
HETATM   22  N5  UNL     1      26.289   0.470  53.568  1.00  0.00     0.092 N 
HETATM   23  C12 UNL     1      27.151   0.908  52.518  1.00  0.00     0.275 C 
HETATM   24  C13 UNL     1      28.068   2.007  53.007  1.00  0.00     0.062 C 
HETATM   25  C14 UNL     1      29.044   1.411  53.967  1.00  0.00     0.121 C 
HETATM   26  C15 UNL     1      28.451   0.298  54.759  1.00  0.00     0.062 C 
HETATM   27  C16 UNL     1      26.964   0.259  54.821  1.00  0.00     0.275 C 
BRANCH  25  28
HETATM   28  O2  UNL     1      29.641   2.394  54.783  1.00  0.00    -0.395 OA
HETATM   29  H17 UNL     1      29.041   2.502  55.566  1.00  0.00     0.210 HD
ENDBRANCH  25  28
ENDBRANCH  21  22
ENDBRANCH   8  21
TORSDOF 6
ENDMDL
MODEL 3
REMARK VINA RESULT:      -8.1      1.491      1.942
REMARK  6 active torsions:
REMARK  status: ('A' for Active; 'I' for Inactive)
REMARK    1  A    between atoms: O1_2  and  C2_3 
REMARK    2  A    between atoms: C5_6  and  N1_7 
REMARK    3  A    between atoms: N1_7  and  C6_8 
REMARK    4  A    between atoms: C10_15  and  C11_16 
REMARK    5  A    between atoms: C11_16  and  N5_17 
REMARK    6  A    between atoms: C14_20  and  O2_21 
ROOT
HETATM    1  C6  UNL     1      23.463   1.788  50.889  1.00  0.00     0.159 A 
HETATM    2  N2  UNL     1      22.572   1.786  49.892  1.00  0.00    -0.220 NA
HETATM    3  C7  UNL     1      21.439   1.093  49.845  1.00  0.00     0.258 A 
HETATM    4  N3  UNL     1      21.200   0.318  50.943  1.00  0.00    -0.161 NA
HETATM    5  N4  UNL     1      22.052   0.289  51.952  1.00  0.00    -0.240 N 
HETATM    6  C8  UNL     1      21.931  -0.428  53.079  1.00  0.00     0.119 A 
HETATM    7  C9  UNL     1      23.041  -0.161  53.852  1.00  0.00     0.030 A 
HETATM    8  C10 UNL     1      23.852   0.751  53.156  1.00  0.00     0.004 A 
HETATM    9  C17 UNL     1      23.193   1.001  51.976  1.00  0.00     0.112 A 
ENDROOT
BRANCH   1  10
HETATM   10  N1  UNL     1      24.637   2.568  50.805  1.00  0.00    -0.339 N 
HETATM   11  H6  UNL     1      25.647   2.387  50.817  1.00  0.00     0.167 HD
BRANCH  10  12
HETATM   12  C5  UNL     1      24.647   3.984  50.650  1.00  0.00     0.035 A 
HETATM   13  C4  UNL     1      23.839   4.946  51.274  1.00  0.00     0.032 A 
HETATM   14  C3  UNL     1      23.908   6.287  51.099  1.00  0.00     0.041 A 
HETATM   15  C2  UNL     1      24.837   6.801  50.246  1.00  0.00     0.090 A 
HETATM   16  C19 UNL     1      25.676   5.899  49.590  1.00  0.00     0.069 A 
HETATM   17  C18 UNL     1      25.572   4.551  49.796  1.00  0.00     0.056 A 
HETATM   18 CL1  UNL     1      26.836   6.676  48.511  1.00  0.00    -0.081 Cl
BRANCH  15  19
HETATM   19  O1  UNL     1      24.906   8.168  50.070  1.00  0.00    -0.354 OA
HETATM   20  C1  UNL     1      24.074   8.818  49.155  1.00  0.00     0.210 C 
ENDBRANCH  15  19
ENDBRANCH  10  12
ENDBRANCH   1  10
BRANCH   8  21
HETATM   21  C11 UNL     1      25.117   1.285  53.666  1.00  0.00     0.313 C 
BRANCH  21  22
HETATM   22  N5  UNL     1      26.222   0.354  53.578  1.00  0.00     0.092 N 
HETATM   23  C12 UNL     1      27.084   0.758  52.513  1.00  0.00     0.275 C 
HETATM   24  C13 UNL     1      27.998   1.875  52.964  1.00  0.00     0.062 C 
HETATM   25  C14 UNL     1      28.976   1.315  53.944  1.00  0.00     0.121 C 
HETATM   26  C15 UNL     1      28.386   0.227  54.772  1.00  0.00     0.062 C 
HETATM   27  C16 UNL     1      26.899   0.186  54.837  1.00  0.00     0.275 C 
BRANCH  25  28
HETATM   28  O2  UNL     1      29.570   2.326  54.726  1.00  0.00    -0.395 OA
HETATM   29  H17 UNL     1      28.895   2.578  55.408  1.00  0.00     0.210 HD
ENDBRANCH  25  28
ENDBRANCH  21  22
ENDBRANCH   8  21
TORSDOF 6
ENDMDL
MODEL 4
REMARK VINA RESULT:      -8.0      2.962      6.632
REMARK  6 active torsions:
REMARK  status: ('A' for Active; 'I' for Inactive)
REMARK    1  A    between atoms: O1_2  and  C2_3 
REMARK    2  A    between atoms: C5_6  and  N1_7 
REMARK    3  A    between atoms: N1_7  and  C6_8 
REMARK    4  A    between atoms: C10_15  and  C11_16 
REMARK    5  A    between atoms: C11_16  and  N5_17 
REMARK    6  A    between atoms: C14_20  and  O2_21 
ROOT
HETATM    1  C6  UNL     1      24.604   3.161  51.360  1.00  0.00     0.159 A 
HETATM    2  N2  UNL     1      25.734   3.566  50.771  1.00  0.00    -0.220 NA
HETATM    3  C7  UNL     1      25.836   4.229  49.624  1.00  0.00     0.258 A 
HETATM    4  N3  UNL     1      24.643   4.505  49.019  1.00  0.00    -0.161 NA
HETATM    5  N4  UNL     1      23.501   4.126  49.565  1.00  0.00    -0.240 N 
HETATM    6  C8  UNL     1      22.272   4.335  49.071  1.00  0.00     0.119 A 
HETATM    7  C9  UNL     1      21.378   3.774  49.957  1.00  0.00     0.030 A 
HETATM    8  C10 UNL     1      22.105   3.210  51.019  1.00  0.00     0.004 A 
HETATM    9  C17 UNL     1      23.426   3.455  50.728  1.00  0.00     0.112 A 
ENDROOT
BRANCH   1  10
HETATM   10  N1  UNL     1      24.641   2.452  52.580  1.00  0.00    -0.339 N 
HETATM   11  H6  UNL     1      24.030   2.358  53.399  1.00  0.00     0.167 HD
BRANCH  10  12
HETATM   12  C5  UNL     1      25.700   1.581  52.968  1.00  0.00     0.035 A 
HETATM   13  C4  UNL     1      26.765   1.824  53.848  1.00  0.00     0.032 A 
HETATM   14  C3  UNL     1      27.736   0.945  54.193  1.00  0.00     0.041 A 
HETATM   15  C2  UNL     1      27.720  -0.309  53.662  1.00  0.00     0.090 A 
HETATM   16  C19 UNL     1      26.686  -0.619  52.778  1.00  0.00     0.069 A 
HETATM   17  C18 UNL     1      25.725   0.299  52.456  1.00  0.00     0.056 A 
HETATM   18 CL1  UNL     1      26.767  -2.267  52.153  1.00  0.00    -0.081 Cl
BRANCH  15  19
HETATM   19  O1  UNL     1      28.710  -1.202  54.016  1.00  0.00    -0.354 OA
HETATM   20  C1  UNL     1      30.037  -0.995  53.632  1.00  0.00     0.210 C 
ENDBRANCH  15  19
ENDBRANCH  10  12
ENDBRANCH   1  10
BRANCH   8  21
HETATM   21  C11 UNL     1      21.497   2.534  52.167  1.00  0.00     0.313 C 
BRANCH  21  22
HETATM   22  N5  UNL     1      20.847   1.284  51.832  1.00  0.00     0.092 N 
HETATM   23  C12 UNL     1      21.834   0.255  51.754  1.00  0.00     0.275 C 
HETATM   24  C13 UNL     1      22.189  -0.245  53.136  1.00  0.00     0.062 C 
HETATM   25  C14 UNL     1      21.018  -0.995  53.680  1.00  0.00     0.121 C 
HETATM   26  C15 UNL     1      19.720  -0.426  53.221  1.00  0.00     0.062 C 
HETATM   27  C16 UNL     1      19.759   0.976  52.723  1.00  0.00     0.275 C 
BRANCH  25  28
HETATM   28  O2  UNL     1      21.084  -1.123  55.082  1.00  0.00    -0.395 OA
HETATM   29  H17 UNL     1      21.011  -0.202  55.446  1.00  0.00     0.210 HD
ENDBRANCH  25  28
ENDBRANCH  21  22
ENDBRANCH   8  21
TORSDOF 6
ENDMDL
MODEL 5
REMARK VINA RESULT:      -7.9      2.086      5.137
REMARK  6 active torsions:
REMARK  status: ('A' for Active; 'I' for Inactive)
REMARK    1  A    between atoms: O1_2  and  C2_3 
REMARK    2  A    between atoms: C5_6  and  N1_7 
REMARK    3  A    between atoms: N1_7  and  C6_8 
REMARK    4  A    between atoms: C10_15  and  C11_16 
REMARK    5  A    between atoms: C11_16  and  N5_17 
REMARK    6  A    between atoms: C14_20  and  O2_21 
ROOT
HETATM    1  C6  UNL     1      24.921   0.390  53.083  1.00  0.00     0.159 A 
HETATM    2  N2  UNL     1      26.131   0.441  53.648  1.00  0.00    -0.220 NA
HETATM    3  C7  UNL     1      26.487  -0.101  54.808  1.00  0.00     0.258 A 
HETATM    4  N3  UNL     1      25.486  -0.767  55.455  1.00  0.00    -0.161 NA
HETATM    5  N4  UNL     1      24.274  -0.844  54.934  1.00  0.00    -0.240 N 
HETATM    6  C8  UNL     1      23.213  -1.465  55.470  1.00  0.00     0.119 A 
HETATM    7  C9  UNL     1      22.160  -1.295  54.597  1.00  0.00     0.030 A 
HETATM    8  C10 UNL     1      22.614  -0.544  53.500  1.00  0.00     0.004 A 
HETATM    9  C17 UNL     1      23.940  -0.286  53.757  1.00  0.00     0.112 A 
ENDROOT
BRANCH   1  10
HETATM   10  N1  UNL     1      24.676   1.022  51.845  1.00  0.00    -0.339 N 
HETATM   11  H6  UNL     1      24.731   0.756  50.856  1.00  0.00     0.167 HD
BRANCH  10  12
HETATM   12  C5  UNL     1      24.221   2.366  51.708  1.00  0.00     0.035 A 
HETATM   13  C4  UNL     1      23.981   3.322  52.706  1.00  0.00     0.032 A 
HETATM   14  C3  UNL     1      23.565   4.596  52.512  1.00  0.00     0.041 A 
HETATM   15  C2  UNL     1      23.345   5.040  51.244  1.00  0.00     0.090 A 
HETATM   16  C19 UNL     1      23.564   4.139  50.201  1.00  0.00     0.069 A 
HETATM   17  C18 UNL     1      23.985   2.860  50.441  1.00  0.00     0.056 A 
HETATM   18 CL1  UNL     1      23.247   4.822  48.605  1.00  0.00    -0.081 Cl
BRANCH  15  19
HETATM   19  O1  UNL     1      22.921   6.338  51.049  1.00  0.00    -0.354 OA
HETATM   20  C1  UNL     1      23.836   7.393  50.996  1.00  0.00     0.210 C 
ENDBRANCH  15  19
ENDBRANCH  10  12
ENDBRANCH   1  10
BRANCH   8  21
HETATM   21  C11 UNL     1      21.782  -0.172  52.354  1.00  0.00     0.313 C 
BRANCH  21  22
HETATM   22  N5  UNL     1      20.546   0.488  52.719  1.00  0.00     0.092 N 
HETATM   23  C12 UNL     1      20.617   1.857  52.318  1.00  0.00     0.275 C 
HETATM   24  C13 UNL     1      20.312   1.995  50.844  1.00  0.00     0.062 C 
HETATM   25  C14 UNL     1      18.863   1.697  50.634  1.00  0.00     0.121 C 
HETATM   26  C15 UNL     1      18.357   0.663  51.579  1.00  0.00     0.062 C 
HETATM   27  C16 UNL     1      19.388  -0.202  52.217  1.00  0.00     0.275 C 
BRANCH  25  28
HETATM   28  O2  UNL     1      18.583   1.382  49.289  1.00  0.00    -0.395 OA
HETATM   29  H17 UNL     1      19.006   0.500  49.120  1.00  0.00     0.210 HD
ENDBRANCH  25  28
ENDBRANCH  21  22
ENDBRANCH   8  21
TORSDOF 6
ENDMDL
MODEL 6
REMARK VINA RESULT:      -7.8      2.713      5.419
REMARK  6 active torsions:
REMARK  status: ('A' for Active; 'I' for Inactive)
REMARK    1  A    between atoms: O1_2  and  C2_3 
REMARK    2  A    between atoms: C5_6  and  N1_7 
REMARK    3  A    between atoms: N1_7  and  C6_8 
REMARK    4  A    between atoms: C10_15  and  C11_16 
REMARK    5  A    between atoms: C11_16  and  N5_17 
REMARK    6  A    between atoms: C14_20  and  O2_21 
ROOT
HETATM    1  C6  UNL     1      26.701   1.901  52.194  1.00  0.00     0.159 A 
HETATM    2  N2  UNL     1      27.902   2.434  52.440  1.00  0.00    -0.220 NA
HETATM    3  C7  UNL     1      28.655   2.227  53.514  1.00  0.00     0.258 A 
HETATM    4  N3  UNL     1      28.111   1.378  54.435  1.00  0.00    -0.161 NA
HETATM    5  N4  UNL     1      26.927   0.827  54.234  1.00  0.00    -0.240 N 
HETATM    6  C8  UNL     1      26.289  -0.017  55.059  1.00  0.00     0.119 A 
HETATM    7  C9  UNL     1      25.091  -0.341  54.460  1.00  0.00     0.030 A 
HETATM    8  C10 UNL     1      25.015   0.337  53.232  1.00  0.00     0.004 A 
HETATM    9  C17 UNL     1      26.184   1.053  53.136  1.00  0.00     0.112 A 
ENDROOT
BRANCH   1  10
HETATM   10  N1  UNL     1      26.001   2.216  51.009  1.00  0.00    -0.339 N 
HETATM   11  H6  UNL     1      25.391   1.714  50.355  1.00  0.00     0.167 HD
BRANCH  10  12
HETATM   12  C5  UNL     1      25.996   3.505  50.402  1.00  0.00     0.035 A 
HETATM   13  C4  UNL     1      26.819   4.003  49.381  1.00  0.00     0.032 A 
HETATM   14  C3  UNL     1      26.755   5.238  48.828  1.00  0.00     0.041 A 
HETATM   15  C2  UNL     1      25.815   6.118  49.272  1.00  0.00     0.090 A 
HETATM   16  C19 UNL     1      24.960   5.688  50.288  1.00  0.00     0.069 A 
HETATM   17  C18 UNL     1      25.060   4.431  50.818  1.00  0.00     0.056 A 
HETATM   18 CL1  UNL     1      23.787   6.909  50.783  1.00  0.00    -0.081 Cl
BRANCH  15  19
HETATM   19  O1  UNL     1      25.750   7.375  48.708  1.00  0.00    -0.354 OA
HETATM   20  C1  UNL     1      25.103   7.583  47.487  1.00  0.00     0.210 C 
ENDBRANCH  15  19
ENDBRANCH  10  12
ENDBRANCH   1  10
BRANCH   8  21
HETATM   21  C11 UNL     1      23.890   0.231  52.300  1.00  0.00     0.313 C 
BRANCH  21  22
HETATM   22  N5  UNL     1      22.946   1.324  52.397  1.00  0.00     0.092 N 
HETATM   23  C12 UNL     1      22.485   1.656  51.087  1.00  0.00     0.275 C 
HETATM   24  C13 UNL     1      21.403   0.697  50.646  1.00  0.00     0.062 C 
HETATM   25  C14 UNL     1      20.182   0.957  51.467  1.00  0.00     0.121 C 
HETATM   26  C15 UNL     1      20.515   1.383  52.854  1.00  0.00     0.062 C 
HETATM   27  C16 UNL     1      21.886   1.051  53.331  1.00  0.00     0.275 C 
BRANCH  25  28
HETATM   28  O2  UNL     1      19.290  -0.134  51.437  1.00  0.00    -0.395 OA
HETATM   29  H17 UNL     1      19.585  -0.749  52.158  1.00  0.00     0.210 HD
ENDBRANCH  25  28
ENDBRANCH  21  22
ENDBRANCH   8  21
TORSDOF 6
ENDMDL
MODEL 7
REMARK VINA RESULT:      -7.8      2.186      5.811
REMARK  6 active torsions:
REMARK  status: ('A' for Active; 'I' for Inactive)
REMARK    1  A    between atoms: O1_2  and  C2_3 
REMARK    2  A    between atoms: C5_6  and  N1_7 
REMARK    3  A    between atoms: N1_7  and  C6_8 
REMARK    4  A    between atoms: C10_15  and  C11_16 
REMARK    5  A    between atoms: C11_16  and  N5_17 
REMARK    6  A    between atoms: C14_20  and  O2_21 
ROOT
HETATM    1  C6  UNL     1      22.793   1.260  52.737  1.00  0.00     0.159 A 
HETATM    2  N2  UNL     1      22.044   0.324  53.330  1.00  0.00    -0.220 NA
HETATM    3  C7  UNL     1      20.959  -0.256  52.829  1.00  0.00     0.258 A 
HETATM    4  N3  UNL     1      20.608   0.174  51.582  1.00  0.00    -0.161 NA
HETATM    5  N4  UNL     1      21.319   1.096  50.957  1.00  0.00    -0.240 N 
HETATM    6  C8  UNL     1      21.078   1.599  49.737  1.00  0.00     0.119 A 
HETATM    7  C9  UNL     1      22.062   2.530  49.481  1.00  0.00     0.030 A 
HETATM    8  C10 UNL     1      22.920   2.581  50.592  1.00  0.00     0.004 A 
HETATM    9  C17 UNL     1      22.415   1.668  51.487  1.00  0.00     0.112 A 
ENDROOT
BRANCH   1  10
HETATM   10  N1  UNL     1      23.921   1.802  53.391  1.00  0.00    -0.339 N 
HETATM   11  H6  UNL     1      24.110   2.617  53.983  1.00  0.00     0.167 HD
BRANCH  10  12
HETATM   12  C5  UNL     1      25.221   1.219  53.360  1.00  0.00     0.035 A 
HETATM   13  C4  UNL     1      25.585  -0.113  53.115  1.00  0.00     0.032 A 
HETATM   14  C3  UNL     1      26.846  -0.607  53.080  1.00  0.00     0.041 A 
HETATM   15  C2  UNL     1      27.896   0.233  53.296  1.00  0.00     0.090 A 
HETATM   16  C19 UNL     1      27.606   1.574  53.546  1.00  0.00     0.069 A 
HETATM   17  C18 UNL     1      26.317   2.031  53.573  1.00  0.00     0.056 A 
HETATM   18 CL1  UNL     1      29.041   2.566  53.812  1.00  0.00    -0.081 Cl
BRANCH  15  19
HETATM   19  O1  UNL     1      29.179  -0.272  53.259  1.00  0.00    -0.354 OA
HETATM   20  C1  UNL     1      29.418  -1.642  53.395  1.00  0.00     0.210 C 
ENDBRANCH  15  19
ENDBRANCH  10  12
ENDBRANCH   1  10
BRANCH   8  21
HETATM   21  C11 UNL     1      24.098   3.446  50.685  1.00  0.00     0.313 C 
BRANCH  21  22
HETATM   22  N5  UNL     1      24.825   3.580  49.439  1.00  0.00     0.092 N 
HETATM   23  C12 UNL     1      24.338   4.726  48.740  1.00  0.00     0.275 C 
HETATM   24  C13 UNL     1      24.959   5.989  49.293  1.00  0.00     0.062 C 
HETATM   25  C14 UNL     1      26.405   6.003  48.921  1.00  0.00     0.121 C 
HETATM   26  C15 UNL     1      26.993   4.635  48.887  1.00  0.00     0.062 C 
HETATM   27  C16 UNL     1      26.250   3.584  49.634  1.00  0.00     0.275 C 
BRANCH  25  28
HETATM   28  O2  UNL     1      27.145   6.888  49.731  1.00  0.00    -0.395 OA
HETATM   29  H17 UNL     1      27.938   6.379  50.041  1.00  0.00     0.210 HD
ENDBRANCH  25  28
ENDBRANCH  21  22
ENDBRANCH   8  21
TORSDOF 6
ENDMDL
MODEL 8
REMARK VINA RESULT:      -7.8      1.855      5.861
REMARK  6 active torsions:
REMARK  status: ('A' for Active; 'I' for Inactive)
REMARK    1  A    between atoms: O1_2  and  C2_3 
REMARK    2  A    between atoms: C5_6  and  N1_7 
REMARK    3  A    between atoms: N1_7  and  C6_8 
REMARK    4  A    between atoms: C10_15  and  C11_16 
REMARK    5  A    between atoms: C11_16  and  N5_17 
REMARK    6  A    between atoms: C14_20  and  O2_21 
ROOT
HETATM    1  C6  UNL     1      22.880   0.313  53.234  1.00  0.00     0.159 A 
HETATM    2  N2  UNL     1      23.013  -0.525  54.268  1.00  0.00    -0.220 NA
HETATM    3  C7  UNL     1      22.068  -1.306  54.780  1.00  0.00     0.258 A 
HETATM    4  N3  UNL     1      20.855  -1.213  54.159  1.00  0.00    -0.161 NA
HETATM    5  N4  UNL     1      20.678  -0.399  53.134  1.00  0.00    -0.240 N 
HETATM    6  C8  UNL     1      19.541  -0.217  52.446  1.00  0.00     0.119 A 
HETATM    7  C9  UNL     1      19.804   0.717  51.467  1.00  0.00     0.030 A 
HETATM    8  C10 UNL     1      21.149   1.105  51.579  1.00  0.00     0.004 A 
HETATM    9  C17 UNL     1      21.653   0.382  52.635  1.00  0.00     0.112 A 
ENDROOT
BRANCH   1  10
HETATM   10  N1  UNL     1      23.971   1.096  52.797  1.00  0.00    -0.339 N 
HETATM   11  H6  UNL     1      24.091   2.015  52.358  1.00  0.00     0.167 HD
BRANCH  10  12
HETATM   12  C5  UNL     1      25.336   0.702  52.911  1.00  0.00     0.035 A 
HETATM   13  C4  UNL     1      25.910  -0.561  52.706  1.00  0.00     0.032 A 
HETATM   14  C3  UNL     1      27.223  -0.872  52.812  1.00  0.00     0.041 A 
HETATM   15  C2  UNL     1      28.114   0.103  53.147  1.00  0.00     0.090 A 
HETATM   16  C19 UNL     1      27.610   1.386  53.365  1.00  0.00     0.069 A 
HETATM   17  C18 UNL     1      26.275   1.657  53.247  1.00  0.00     0.056 A 
HETATM   18 CL1  UNL     1      28.852   2.564  53.793  1.00  0.00    -0.081 Cl
BRANCH  15  19
HETATM   19  O1  UNL     1      29.452  -0.215  53.253  1.00  0.00    -0.354 OA
HETATM   20  C1  UNL     1      29.861  -1.418  53.835  1.00  0.00     0.210 C 
ENDBRANCH  15  19
ENDBRANCH  10  12
ENDBRANCH   1  10
BRANCH   8  21
HETATM   21  C11 UNL     1      21.803   2.076  50.699  1.00  0.00     0.313 C 
BRANCH  21  22
HETATM   22  N5  UNL     1      21.285   3.422  50.826  1.00  0.00     0.092 N 
HETATM   23  C12 UNL     1      21.484   3.870  52.167  1.00  0.00     0.275 C 
HETATM   24  C13 UNL     1      22.906   4.347  52.362  1.00  0.00     0.062 C 
HETATM   25  C14 UNL     1      23.085   5.615  51.594  1.00  0.00     0.121 C 
HETATM   26  C15 UNL     1      22.278   5.636  50.342  1.00  0.00     0.062 C 
HETATM   27  C16 UNL     1      21.824   4.313  49.833  1.00  0.00     0.275 C 
BRANCH  25  28
HETATM   28  O2  UNL     1      24.446   5.899  51.363  1.00  0.00    -0.395 OA
HETATM   29  H17 UNL     1      24.518   6.136  50.402  1.00  0.00     0.210 HD
ENDBRANCH  25  28
ENDBRANCH  21  22
ENDBRANCH   8  21
TORSDOF 6
ENDMDL
MODEL 9
REMARK VINA RESULT:      -7.6      3.135      4.475
REMARK  6 active torsions:
REMARK  status: ('A' for Active; 'I' for Inactive)
REMARK    1  A    between atoms: O1_2  and  C2_3 
REMARK    2  A    between atoms: C5_6  and  N1_7 
REMARK    3  A    between atoms: N1_7  and  C6_8 
REMARK    4  A    between atoms: C10_15  and  C11_16 
REMARK    5  A    between atoms: C11_16  and  N5_17 
REMARK    6  A    between atoms: C14_20  and  O2_21 
ROOT
HETATM    1  C6  UNL     1      23.557   4.031  49.381  1.00  0.00     0.159 A 
HETATM    2  N2  UNL     1      23.121   4.514  48.213  1.00  0.00    -0.220 NA
HETATM    3  C7  UNL     1      22.185   3.980  47.436  1.00  0.00     0.258 A 
HETATM    4  N3  UNL     1      21.639   2.824  47.916  1.00  0.00    -0.161 NA
HETATM    5  N4  UNL     1      22.038   2.311  49.066  1.00  0.00    -0.240 N 
HETATM    6  C8  UNL     1      21.582   1.187  49.640  1.00  0.00     0.119 A 
HETATM    7  C9  UNL     1      22.272   1.028  50.823  1.00  0.00     0.030 A 
HETATM    8  C10 UNL     1      23.172   2.098  50.956  1.00  0.00     0.004 A 
HETATM    9  C17 UNL     1      22.988   2.872  49.834  1.00  0.00     0.112 A 
ENDROOT
BRANCH   1  10
HETATM   10  N1  UNL     1      24.571   4.698  50.103  1.00  0.00    -0.339 N 
HETATM   11  H6  UNL     1      24.721   4.980  51.077  1.00  0.00     0.167 HD
BRANCH  10  12
HETATM   12  C5  UNL     1      25.784   5.174  49.525  1.00  0.00     0.035 A 
HETATM   13  C4  UNL     1      26.883   4.441  49.053  1.00  0.00     0.032 A 
HETATM   14  C3  UNL     1      28.006   4.951  48.494  1.00  0.00     0.041 A 
HETATM   15  C2  UNL     1      28.128   6.300  48.354  1.00  0.00     0.090 A 
HETATM   16  C19 UNL     1      27.069   7.091  48.804  1.00  0.00     0.069 A 
HETATM   17  C18 UNL     1      25.952   6.534  49.363  1.00  0.00     0.056 A 
HETATM   18 CL1  UNL     1      27.337   8.819  48.574  1.00  0.00    -0.081 Cl
BRANCH  15  19
HETATM   19  O1  UNL     1      29.272   6.817  47.784  1.00  0.00    -0.354 OA
HETATM   20  C1  UNL     1      30.451   6.942  48.523  1.00  0.00     0.210 C 
ENDBRANCH  15  19
ENDBRANCH  10  12
ENDBRANCH   1  10
BRANCH   8  21
HETATM   21  C11 UNL     1      24.071   2.282  52.097  1.00  0.00     0.313 C 
BRANCH  21  22
HETATM   22  N5  UNL     1      25.025   1.206  52.268  1.00  0.00     0.092 N 
HETATM   23  C12 UNL     1      26.157   1.454  51.433  1.00  0.00     0.275 C 
HETATM   24  C13 UNL     1      27.090   2.450  52.086  1.00  0.00     0.062 C 
HETATM   25  C14 UNL     1      27.727   1.792  53.266  1.00  0.00     0.121 C 
HETATM   26  C15 UNL     1      26.815   0.823  53.933  1.00  0.00     0.062 C 
HETATM   27  C16 UNL     1      25.363   0.987  53.649  1.00  0.00     0.275 C 
BRANCH  25  28
HETATM   28  O2  UNL     1      28.261   2.737  54.166  1.00  0.00    -0.395 OA
HETATM   29  H17 UNL     1      28.836   3.337  53.624  1.00  0.00     0.210 HD
ENDBRANCH  25  28
ENDBRANCH  21  22
ENDBRANCH   8  21
TORSDOF 6
ENDMDL
