MODEL 1
REMARK VINA RESULT:      -9.1      0.000      0.000
REMARK  3 active torsions:
REMARK  status: ('A' for Active; 'I' for Inactive)
REMARK    1  A    between atoms: C2_2  and  O1_3 
REMARK    2  A    between atoms: O1_3  and  C3_4 
REMARK    3  A    between atoms: C3_4  and  C4_5 
ROOT
HETATM    1  C1  UNL     1      25.899   2.519  51.070  1.00  0.00     0.079 C 
HETATM    2  C2  UNL     1      24.644   2.355  52.102  1.00  0.00     0.160 C 
HETATM    3  C8  UNL     1      24.380   0.914  51.932  1.00  0.00     0.075 C 
HETATM    4  C9  UNL     1      23.392   0.233  52.739  1.00  0.00     0.080 C 
HETATM    5  C10 UNL     1      23.018  -0.574  53.675  1.00  0.00     0.056 A 
HETATM    6 CL1  UNL     1      22.752  -1.694  54.972  1.00  0.00    -0.177 Cl
HETATM    7  C11 UNL     1      21.508  -0.767  53.626  1.00  0.00     0.138 A 
HETATM    8  F1  UNL     1      21.018  -0.295  52.462  1.00  0.00    -0.234 F 
HETATM    9  C12 UNL     1      20.143  -1.019  53.679  1.00  0.00     0.220 A 
HETATM   10  C13 UNL     1      18.578  -1.066  53.438  1.00  0.00     0.193 A 
HETATM   11  N1  UNL     1      19.201  -0.201  52.603  1.00  0.00    -0.351 N 
HETATM   12  C14 UNL     1      18.360   0.526  51.665  1.00  0.00     0.137 A 
HETATM   13  N2  UNL     1      17.570  -0.222  51.119  1.00  0.00    -0.224 NA
HETATM   14  C15 UNL     1      16.606   0.160  50.156  1.00  0.00     0.229 A 
HETATM   15  N3  UNL     1      16.860   1.344  50.130  1.00  0.00    -0.278 NA
HETATM   16  C16 UNL     1      17.622   2.402  50.607  1.00  0.00     0.194 A 
HETATM   17  C17 UNL     1      18.690   1.953  51.575  1.00  0.00     0.029 A 
HETATM   18  C18 UNL     1      19.062   3.134  51.574  1.00  0.00     0.147 C 
HETATM   19  O3  UNL     1      20.230   3.585  52.318  1.00  0.00    -0.360 OA
HETATM   20  C19 UNL     1      21.404   2.793  52.029  1.00  0.00     0.200 C 
HETATM   21  C20 UNL     1      22.626   3.684  51.840  1.00  0.00     0.198 C 
HETATM   22  O4  UNL     1      23.776   3.181  51.531  1.00  0.00    -0.353 OA
ENDROOT
BRANCH   2  23
HETATM   23  O1  UNL     1      25.083   2.820  53.288  1.00  0.00    -0.353 OA
BRANCH  23  24
HETATM   24  C3  UNL     1      25.993   2.276  54.072  1.00  0.00     0.203 C 
BRANCH  24  25
HETATM   25  C4  UNL     1      27.375   1.963  53.591  1.00  0.00     0.145 C 
HETATM   26  C5  UNL     1      27.650   0.516  54.072  1.00  0.00     0.036 C 
HETATM   27  C6  UNL     1      29.178   0.542  53.779  1.00  0.00     0.029 C 
HETATM   28  C7  UNL     1      29.449   1.856  54.505  1.00  0.00     0.168 C 
HETATM   29  O2  UNL     1      28.390   2.679  54.147  1.00  0.00    -0.384 OA
ENDBRANCH  24  25
ENDBRANCH  23  24
ENDBRANCH   2  23
TORSDOF 3
ENDMDL
MODEL 2
REMARK VINA RESULT:      -8.8      1.854      2.298
REMARK  3 active torsions:
REMARK  status: ('A' for Active; 'I' for Inactive)
REMARK    1  A    between atoms: C2_2  and  O1_3 
REMARK    2  A    between atoms: O1_3  and  C3_4 
REMARK    3  A    between atoms: C3_4  and  C4_5 
ROOT
HETATM    1  C1  UNL     1      23.823   2.906  49.822  1.00  0.00     0.079 C 
HETATM    2  C2  UNL     1      22.763   2.646  51.037  1.00  0.00     0.160 C 
HETATM    3  C8  UNL     1      22.506   1.209  50.827  1.00  0.00     0.075 C 
HETATM    4  C9  UNL     1      21.682   0.453  51.744  1.00  0.00     0.080 C 
HETATM    5  C10 UNL     1      21.488  -0.417  52.679  1.00  0.00     0.056 A 
HETATM    6 CL1  UNL     1      21.468  -1.615  53.933  1.00  0.00    -0.177 Cl
HETATM    7  C11 UNL     1      19.997  -0.654  52.871  1.00  0.00     0.138 A 
HETATM    8  F1  UNL     1      19.307  -0.134  51.834  1.00  0.00    -0.234 F 
HETATM    9  C12 UNL     1      18.665  -0.952  53.135  1.00  0.00     0.220 A 
HETATM   10  C13 UNL     1      17.083  -1.034  53.155  1.00  0.00     0.193 A 
HETATM   11  N1  UNL     1      17.538  -0.105  52.282  1.00  0.00    -0.351 N 
HETATM   12  C14 UNL     1      16.536   0.646  51.542  1.00  0.00     0.137 A 
HETATM   13  N2  UNL     1      15.682  -0.095  51.092  1.00  0.00    -0.224 NA
HETATM   14  C15 UNL     1      14.562   0.310  50.327  1.00  0.00     0.229 A 
HETATM   15  N3  UNL     1      14.782   1.501  50.330  1.00  0.00    -0.278 NA
HETATM   16  C16 UNL     1      15.590   2.554  50.737  1.00  0.00     0.194 A 
HETATM   17  C17 UNL     1      16.815   2.086  51.485  1.00  0.00     0.029 A 
HETATM   18  C18 UNL     1      17.156   3.276  51.493  1.00  0.00     0.147 C 
HETATM   19  O3  UNL     1      18.422   3.721  52.058  1.00  0.00    -0.360 OA
HETATM   20  C19 UNL     1      19.548   2.984  51.531  1.00  0.00     0.200 C 
HETATM   21  C20 UNL     1      20.701   3.923  51.195  1.00  0.00     0.198 C 
HETATM   22  O4  UNL     1      21.794   3.474  50.669  1.00  0.00    -0.353 OA
ENDROOT
BRANCH   2  23
HETATM   23  O1  UNL     1      23.385   3.057  52.158  1.00  0.00    -0.353 OA
BRANCH  23  24
HETATM   24  C3  UNL     1      24.684   3.104  52.381  1.00  0.00     0.203 C 
BRANCH  24  25
HETATM   25  C4  UNL     1      25.420   1.976  53.035  1.00  0.00     0.145 C 
HETATM   26  C5  UNL     1      26.235   1.314  51.896  1.00  0.00     0.036 C 
HETATM   27  C6  UNL     1      26.614   0.036  52.698  1.00  0.00     0.029 C 
HETATM   28  C7  UNL     1      25.196  -0.279  53.163  1.00  0.00     0.168 C 
HETATM   29  O2  UNL     1      24.663   0.953  53.517  1.00  0.00    -0.384 OA
ENDBRANCH  24  25
ENDBRANCH  23  24
ENDBRANCH   2  23
TORSDOF 3
ENDMDL
MODEL 3
REMARK VINA RESULT:      -8.6      3.550      5.850
REMARK  3 active torsions:
REMARK  status: ('A' for Active; 'I' for Inactive)
REMARK    1  A    between atoms: C2_2  and  O1_3 
REMARK    2  A    between atoms: O1_3  and  C3_4 
REMARK    3  A    between atoms: C3_4  and  C4_5 
ROOT
HETATM    1  C1  UNL     1      20.950   4.245  46.712  1.00  0.00     0.079 C 
HETATM    2  C2  UNL     1      21.575   4.340  48.217  1.00  0.00     0.160 C 
HETATM    3  C8  UNL     1      22.665   3.356  48.086  1.00  0.00     0.075 C 
HETATM    4  C9  UNL     1      23.615   3.143  49.156  1.00  0.00     0.080 C 
HETATM    5  C10 UNL     1      24.779   3.239  49.707  1.00  0.00     0.056 A 
HETATM    6 CL1  UNL     1      26.409   3.485  50.247  1.00  0.00    -0.177 Cl
HETATM    7  C11 UNL     1      24.819   2.418  50.989  1.00  0.00     0.138 A 
HETATM    8  F1  UNL     1      23.754   1.590  51.044  1.00  0.00    -0.234 F 
HETATM    9  C12 UNL     1      24.973   1.706  52.173  1.00  0.00     0.220 A 
HETATM   10  C13 UNL     1      24.782   0.795  53.455  1.00  0.00     0.193 A 
HETATM   11  N1  UNL     1      23.641   0.916  52.736  1.00  0.00    -0.351 N 
HETATM   12  C14 UNL     1      22.467   0.225  53.246  1.00  0.00     0.137 A 
HETATM   13  N2  UNL     1      22.741  -0.916  53.571  1.00  0.00    -0.224 NA
HETATM   14  C15 UNL     1      21.833  -1.858  54.110  1.00  0.00     0.229 A 
HETATM   15  N3  UNL     1      20.849  -1.153  54.116  1.00  0.00    -0.278 NA
HETATM   16  C16 UNL     1      20.277   0.085  53.852  1.00  0.00     0.194 A 
HETATM   17  C17 UNL     1      21.250   1.043  53.208  1.00  0.00     0.029 A 
HETATM   18  C18 UNL     1      20.289   1.819  53.119  1.00  0.00     0.147 C 
HETATM   19  O3  UNL     1      20.395   3.123  52.479  1.00  0.00    -0.360 OA
HETATM   20  C19 UNL     1      20.969   3.040  51.156  1.00  0.00     0.200 C 
HETATM   21  C20 UNL     1      20.199   3.916  50.174  1.00  0.00     0.198 C 
HETATM   22  O4  UNL     1      20.519   3.955  48.922  1.00  0.00    -0.353 OA
ENDROOT
BRANCH   2  23
HETATM   23  O1  UNL     1      21.867   5.641  48.408  1.00  0.00    -0.353 OA
BRANCH  23  24
HETATM   24  C3  UNL     1      22.870   6.321  47.888  1.00  0.00     0.203 C 
BRANCH  24  25
HETATM   25  C4  UNL     1      23.802   7.135  48.730  1.00  0.00     0.145 C 
HETATM   26  C5  UNL     1      25.217   6.597  48.399  1.00  0.00     0.036 C 
HETATM   27  C6  UNL     1      25.935   7.310  49.581  1.00  0.00     0.029 C 
HETATM   28  C7  UNL     1      24.962   6.837  50.657  1.00  0.00     0.168 C 
HETATM   29  O2  UNL     1      23.708   6.969  50.077  1.00  0.00    -0.384 OA
ENDBRANCH  24  25
ENDBRANCH  23  24
ENDBRANCH   2  23
TORSDOF 3
ENDMDL
MODEL 4
REMARK VINA RESULT:      -8.6      3.346      7.474
REMARK  3 active torsions:
REMARK  status: ('A' for Active; 'I' for Inactive)
REMARK    1  A    between atoms: C2_2  and  O1_3 
REMARK    2  A    between atoms: O1_3  and  C3_4 
REMARK    3  A    between atoms: C3_4  and  C4_5 
ROOT
HETATM    1  C1  UNL     1      22.415   7.370  50.831  1.00  0.00     0.079 C 
HETATM    2  C2  UNL     1      22.563   5.766  50.567  1.00  0.00     0.160 C 
HETATM    3  C8  UNL     1      21.998   5.261  51.832  1.00  0.00     0.075 C 
HETATM    4  C9  UNL     1      21.803   3.846  52.055  1.00  0.00     0.080 C 
HETATM    5  C10 UNL     1      21.083   2.782  52.179  1.00  0.00     0.056 A 
HETATM    6 CL1  UNL     1      19.924   1.497  52.307  1.00  0.00    -0.177 Cl
HETATM    7  C11 UNL     1      21.947   1.616  52.642  1.00  0.00     0.138 A 
HETATM    8  F1  UNL     1      23.141   2.069  53.078  1.00  0.00    -0.234 F 
HETATM    9  C12 UNL     1      22.633   0.483  53.063  1.00  0.00     0.220 A 
HETATM   10  C13 UNL     1      23.717  -0.568  53.539  1.00  0.00     0.193 A 
HETATM   11  N1  UNL     1      24.261   0.640  53.262  1.00  0.00    -0.351 N 
HETATM   12  C14 UNL     1      25.700   0.766  53.428  1.00  0.00     0.137 A 
HETATM   13  N2  UNL     1      26.060   0.282  54.486  1.00  0.00    -0.224 NA
HETATM   14  C15 UNL     1      27.393   0.233  54.957  1.00  0.00     0.229 A 
HETATM   15  N3  UNL     1      27.922   0.773  54.012  1.00  0.00    -0.278 NA
HETATM   16  C16 UNL     1      27.794   1.364  52.762  1.00  0.00     0.194 A 
HETATM   17  C17 UNL     1      26.354   1.470  52.319  1.00  0.00     0.029 A 
HETATM   18  C18 UNL     1      26.793   2.084  51.338  1.00  0.00     0.147 C 
HETATM   19  O3  UNL     1      25.923   2.652  50.319  1.00  0.00    -0.360 OA
HETATM   20  C19 UNL     1      24.887   3.486  50.884  1.00  0.00     0.200 C 
HETATM   21  C20 UNL     1      24.727   4.772  50.080  1.00  0.00     0.198 C 
HETATM   22  O4  UNL     1      23.882   5.681  50.440  1.00  0.00    -0.353 OA
ENDROOT
BRANCH   2  23
HETATM   23  O1  UNL     1      21.925   5.526  49.405  1.00  0.00    -0.353 OA
BRANCH  23  24
HETATM   24  C3  UNL     1      20.687   5.856  49.091  1.00  0.00     0.203 C 
BRANCH  24  25
HETATM   25  C4  UNL     1      19.680   4.840  48.652  1.00  0.00     0.145 C 
HETATM   26  C5  UNL     1      18.800   4.581  49.901  1.00  0.00     0.036 C 
HETATM   27  C6  UNL     1      18.096   3.313  49.336  1.00  0.00     0.029 C 
HETATM   28  C7  UNL     1      19.378   2.605  48.910  1.00  0.00     0.168 C 
HETATM   29  O2  UNL     1      20.157   3.604  48.341  1.00  0.00    -0.384 OA
ENDBRANCH  24  25
ENDBRANCH  23  24
ENDBRANCH   2  23
TORSDOF 3
ENDMDL
MODEL 5
REMARK VINA RESULT:      -8.2      4.234      7.643
REMARK  3 active torsions:
REMARK  status: ('A' for Active; 'I' for Inactive)
REMARK    1  A    between atoms: C2_2  and  O1_3 
REMARK    2  A    between atoms: O1_3  and  C3_4 
REMARK    3  A    between atoms: C3_4  and  C4_5 
ROOT
HETATM    1  C1  UNL     1      22.381   7.362  50.732  1.00  0.00     0.079 C 
HETATM    2  C2  UNL     1      22.546   5.758  50.476  1.00  0.00     0.160 C 
HETATM    3  C8  UNL     1      21.958   5.254  51.731  1.00  0.00     0.075 C 
HETATM    4  C9  UNL     1      21.768   3.837  51.954  1.00  0.00     0.080 C 
HETATM    5  C10 UNL     1      21.052   2.769  52.068  1.00  0.00     0.056 A 
HETATM    6 CL1  UNL     1      19.899   1.477  52.175  1.00  0.00    -0.177 Cl
HETATM    7  C11 UNL     1      21.914   1.611  52.551  1.00  0.00     0.138 A 
HETATM    8  F1  UNL     1      23.096   2.072  53.009  1.00  0.00    -0.234 F 
HETATM    9  C12 UNL     1      22.599   0.483  52.988  1.00  0.00     0.220 A 
HETATM   10  C13 UNL     1      23.680  -0.560  53.490  1.00  0.00     0.193 A 
HETATM   11  N1  UNL     1      24.221   0.651  53.220  1.00  0.00    -0.351 N 
HETATM   12  C14 UNL     1      25.656   0.787  53.415  1.00  0.00     0.137 A 
HETATM   13  N2  UNL     1      25.997   0.308  54.481  1.00  0.00    -0.224 NA
HETATM   14  C15 UNL     1      27.321   0.269  54.979  1.00  0.00     0.229 A 
HETATM   15  N3  UNL     1      27.865   0.810  54.042  1.00  0.00    -0.278 NA
HETATM   16  C16 UNL     1      27.759   1.396  52.788  1.00  0.00     0.194 A 
HETATM   17  C17 UNL     1      26.328   1.492  52.317  1.00  0.00     0.029 A 
HETATM   18  C18 UNL     1      26.783   2.106  51.343  1.00  0.00     0.147 C 
HETATM   19  O3  UNL     1      25.929   2.665  50.304  1.00  0.00    -0.360 OA
HETATM   20  C19 UNL     1      24.877   3.494  50.846  1.00  0.00     0.200 C 
HETATM   21  C20 UNL     1      24.725   4.777  50.036  1.00  0.00     0.198 C 
HETATM   22  O4  UNL     1      23.867   5.682  50.376  1.00  0.00    -0.353 OA
ENDROOT
BRANCH   2  23
HETATM   23  O1  UNL     1      21.932   5.511  49.303  1.00  0.00    -0.353 OA
BRANCH  23  24
HETATM   24  C3  UNL     1      21.633   6.381  48.358  1.00  0.00     0.203 C 
BRANCH  24  25
HETATM   25  C4  UNL     1      22.267   6.332  47.002  1.00  0.00     0.145 C 
HETATM   26  C5  UNL     1      23.230   7.545  46.965  1.00  0.00     0.036 C 
HETATM   27  C6  UNL     1      23.489   7.491  45.432  1.00  0.00     0.029 C 
HETATM   28  C7  UNL     1      22.019   7.429  45.031  1.00  0.00     0.168 C 
HETATM   29  O2  UNL     1      21.446   6.548  45.939  1.00  0.00    -0.384 OA
ENDBRANCH  24  25
ENDBRANCH  23  24
ENDBRANCH   2  23
TORSDOF 3
ENDMDL
MODEL 6
REMARK VINA RESULT:      -8.1      6.960      8.701
REMARK  3 active torsions:
REMARK  status: ('A' for Active; 'I' for Inactive)
REMARK    1  A    between atoms: C2_2  and  O1_3 
REMARK    2  A    between atoms: O1_3  and  C3_4 
REMARK    3  A    between atoms: C3_4  and  C4_5 
ROOT
HETATM    1  C1  UNL     1      26.089  10.834  46.455  1.00  0.00     0.079 C 
HETATM    2  C2  UNL     1      26.442   9.813  47.679  1.00  0.00     0.160 C 
HETATM    3  C8  UNL     1      26.785   8.611  46.897  1.00  0.00     0.075 C 
HETATM    4  C9  UNL     1      27.286   7.416  47.540  1.00  0.00     0.080 C 
HETATM    5  C10 UNL     1      28.208   6.565  47.843  1.00  0.00     0.056 A 
HETATM    6 CL1  UNL     1      29.595   5.561  48.123  1.00  0.00    -0.177 Cl
HETATM    7  C11 UNL     1      27.596   5.362  48.549  1.00  0.00     0.138 A 
HETATM    8  F1  UNL     1      26.255   5.369  48.400  1.00  0.00    -0.234 F 
HETATM    9  C12 UNL     1      27.152   4.217  49.200  1.00  0.00     0.220 A 
HETATM   10  C13 UNL     1      26.302   3.082  49.906  1.00  0.00     0.193 A 
HETATM   11  N1  UNL     1      25.545   4.148  49.556  1.00  0.00    -0.351 N 
HETATM   12  C14 UNL     1      24.130   4.085  49.885  1.00  0.00     0.137 A 
HETATM   13  N2  UNL     1      23.658   3.006  49.572  1.00  0.00    -0.224 NA
HETATM   14  C15 UNL     1      22.312   2.613  49.756  1.00  0.00     0.229 A 
HETATM   15  N3  UNL     1      21.913   3.630  50.279  1.00  0.00    -0.278 NA
HETATM   16  C16 UNL     1      22.189   4.908  50.745  1.00  0.00     0.194 A 
HETATM   17  C17 UNL     1      23.612   5.328  50.467  1.00  0.00     0.029 A 
HETATM   18  C18 UNL     1      23.286   6.426  50.937  1.00  0.00     0.147 C 
HETATM   19  O3  UNL     1      24.202   7.557  50.986  1.00  0.00    -0.360 OA
HETATM   20  C19 UNL     1      24.803   7.833  49.702  1.00  0.00     0.200 C 
HETATM   21  C20 UNL     1      24.812   9.330  49.417  1.00  0.00     0.198 C 
HETATM   22  O4  UNL     1      25.269   9.793  48.299  1.00  0.00    -0.353 OA
ENDROOT
BRANCH   2  23
HETATM   23  O1  UNL     1      27.391  10.431  48.408  1.00  0.00    -0.353 OA
BRANCH  23  24
HETATM   24  C3  UNL     1      28.475  11.035  47.961  1.00  0.00     0.203 C 
BRANCH  24  25
HETATM   25  C4  UNL     1      29.850  10.618  48.383  1.00  0.00     0.145 C 
HETATM   26  C5  UNL     1      30.340   9.664  47.265  1.00  0.00     0.036 C 
HETATM   27  C6  UNL     1      31.568   9.120  48.053  1.00  0.00     0.029 C 
HETATM   28  C7  UNL     1      30.795   8.782  49.323  1.00  0.00     0.168 C 
HETATM   29  O2  UNL     1      29.937   9.858  49.508  1.00  0.00    -0.384 OA
ENDBRANCH  24  25
ENDBRANCH  23  24
ENDBRANCH   2  23
TORSDOF 3
ENDMDL
MODEL 7
REMARK VINA RESULT:      -8.0      3.717      8.086
REMARK  3 active torsions:
REMARK  status: ('A' for Active; 'I' for Inactive)
REMARK    1  A    between atoms: C2_2  and  O1_3 
REMARK    2  A    between atoms: O1_3  and  C3_4 
REMARK    3  A    between atoms: C3_4  and  C4_5 
ROOT
HETATM    1  C1  UNL     1      17.805  -0.124  50.292  1.00  0.00     0.079 C 
HETATM    2  C2  UNL     1      18.899   0.824  51.048  1.00  0.00     0.160 C 
HETATM    3  C8  UNL     1      19.823   1.067  49.925  1.00  0.00     0.075 C 
HETATM    4  C9  UNL     1      20.945   1.969  50.058  1.00  0.00     0.080 C 
HETATM    5  C10 UNL     1      21.576   3.074  49.834  1.00  0.00     0.056 A 
HETATM    6 CL1  UNL     1      22.229   4.621  49.402  1.00  0.00    -0.177 Cl
HETATM    7  C11 UNL     1      22.997   2.983  50.374  1.00  0.00     0.138 A 
HETATM    8  F1  UNL     1      23.302   1.701  50.663  1.00  0.00    -0.234 F 
HETATM    9  C12 UNL     1      24.311   3.016  50.825  1.00  0.00     0.220 A 
HETATM   10  C13 UNL     1      25.727   2.695  51.458  1.00  0.00     0.193 A 
HETATM   11  N1  UNL     1      24.842   1.687  51.642  1.00  0.00    -0.351 N 
HETATM   12  C14 UNL     1      25.316   0.523  52.374  1.00  0.00     0.137 A 
HETATM   13  N2  UNL     1      26.408   0.168  51.968  1.00  0.00    -0.224 NA
HETATM   14  C15 UNL     1      27.153  -0.927  52.464  1.00  0.00     0.229 A 
HETATM   15  N3  UNL     1      26.375  -1.281  53.321  1.00  0.00    -0.278 NA
HETATM   16  C16 UNL     1      25.169  -1.085  53.979  1.00  0.00     0.194 A 
HETATM   17  C17 UNL     1      24.362   0.041  53.379  1.00  0.00     0.029 A 
HETATM   18  C18 UNL     1      23.479  -0.280  54.186  1.00  0.00     0.147 C 
HETATM   19  O3  UNL     1      22.179   0.375  54.223  1.00  0.00    -0.360 OA
HETATM   20  C19 UNL     1      21.545   0.410  52.925  1.00  0.00     0.200 C 
HETATM   21  C20 UNL     1      20.067   0.051  53.034  1.00  0.00     0.198 C 
HETATM   22  O4  UNL     1      19.320  -0.020  51.981  1.00  0.00    -0.353 OA
ENDROOT
BRANCH   2  23
HETATM   23  O1  UNL     1      18.196   1.848  51.569  1.00  0.00    -0.353 OA
BRANCH  23  24
HETATM   24  C3  UNL     1      17.077   2.369  51.104  1.00  0.00     0.203 C 
BRANCH  24  25
HETATM   25  C4  UNL     1      17.045   3.692  50.405  1.00  0.00     0.145 C 
HETATM   26  C5  UNL     1      17.037   3.349  48.895  1.00  0.00     0.036 C 
HETATM   27  C6  UNL     1      17.341   4.795  48.405  1.00  0.00     0.029 C 
HETATM   28  C7  UNL     1      18.536   5.019  49.326  1.00  0.00     0.168 C 
HETATM   29  O2  UNL     1      18.145   4.481  50.545  1.00  0.00    -0.384 OA
ENDBRANCH  24  25
ENDBRANCH  23  24
ENDBRANCH   2  23
TORSDOF 3
ENDMDL
MODEL 8
REMARK VINA RESULT:      -7.9      3.660      8.762
REMARK  3 active torsions:
REMARK  status: ('A' for Active; 'I' for Inactive)
REMARK    1  A    between atoms: C2_2  and  O1_3 
REMARK    2  A    between atoms: O1_3  and  C3_4 
REMARK    3  A    between atoms: C3_4  and  C4_5 
ROOT
HETATM    1  C1  UNL     1      16.965  -0.468  50.239  1.00  0.00     0.079 C 
HETATM    2  C2  UNL     1      17.877   0.459  51.226  1.00  0.00     0.160 C 
HETATM    3  C8  UNL     1      18.717   1.129  50.216  1.00  0.00     0.075 C 
HETATM    4  C9  UNL     1      19.653   2.167  50.588  1.00  0.00     0.080 C 
HETATM    5  C10 UNL     1      20.062   3.390  50.649  1.00  0.00     0.056 A 
HETATM    6 CL1  UNL     1      20.406   5.090  50.614  1.00  0.00    -0.177 Cl
HETATM    7  C11 UNL     1      21.485   3.440  51.188  1.00  0.00     0.138 A 
HETATM    8  F1  UNL     1      22.031   2.205  51.171  1.00  0.00    -0.234 F 
HETATM    9  C12 UNL     1      22.779   3.608  51.667  1.00  0.00     0.220 A 
HETATM   10  C13 UNL     1      24.243   3.415  52.241  1.00  0.00     0.193 A 
HETATM   11  N1  UNL     1      23.566   2.246  52.157  1.00  0.00    -0.351 N 
HETATM   12  C14 UNL     1      24.263   1.050  52.604  1.00  0.00     0.137 A 
HETATM   13  N2  UNL     1      25.394   1.012  52.153  1.00  0.00    -0.224 NA
HETATM   14  C15 UNL     1      26.341  -0.011  52.393  1.00  0.00     0.229 A 
HETATM   15  N3  UNL     1      25.660  -0.698  53.122  1.00  0.00    -0.278 NA
HETATM   16  C16 UNL     1      24.451  -0.892  53.776  1.00  0.00     0.194 A 
HETATM   17  C17 UNL     1      23.437   0.174  53.441  1.00  0.00     0.029 A 
HETATM   18  C18 UNL     1      22.645  -0.489  54.126  1.00  0.00     0.147 C 
HETATM   19  O3  UNL     1      21.247  -0.115  54.285  1.00  0.00    -0.360 OA
HETATM   20  C19 UNL     1      20.591   0.109  53.017  1.00  0.00     0.200 C 
HETATM   21  C20 UNL     1      19.210  -0.534  52.999  1.00  0.00     0.198 C 
HETATM   22  O4  UNL     1      18.467  -0.490  51.942  1.00  0.00    -0.353 OA
ENDROOT
BRANCH   2  23
HETATM   23  O1  UNL     1      17.006   1.180  51.958  1.00  0.00    -0.353 OA
BRANCH  23  24
HETATM   24  C3  UNL     1      15.822   1.623  51.583  1.00  0.00     0.203 C 
BRANCH  24  25
HETATM   25  C4  UNL     1      14.793   2.076  52.571  1.00  0.00     0.145 C 
HETATM   26  C5  UNL     1      13.477   2.182  51.760  1.00  0.00     0.036 C 
HETATM   27  C6  UNL     1      12.684   2.960  52.851  1.00  0.00     0.029 C 
HETATM   28  C7  UNL     1      13.750   4.026  53.081  1.00  0.00     0.168 C 
HETATM   29  O2  UNL     1      14.950   3.327  53.082  1.00  0.00    -0.384 OA
ENDBRANCH  24  25
ENDBRANCH  23  24
ENDBRANCH   2  23
TORSDOF 3
ENDMDL
MODEL 9
REMARK VINA RESULT:      -7.9      5.290      8.057
REMARK  3 active torsions:
REMARK  status: ('A' for Active; 'I' for Inactive)
REMARK    1  A    between atoms: C2_2  and  O1_3 
REMARK    2  A    between atoms: O1_3  and  C3_4 
REMARK    3  A    between atoms: C3_4  and  C4_5 
ROOT
HETATM    1  C1  UNL     1      20.406   3.535  52.308  1.00  0.00     0.079 C 
HETATM    2  C2  UNL     1      21.495   3.346  51.107  1.00  0.00     0.160 C 
HETATM    3  C8  UNL     1      22.734   3.607  51.863  1.00  0.00     0.075 C 
HETATM    4  C9  UNL     1      24.034   3.454  51.248  1.00  0.00     0.080 C 
HETATM    5  C10 UNL     1      25.163   2.856  51.062  1.00  0.00     0.056 A 
HETATM    6 CL1  UNL     1      26.602   1.891  50.974  1.00  0.00    -0.177 Cl
HETATM    7  C11 UNL     1      26.069   3.712  50.188  1.00  0.00     0.138 A 
HETATM    8  F1  UNL     1      25.577   4.965  50.096  1.00  0.00    -0.234 F 
HETATM    9  C12 UNL     1      26.982   4.404  49.401  1.00  0.00     0.220 A 
HETATM   10  C13 UNL     1      27.739   5.454  48.488  1.00  0.00     0.193 A 
HETATM   11  N1  UNL     1      26.468   5.833  48.761  1.00  0.00    -0.351 N 
HETATM   12  C14 UNL     1      26.019   7.090  48.183  1.00  0.00     0.137 A 
HETATM   13  N2  UNL     1      26.851   7.964  48.342  1.00  0.00    -0.224 NA
HETATM   14  C15 UNL     1      26.733   9.302  47.898  1.00  0.00     0.229 A 
HETATM   15  N3  UNL     1      25.646   9.207  47.375  1.00  0.00    -0.278 NA
HETATM   16  C16 UNL     1      24.557   8.412  47.043  1.00  0.00     0.194 A 
HETATM   17  C17 UNL     1      24.677   7.012  47.595  1.00  0.00     0.029 A 
HETATM   18  C18 UNL     1      23.539   6.830  47.141  1.00  0.00     0.147 C 
HETATM   19  O3  UNL     1      22.815   5.580  47.324  1.00  0.00    -0.360 OA
HETATM   20  C19 UNL     1      22.765   5.172  48.709  1.00  0.00     0.200 C 
HETATM   21  C20 UNL     1      21.370   4.684  49.081  1.00  0.00     0.198 C 
HETATM   22  O4  UNL     1      21.094   4.311  50.288  1.00  0.00    -0.353 OA
ENDROOT
BRANCH   2  23
HETATM   23  O1  UNL     1      21.267   2.120  50.597  1.00  0.00    -0.353 OA
BRANCH  23  24
HETATM   24  C3  UNL     1      21.906   1.003  50.885  1.00  0.00     0.203 C 
BRANCH  24  25
HETATM   25  C4  UNL     1      21.463   0.096  51.990  1.00  0.00     0.145 C 
HETATM   26  C5  UNL     1      19.915   0.124  51.937  1.00  0.00     0.036 C 
HETATM   27  C6  UNL     1      19.700  -0.570  53.314  1.00  0.00     0.029 C 
HETATM   28  C7  UNL     1      20.644   0.341  54.092  1.00  0.00     0.168 C 
HETATM   29  O2  UNL     1      21.743   0.499  53.259  1.00  0.00    -0.384 OA
ENDBRANCH  24  25
ENDBRANCH  23  24
ENDBRANCH   2  23
TORSDOF 3
ENDMDL
