MODEL 1
REMARK VINA RESULT:      -8.7      0.000      0.000
REMARK  3 active torsions:
REMARK  status: ('A' for Active; 'I' for Inactive)
REMARK    1  A    between atoms: C3_5  and  N3_6 
REMARK    2  A    between atoms: N3_6  and  C4_7 
REMARK    3  A    between atoms: C16_21  and  O1_22 
ROOT
HETATM    1  N1  UNL     1      25.696   1.416  54.324  1.00  0.00    -0.298 NA
HETATM    2  C1  UNL     1      26.007   1.915  53.182  1.00  0.00     0.105 A 
HETATM    3  C2  UNL     1      27.372   2.141  52.735  1.00  0.00     0.151 A 
HETATM    4  N2  UNL     1      27.523   2.650  51.561  1.00  0.00    -0.241 NA
HETATM    5  C3  UNL     1      26.423   2.982  50.725  1.00  0.00     0.129 A 
HETATM    6  C10 UNL     1      25.175   2.788  51.102  1.00  0.00     0.093 A 
HETATM    7  C11 UNL     1      24.744   2.208  52.424  1.00  0.00     0.228 A 
HETATM    8  N4  UNL     1      23.988   3.225  53.087  1.00  0.00    -0.257 NA
HETATM    9  C12 UNL     1      22.758   3.459  53.041  1.00  0.00     0.092 C 
HETATM   10  C13 UNL     1      21.644   2.792  52.304  1.00  0.00     0.088 C 
HETATM   11  C14 UNL     1      21.655   1.342  52.704  1.00  0.00    -0.017 A 
HETATM   12  C15 UNL     1      20.454   0.820  53.107  1.00  0.00     0.046 A 
HETATM   13  C16 UNL     1      20.434  -0.522  53.489  1.00  0.00     0.066 A 
HETATM   14  C17 UNL     1      21.592  -1.274  53.454  1.00  0.00     0.039 A 
HETATM   15  C18 UNL     1      22.802  -0.743  53.047  1.00  0.00     0.040 A 
HETATM   16  C19 UNL     1      22.815   0.602  52.667  1.00  0.00     0.079 A 
HETATM   17  O2  UNL     1      24.082   0.983  52.290  1.00  0.00    -0.308 OA
HETATM   18  H1  UNL     1      26.515   1.169  54.946  1.00  0.00     0.187 HD
ENDROOT
BRANCH   5  19
HETATM   19  N3  UNL     1      26.808   3.534  49.489  1.00  0.00    -0.341 N 
HETATM   20  H3  UNL     1      26.894   2.943  48.609  1.00  0.00     0.167 HD
BRANCH  19  21
HETATM   21  C4  UNL     1      27.181   4.758  48.884  1.00  0.00     0.034 A 
HETATM   22  C5  UNL     1      28.427   5.138  48.430  1.00  0.00     0.029 A 
HETATM   23  C6  UNL     1      28.584   6.382  47.865  1.00  0.00     0.004 A 
HETATM   24  C7  UNL     1      27.508   7.219  47.764  1.00  0.00     0.019 A 
HETATM   25  C8  UNL     1      26.221   6.895  48.204  1.00  0.00     0.013 A 
HETATM   26 BR1  UNL     1      24.746   8.092  48.040  1.00  0.00    -0.051 Br
HETATM   27  C9  UNL     1      26.091   5.629  48.772  1.00  0.00     0.048 A 
ENDBRANCH  19  21
ENDBRANCH   5  19
BRANCH  13  28
HETATM   28  O1  UNL     1      19.230  -1.067  53.898  1.00  0.00    -0.361 OA
HETATM   29  H13 UNL     1      18.683  -0.556  54.577  1.00  0.00     0.217 HD
ENDBRANCH  13  28
TORSDOF 3
ENDMDL
MODEL 2
REMARK VINA RESULT:      -8.4      3.892      8.453
REMARK  3 active torsions:
REMARK  status: ('A' for Active; 'I' for Inactive)
REMARK    1  A    between atoms: C3_5  and  N3_6 
REMARK    2  A    between atoms: N3_6  and  C4_7 
REMARK    3  A    between atoms: C16_21  and  O1_22 
ROOT
HETATM    1  N1  UNL     1      23.799   5.644  52.317  1.00  0.00    -0.298 NA
HETATM    2  C1  UNL     1      23.068   4.673  51.902  1.00  0.00     0.105 A 
HETATM    3  C2  UNL     1      21.698   4.442  52.332  1.00  0.00     0.151 A 
HETATM    4  N2  UNL     1      21.094   3.422  51.825  1.00  0.00    -0.241 NA
HETATM    5  C3  UNL     1      21.717   2.553  50.889  1.00  0.00     0.129 A 
HETATM    6  C10 UNL     1      22.956   2.738  50.480  1.00  0.00     0.093 A 
HETATM    7  C11 UNL     1      23.864   3.854  50.926  1.00  0.00     0.228 A 
HETATM    8  N4  UNL     1      24.976   3.238  51.581  1.00  0.00    -0.257 NA
HETATM    9  C12 UNL     1      26.063   2.844  51.100  1.00  0.00     0.092 C 
HETATM   10  C13 UNL     1      26.602   2.866  49.708  1.00  0.00     0.088 C 
HETATM   11  C14 UNL     1      26.574   4.297  49.244  1.00  0.00    -0.017 A 
HETATM   12  C15 UNL     1      27.738   4.778  48.705  1.00  0.00     0.046 A 
HETATM   13  C16 UNL     1      27.743   6.104  48.271  1.00  0.00     0.066 A 
HETATM   14  C17 UNL     1      26.608   6.881  48.391  1.00  0.00     0.039 A 
HETATM   15  C18 UNL     1      25.436   6.392  48.937  1.00  0.00     0.040 A 
HETATM   16  C19 UNL     1      25.437   5.063  49.370  1.00  0.00     0.079 A 
HETATM   17  O2  UNL     1      24.208   4.724  49.885  1.00  0.00    -0.308 OA
HETATM   18  H1  UNL     1      23.336   6.291  53.014  1.00  0.00     0.187 HD
ENDROOT
BRANCH   5  19
HETATM   19  N3  UNL     1      20.885   1.498  50.468  1.00  0.00    -0.341 N 
HETATM   20  H3  UNL     1      21.236   0.723  49.830  1.00  0.00     0.167 HD
BRANCH  19  21
HETATM   21  C4  UNL     1      19.563   1.007  50.588  1.00  0.00     0.034 A 
HETATM   22  C5  UNL     1      18.475   1.292  49.790  1.00  0.00     0.029 A 
HETATM   23  C6  UNL     1      17.263   0.704  50.074  1.00  0.00     0.004 A 
HETATM   24  C7  UNL     1      17.159  -0.147  51.138  1.00  0.00     0.019 A 
HETATM   25  C8  UNL     1      18.222  -0.475  51.984  1.00  0.00     0.013 A 
HETATM   26 BR1  UNL     1      18.032  -1.671  53.457  1.00  0.00    -0.051 Br
HETATM   27  C9  UNL     1      19.436   0.134  51.673  1.00  0.00     0.048 A 
ENDBRANCH  19  21
ENDBRANCH   5  19
BRANCH  13  28
HETATM   28  O1  UNL     1      28.909   6.607  47.723  1.00  0.00    -0.361 OA
HETATM   29  H13 UNL     1      29.756   6.555  48.273  1.00  0.00     0.217 HD
ENDBRANCH  13  28
TORSDOF 3
ENDMDL
MODEL 3
REMARK VINA RESULT:      -8.4      3.707      6.452
REMARK  3 active torsions:
REMARK  status: ('A' for Active; 'I' for Inactive)
REMARK    1  A    between atoms: C3_5  and  N3_6 
REMARK    2  A    between atoms: N3_6  and  C4_7 
REMARK    3  A    between atoms: C16_21  and  O1_22 
ROOT
HETATM    1  N1  UNL     1      20.766   1.713  52.411  1.00  0.00    -0.298 NA
HETATM    2  C1  UNL     1      21.821   1.063  52.748  1.00  0.00     0.105 A 
HETATM    3  C2  UNL     1      21.839  -0.010  53.728  1.00  0.00     0.151 A 
HETATM    4  N2  UNL     1      22.979  -0.567  53.960  1.00  0.00    -0.241 NA
HETATM    5  C3  UNL     1      24.172  -0.167  53.299  1.00  0.00     0.129 A 
HETATM    6  C10 UNL     1      24.186   0.801  52.405  1.00  0.00     0.093 A 
HETATM    7  C11 UNL     1      22.986   1.600  51.966  1.00  0.00     0.228 A 
HETATM    8  N4  UNL     1      23.248   2.959  52.328  1.00  0.00    -0.257 NA
HETATM    9  C12 UNL     1      23.813   3.862  51.670  1.00  0.00     0.092 C 
HETATM   10  C13 UNL     1      24.409   3.872  50.301  1.00  0.00     0.088 C 
HETATM   11  C14 UNL     1      23.331   3.438  49.345  1.00  0.00    -0.017 A 
HETATM   12  C15 UNL     1      23.138   4.241  48.252  1.00  0.00     0.046 A 
HETATM   13  C16 UNL     1      22.142   3.866  47.350  1.00  0.00     0.066 A 
HETATM   14  C17 UNL     1      21.393   2.727  47.572  1.00  0.00     0.039 A 
HETATM   15  C18 UNL     1      21.591   1.920  48.677  1.00  0.00     0.040 A 
HETATM   16  C19 UNL     1      22.591   2.302  49.577  1.00  0.00     0.079 A 
HETATM   17  O2  UNL     1      22.668   1.406  50.618  1.00  0.00    -0.308 OA
HETATM   18  H1  UNL     1      19.877   1.417  52.902  1.00  0.00     0.187 HD
ENDROOT
BRANCH   5  19
HETATM   19  N3  UNL     1      25.305  -0.898  53.704  1.00  0.00    -0.341 N 
HETATM   20  H3  UNL     1      25.234  -1.732  54.360  1.00  0.00     0.167 HD
BRANCH  19  21
HETATM   21  C4  UNL     1      26.711  -0.948  53.549  1.00  0.00     0.034 A 
HETATM   22  C5  UNL     1      27.475  -1.982  53.048  1.00  0.00     0.029 A 
HETATM   23  C6  UNL     1      28.841  -1.832  52.976  1.00  0.00     0.004 A 
HETATM   24  C7  UNL     1      29.416  -0.668  53.402  1.00  0.00     0.019 A 
HETATM   25  C8  UNL     1      28.699   0.415  53.919  1.00  0.00     0.013 A 
HETATM   26 BR1  UNL     1      29.542   2.024  54.498  1.00  0.00    -0.051 Br
HETATM   27  C9  UNL     1      27.318   0.236  53.979  1.00  0.00     0.048 A 
ENDBRANCH  19  21
ENDBRANCH   5  19
BRANCH  13  28
HETATM   28  O1  UNL     1      21.932   4.664  46.239  1.00  0.00    -0.361 OA
HETATM   29  H13 UNL     1      21.262   4.353  45.550  1.00  0.00     0.217 HD
ENDBRANCH  13  28
TORSDOF 3
ENDMDL
MODEL 4
REMARK VINA RESULT:      -8.2      4.403      5.949
REMARK  3 active torsions:
REMARK  status: ('A' for Active; 'I' for Inactive)
REMARK    1  A    between atoms: C3_5  and  N3_6 
REMARK    2  A    between atoms: N3_6  and  C4_7 
REMARK    3  A    between atoms: C16_21  and  O1_22 
ROOT
HETATM    1  N1  UNL     1      19.681   0.042  54.387  1.00  0.00    -0.298 NA
HETATM    2  C1  UNL     1      20.923  -0.050  54.073  1.00  0.00     0.105 A 
HETATM    3  C2  UNL     1      21.902  -0.811  54.832  1.00  0.00     0.151 A 
HETATM    4  N2  UNL     1      23.113  -0.805  54.389  1.00  0.00    -0.241 NA
HETATM    5  C3  UNL     1      23.494  -0.098  53.217  1.00  0.00     0.129 A 
HETATM    6  C10 UNL     1      22.629   0.599  52.508  1.00  0.00     0.093 A 
HETATM    7  C11 UNL     1      21.163   0.746  52.821  1.00  0.00     0.228 A 
HETATM    8  N4  UNL     1      20.935   2.137  53.062  1.00  0.00    -0.257 NA
HETATM    9  C12 UNL     1      20.626   3.044  52.255  1.00  0.00     0.092 C 
HETATM   10  C13 UNL     1      20.383   3.025  50.782  1.00  0.00     0.088 C 
HETATM   11  C14 UNL     1      19.296   2.016  50.526  1.00  0.00    -0.017 A 
HETATM   12  C15 UNL     1      18.250   2.443  49.750  1.00  0.00     0.046 A 
HETATM   13  C16 UNL     1      17.224   1.531  49.499  1.00  0.00     0.066 A 
HETATM   14  C17 UNL     1      17.283   0.255  50.023  1.00  0.00     0.039 A 
HETATM   15  C18 UNL     1      18.341  -0.172  50.806  1.00  0.00     0.040 A 
HETATM   16  C19 UNL     1      19.364   0.747  51.054  1.00  0.00     0.079 A 
HETATM   17  O2  UNL     1      20.339   0.180  51.842  1.00  0.00    -0.308 OA
HETATM   18  H1  UNL     1      19.397  -0.485  55.259  1.00  0.00     0.187 HD
ENDROOT
BRANCH   5  19
HETATM   19  N3  UNL     1      24.864  -0.217  52.914  1.00  0.00    -0.341 N 
HETATM   20  H3  UNL     1      25.252  -1.044  52.371  1.00  0.00     0.167 HD
BRANCH  19  21
HETATM   21  C4  UNL     1      26.103   0.444  53.087  1.00  0.00     0.034 A 
HETATM   22  C5  UNL     1      26.346   1.801  53.125  1.00  0.00     0.029 A 
HETATM   23  C6  UNL     1      27.635   2.247  53.307  1.00  0.00     0.004 A 
HETATM   24  C7  UNL     1      28.649   1.342  53.444  1.00  0.00     0.019 A 
HETATM   25  C8  UNL     1      28.470  -0.044  53.414  1.00  0.00     0.013 A 
HETATM   26 BR1  UNL     1      29.915  -1.272  53.613  1.00  0.00    -0.051 Br
HETATM   27  C9  UNL     1      27.155  -0.467  53.229  1.00  0.00     0.048 A 
ENDBRANCH  19  21
ENDBRANCH   5  19
BRANCH  13  28
HETATM   28  O1  UNL     1      16.160   1.943  48.717  1.00  0.00    -0.361 OA
HETATM   29  H13 UNL     1      15.966   2.933  48.662  1.00  0.00     0.217 HD
ENDBRANCH  13  28
TORSDOF 3
ENDMDL
MODEL 5
REMARK VINA RESULT:      -8.1      6.264      9.064
REMARK  3 active torsions:
REMARK  status: ('A' for Active; 'I' for Inactive)
REMARK    1  A    between atoms: C3_5  and  N3_6 
REMARK    2  A    between atoms: N3_6  and  C4_7 
REMARK    3  A    between atoms: C16_21  and  O1_22 
ROOT
HETATM    1  N1  UNL     1      31.290   5.515  50.196  1.00  0.00    -0.298 NA
HETATM    2  C1  UNL     1      31.861   5.746  49.069  1.00  0.00     0.105 A 
HETATM    3  C2  UNL     1      33.225   5.354  48.751  1.00  0.00     0.151 A 
HETATM    4  N2  UNL     1      33.657   5.659  47.575  1.00  0.00    -0.241 NA
HETATM    5  C3  UNL     1      32.857   6.343  46.620  1.00  0.00     0.129 A 
HETATM    6  C10 UNL     1      31.618   6.709  46.880  1.00  0.00     0.093 A 
HETATM    7  C11 UNL     1      30.892   6.468  48.178  1.00  0.00     0.228 A 
HETATM    8  N4  UNL     1      30.582   7.756  48.716  1.00  0.00    -0.257 NA
HETATM    9  C12 UNL     1      29.567   8.470  48.537  1.00  0.00     0.092 C 
HETATM   10  C13 UNL     1      28.333   8.260  47.724  1.00  0.00     0.088 C 
HETATM   11  C14 UNL     1      27.711   6.971  48.189  1.00  0.00    -0.017 A 
HETATM   12  C15 UNL     1      26.376   7.023  48.494  1.00  0.00     0.046 A 
HETATM   13  C16 UNL     1      25.773   5.843  48.933  1.00  0.00     0.066 A 
HETATM   14  C17 UNL     1      26.512   4.683  49.047  1.00  0.00     0.039 A 
HETATM   15  C18 UNL     1      27.860   4.635  48.739  1.00  0.00     0.040 A 
HETATM   16  C19 UNL     1      28.458   5.820  48.300  1.00  0.00     0.079 A 
HETATM   17  O2  UNL     1      29.792   5.615  48.034  1.00  0.00    -0.308 OA
HETATM   18  H1  UNL     1      31.885   5.006  50.907  1.00  0.00     0.187 HD
ENDROOT
BRANCH   5  19
HETATM   19  N3  UNL     1      33.524   6.584  45.404  1.00  0.00    -0.341 N 
HETATM   20  H3  UNL     1      34.135   7.442  45.257  1.00  0.00     0.167 HD
BRANCH  19  21
HETATM   21  C4  UNL     1      33.715   6.040  44.112  1.00  0.00     0.034 A 
HETATM   22  C5  UNL     1      33.249   4.840  43.617  1.00  0.00     0.029 A 
HETATM   23  C6  UNL     1      33.545   4.490  42.320  1.00  0.00     0.004 A 
HETATM   24  C7  UNL     1      34.293   5.332  41.547  1.00  0.00     0.019 A 
HETATM   25  C8  UNL     1      34.795   6.560  41.988  1.00  0.00     0.013 A 
HETATM   26 BR1  UNL     1      35.833   7.707  40.874  1.00  0.00    -0.051 Br
HETATM   27  C9  UNL     1      34.480   6.889  43.305  1.00  0.00     0.048 A 
ENDBRANCH  19  21
ENDBRANCH   5  19
BRANCH  13  28
HETATM   28  O1  UNL     1      24.426   5.876  49.245  1.00  0.00    -0.361 OA
HETATM   29  H13 UNL     1      23.791   5.339  48.669  1.00  0.00     0.217 HD
ENDBRANCH  13  28
TORSDOF 3
ENDMDL
MODEL 6
REMARK VINA RESULT:      -8.1      5.777     11.063
REMARK  3 active torsions:
REMARK  status: ('A' for Active; 'I' for Inactive)
REMARK    1  A    between atoms: C3_5  and  N3_6 
REMARK    2  A    between atoms: N3_6  and  C4_7 
REMARK    3  A    between atoms: C16_21  and  O1_22 
ROOT
HETATM    1  N1  UNL     1      30.595  10.406  49.652  1.00  0.00    -0.298 NA
HETATM    2  C1  UNL     1      29.709   9.526  49.352  1.00  0.00     0.105 A 
HETATM    3  C2  UNL     1      28.296   9.650  49.672  1.00  0.00     0.151 A 
HETATM    4  N2  UNL     1      27.529   8.680  49.305  1.00  0.00    -0.241 NA
HETATM    5  C3  UNL     1      28.021   7.537  48.619  1.00  0.00     0.129 A 
HETATM    6  C10 UNL     1      29.295   7.397  48.315  1.00  0.00     0.093 A 
HETATM    7  C11 UNL     1      30.382   8.390  48.636  1.00  0.00     0.228 A 
HETATM    8  N4  UNL     1      31.298   7.723  49.508  1.00  0.00    -0.257 NA
HETATM    9  C12 UNL     1      32.311   7.041  49.226  1.00  0.00     0.092 C 
HETATM   10  C13 UNL     1      32.933   6.676  47.919  1.00  0.00     0.088 C 
HETATM   11  C14 UNL     1      33.230   7.961  47.195  1.00  0.00    -0.017 A 
HETATM   12  C15 UNL     1      34.500   8.093  46.700  1.00  0.00     0.046 A 
HETATM   13  C16 UNL     1      34.806   9.277  46.028  1.00  0.00     0.066 A 
HETATM   14  C17 UNL     1      33.849  10.262  45.880  1.00  0.00     0.039 A 
HETATM   15  C18 UNL     1      32.568  10.124  46.382  1.00  0.00     0.040 A 
HETATM   16  C19 UNL     1      32.268   8.936  47.055  1.00  0.00     0.079 A 
HETATM   17  O2  UNL     1      30.964   8.947  47.492  1.00  0.00    -0.308 OA
HETATM   18  H1  UNL     1      30.230  11.258  50.162  1.00  0.00     0.187 HD
ENDROOT
BRANCH   5  19
HETATM   19  N3  UNL     1      27.019   6.593  48.318  1.00  0.00    -0.341 N 
HETATM   20  H3  UNL     1      26.415   6.671  47.447  1.00  0.00     0.167 HD
BRANCH  19  21
HETATM   21  C4  UNL     1      26.423   5.408  48.811  1.00  0.00     0.034 A 
HETATM   22  C5  UNL     1      27.043   4.230  49.170  1.00  0.00     0.029 A 
HETATM   23  C6  UNL     1      26.278   3.184  49.633  1.00  0.00     0.004 A 
HETATM   24  C7  UNL     1      24.922   3.329  49.726  1.00  0.00     0.019 A 
HETATM   25  C8  UNL     1      24.234   4.495  49.378  1.00  0.00     0.013 A 
HETATM   26 BR1  UNL     1      22.340   4.655  49.528  1.00  0.00    -0.051 Br
HETATM   27  C9  UNL     1      25.034   5.537  48.913  1.00  0.00     0.048 A 
ENDBRANCH  19  21
ENDBRANCH   5  19
BRANCH  13  28
HETATM   28  O1  UNL     1      36.084   9.429  45.520  1.00  0.00    -0.361 OA
HETATM   29  H13 UNL     1      36.183   9.662  44.542  1.00  0.00     0.217 HD
ENDBRANCH  13  28
TORSDOF 3
ENDMDL
MODEL 7
REMARK VINA RESULT:      -8.0      3.732      7.912
REMARK  3 active torsions:
REMARK  status: ('A' for Active; 'I' for Inactive)
REMARK    1  A    between atoms: C3_5  and  N3_6 
REMARK    2  A    between atoms: N3_6  and  C4_7 
REMARK    3  A    between atoms: C16_21  and  O1_22 
ROOT
HETATM    1  N1  UNL     1      22.434   3.368  47.788  1.00  0.00    -0.298 NA
HETATM    2  C1  UNL     1      22.223   2.623  48.813  1.00  0.00     0.105 A 
HETATM    3  C2  UNL     1      21.636   1.294  48.747  1.00  0.00     0.151 A 
HETATM    4  N2  UNL     1      21.487   0.669  49.865  1.00  0.00    -0.241 NA
HETATM    5  C3  UNL     1      21.872   1.231  51.112  1.00  0.00     0.129 A 
HETATM    6  C10 UNL     1      22.407   2.432  51.202  1.00  0.00     0.093 A 
HETATM    7  C11 UNL     1      22.680   3.354  50.042  1.00  0.00     0.228 A 
HETATM    8  N4  UNL     1      21.883   4.522  50.254  1.00  0.00    -0.257 NA
HETATM    9  C12 UNL     1      22.165   5.576  50.871  1.00  0.00     0.092 C 
HETATM   10  C13 UNL     1      23.397   6.006  51.596  1.00  0.00     0.088 C 
HETATM   11  C14 UNL     1      24.538   5.921  50.619  1.00  0.00    -0.017 A 
HETATM   12  C15 UNL     1      25.333   7.032  50.524  1.00  0.00     0.046 A 
HETATM   13  C16 UNL     1      26.397   6.984  49.621  1.00  0.00     0.066 A 
HETATM   14  C17 UNL     1      26.619   5.849  48.867  1.00  0.00     0.039 A 
HETATM   15  C18 UNL     1      25.813   4.730  48.966  1.00  0.00     0.040 A 
HETATM   16  C19 UNL     1      24.749   4.785  49.870  1.00  0.00     0.079 A 
HETATM   17  O2  UNL     1      24.044   3.604  49.856  1.00  0.00    -0.308 OA
HETATM   18  H1  UNL     1      22.147   2.950  46.860  1.00  0.00     0.187 HD
ENDROOT
BRANCH   5  19
HETATM   19  N3  UNL     1      21.615   0.386  52.208  1.00  0.00    -0.341 N 
HETATM   20  H3  UNL     1      20.643   0.006  52.412  1.00  0.00     0.167 HD
BRANCH  19  21
HETATM   21  C4  UNL     1      22.254  -0.239  53.305  1.00  0.00     0.034 A 
HETATM   22  C5  UNL     1      21.679  -0.992  54.308  1.00  0.00     0.029 A 
HETATM   23  C6  UNL     1      22.482  -1.520  55.293  1.00  0.00     0.004 A 
HETATM   24  C7  UNL     1      23.829  -1.291  55.262  1.00  0.00     0.019 A 
HETATM   25  C8  UNL     1      24.472  -0.538  54.275  1.00  0.00     0.013 A 
HETATM   26 BR1  UNL     1      26.356  -0.245  54.269  1.00  0.00    -0.051 Br
HETATM   27  C9  UNL     1      23.635  -0.015  53.291  1.00  0.00     0.048 A 
ENDBRANCH  19  21
ENDBRANCH   5  19
BRANCH  13  28
HETATM   28  O1  UNL     1      27.211   8.096  49.512  1.00  0.00    -0.361 OA
HETATM   29  H13 UNL     1      27.056   8.725  48.735  1.00  0.00     0.217 HD
ENDBRANCH  13  28
TORSDOF 3
ENDMDL
MODEL 8
REMARK VINA RESULT:      -8.0      3.143      4.422
REMARK  3 active torsions:
REMARK  status: ('A' for Active; 'I' for Inactive)
REMARK    1  A    between atoms: C3_5  and  N3_6 
REMARK    2  A    between atoms: N3_6  and  C4_7 
REMARK    3  A    between atoms: C16_21  and  O1_22 
ROOT
HETATM    1  N1  UNL     1      23.545   6.637  51.464  1.00  0.00    -0.298 NA
HETATM    2  C1  UNL     1      24.571   6.662  50.692  1.00  0.00     0.105 A 
HETATM    3  C2  UNL     1      25.506   7.774  50.615  1.00  0.00     0.151 A 
HETATM    4  N2  UNL     1      26.489   7.650  49.790  1.00  0.00    -0.241 NA
HETATM    5  C3  UNL     1      26.670   6.493  48.986  1.00  0.00     0.129 A 
HETATM    6  C10 UNL     1      25.841   5.470  49.035  1.00  0.00     0.093 A 
HETATM    7  C11 UNL     1      24.622   5.377  49.917  1.00  0.00     0.228 A 
HETATM    8  N4  UNL     1      23.495   5.276  49.043  1.00  0.00    -0.257 NA
HETATM    9  C12 UNL     1      22.951   4.254  48.562  1.00  0.00     0.092 C 
HETATM   10  C13 UNL     1      23.256   2.801  48.710  1.00  0.00     0.088 C 
HETATM   11  C14 UNL     1      23.223   2.488  50.181  1.00  0.00    -0.017 A 
HETATM   12  C15 UNL     1      22.463   1.411  50.551  1.00  0.00     0.046 A 
HETATM   13  C16 UNL     1      22.409   1.100  51.910  1.00  0.00     0.066 A 
HETATM   14  C17 UNL     1      23.104   1.863  52.827  1.00  0.00     0.039 A 
HETATM   15  C18 UNL     1      23.871   2.951  52.450  1.00  0.00     0.040 A 
HETATM   16  C19 UNL     1      23.919   3.257  51.086  1.00  0.00     0.079 A 
HETATM   17  O2  UNL     1      24.717   4.356  50.869  1.00  0.00    -0.308 OA
HETATM   18  H1  UNL     1      23.409   7.498  52.062  1.00  0.00     0.187 HD
ENDROOT
BRANCH   5  19
HETATM   19  N3  UNL     1      27.800   6.566  48.149  1.00  0.00    -0.341 N 
HETATM   20  H3  UNL     1      27.723   6.493  47.090  1.00  0.00     0.167 HD
BRANCH  19  21
HETATM   21  C4  UNL     1      29.206   6.720  48.188  1.00  0.00     0.034 A 
HETATM   22  C5  UNL     1      29.930   7.841  48.536  1.00  0.00     0.029 A 
HETATM   23  C6  UNL     1      31.304   7.786  48.512  1.00  0.00     0.004 A 
HETATM   24  C7  UNL     1      31.927   6.626  48.143  1.00  0.00     0.019 A 
HETATM   25  C8  UNL     1      31.252   5.457  47.780  1.00  0.00     0.013 A 
HETATM   26 BR1  UNL     1      32.162   3.859  47.276  1.00  0.00    -0.051 Br
HETATM   27  C9  UNL     1      29.862   5.542  47.814  1.00  0.00     0.048 A 
ENDBRANCH  19  21
ENDBRANCH   5  19
BRANCH  13  28
HETATM   28  O1  UNL     1      21.646   0.015  52.303  1.00  0.00    -0.361 OA
HETATM   29  H13 UNL     1      21.470  -0.110  53.290  1.00  0.00     0.217 HD
ENDBRANCH  13  28
TORSDOF 3
ENDMDL
MODEL 9
REMARK VINA RESULT:      -8.0      4.046      4.897
REMARK  3 active torsions:
REMARK  status: ('A' for Active; 'I' for Inactive)
REMARK    1  A    between atoms: C3_5  and  N3_6 
REMARK    2  A    between atoms: N3_6  and  C4_7 
REMARK    3  A    between atoms: C16_21  and  O1_22 
ROOT
HETATM    1  N1  UNL     1      24.221   3.835  52.557  1.00  0.00    -0.298 NA
HETATM    2  C1  UNL     1      23.843   3.637  51.345  1.00  0.00     0.105 A 
HETATM    3  C2  UNL     1      24.272   4.446  50.215  1.00  0.00     0.151 A 
HETATM    4  N2  UNL     1      23.806   4.123  49.058  1.00  0.00    -0.241 NA
HETATM    5  C3  UNL     1      22.915   3.031  48.872  1.00  0.00     0.129 A 
HETATM    6  C10 UNL     1      22.510   2.280  49.876  1.00  0.00     0.093 A 
HETATM    7  C11 UNL     1      22.914   2.458  51.316  1.00  0.00     0.228 A 
HETATM    8  N4  UNL     1      21.716   2.748  52.042  1.00  0.00    -0.257 NA
HETATM    9  C12 UNL     1      20.912   1.963  52.596  1.00  0.00     0.092 C 
HETATM   10  C13 UNL     1      20.893   0.475  52.711  1.00  0.00     0.088 C 
HETATM   11  C14 UNL     1      22.194   0.063  53.345  1.00  0.00    -0.017 A 
HETATM   12  C15 UNL     1      22.099  -0.787  54.416  1.00  0.00     0.046 A 
HETATM   13  C16 UNL     1      23.289  -1.182  55.028  1.00  0.00     0.066 A 
HETATM   14  C17 UNL     1      24.502  -0.722  54.554  1.00  0.00     0.039 A 
HETATM   15  C18 UNL     1      24.593   0.136  53.474  1.00  0.00     0.040 A 
HETATM   16  C19 UNL     1      23.397   0.528  52.866  1.00  0.00     0.079 A 
HETATM   17  O2  UNL     1      23.649   1.376  51.812  1.00  0.00    -0.308 OA
HETATM   18  H1  UNL     1      24.884   4.647  52.696  1.00  0.00     0.187 HD
ENDROOT
BRANCH   5  19
HETATM   19  N3  UNL     1      22.520   2.856  47.532  1.00  0.00    -0.341 N 
HETATM   20  H3  UNL     1      22.980   2.138  46.897  1.00  0.00     0.167 HD
BRANCH  19  21
HETATM   21  C4  UNL     1      21.609   3.347  46.567  1.00  0.00     0.034 A 
HETATM   22  C5  UNL     1      21.890   3.888  45.330  1.00  0.00     0.029 A 
HETATM   23  C6  UNL     1      20.852   4.310  44.531  1.00  0.00     0.004 A 
HETATM   24  C7  UNL     1      19.565   4.187  44.975  1.00  0.00     0.019 A 
HETATM   25  C8  UNL     1      19.214   3.649  46.216  1.00  0.00     0.013 A 
HETATM   26 BR1  UNL     1      17.404   3.494  46.795  1.00  0.00    -0.051 Br
HETATM   27  C9  UNL     1      20.285   3.230  47.004  1.00  0.00     0.048 A 
ENDBRANCH  19  21
ENDBRANCH   5  19
BRANCH  13  28
HETATM   28  O1  UNL     1      23.214  -2.040  56.110  1.00  0.00    -0.361 OA
HETATM   29  H13 UNL     1      23.225  -1.638  57.038  1.00  0.00     0.217 HD
ENDBRANCH  13  28
TORSDOF 3
ENDMDL
