MODEL 1
REMARK VINA RESULT:      -7.2      0.000      0.000
REMARK  1 active torsions:
REMARK  status: ('A' for Active; 'I' for Inactive)
REMARK    1  A    between atoms: C3_7  and  O3_8 
ROOT
HETATM    1  O1  UNL     1      26.506   1.950  52.351  1.00  0.00    -0.210 OA
HETATM    2  S1  UNL     1      25.097   2.273  52.081  1.00  0.00     0.223 S 
HETATM    3  O2  UNL     1      24.278   1.073  52.384  1.00  0.00    -0.210 OA
HETATM    4  N1  UNL     1      24.512   3.593  53.097  1.00  0.00    -0.215 NA
HETATM    5  C1  UNL     1      23.180   3.975  52.775  1.00  0.00     0.141 C 
HETATM    6  C2  UNL     1      22.989   5.099  51.825  1.00  0.00    -0.030 C 
HETATM    7  C3  UNL     1      23.836   6.039  51.339  1.00  0.00     0.069 C 
HETATM    8  C4  UNL     1      24.245   6.577  50.007  1.00  0.00     0.034 C 
HETATM    9  C5  UNL     1      24.017   6.338  48.687  1.00  0.00    -0.011 C 
HETATM   10  C6  UNL     1      23.294   5.080  48.201  1.00  0.00     0.060 C 
HETATM   11  C7  UNL     1      21.851   5.328  48.527  1.00  0.00    -0.018 C 
HETATM   12  C8  UNL     1      21.478   5.287  49.840  1.00  0.00    -0.025 C 
HETATM   13  C9  UNL     1      21.564   5.200  51.310  1.00  0.00     0.065 C 
HETATM   14  C10 UNL     1      23.832   3.918  48.993  1.00  0.00    -0.062 A 
HETATM   15  C11 UNL     1      22.760   3.106  49.208  1.00  0.00     0.002 A 
HETATM   16  C12 UNL     1      23.568   2.547  50.151  1.00  0.00     0.001 A 
HETATM   17  C13 UNL     1      24.828   2.923  50.440  1.00  0.00     0.108 A 
HETATM   18  C14 UNL     1      25.938   3.684  50.276  1.00  0.00     0.032 A 
HETATM   19  C15 UNL     1      25.101   4.220  49.348  1.00  0.00     0.051 A 
HETATM   20  H1  UNL     1      24.650   3.295  54.076  1.00  0.00     0.140 HD
ENDROOT
BRANCH   7  21
HETATM   21  O3  UNL     1      24.499   6.667  52.380  1.00  0.00    -0.360 OA
HETATM   22  H4  UNL     1      24.069   6.651  53.298  1.00  0.00     0.217 HD
ENDBRANCH   7  21
TORSDOF 1
ENDMDL
MODEL 2
REMARK VINA RESULT:      -7.1      8.259      9.717
REMARK  1 active torsions:
REMARK  status: ('A' for Active; 'I' for Inactive)
REMARK    1  A    between atoms: C3_7  and  O3_8 
ROOT
HETATM    1  O1  UNL     1      35.265   3.401  47.935  1.00  0.00    -0.210 OA
HETATM    2  S1  UNL     1      34.096   4.008  47.283  1.00  0.00     0.223 S 
HETATM    3  O2  UNL     1      33.984   3.450  45.913  1.00  0.00    -0.210 OA
HETATM    4  N1  UNL     1      32.594   3.642  48.136  1.00  0.00    -0.215 NA
HETATM    5  C1  UNL     1      31.471   4.304  47.568  1.00  0.00     0.141 C 
HETATM    6  C2  UNL     1      31.064   5.607  48.149  1.00  0.00    -0.030 C 
HETATM    7  C3  UNL     1      31.398   6.238  49.302  1.00  0.00     0.069 C 
HETATM    8  C4  UNL     1      31.897   7.581  49.724  1.00  0.00     0.034 C 
HETATM    9  C5  UNL     1      32.305   8.750  49.160  1.00  0.00    -0.011 C 
HETATM   10  C6  UNL     1      32.573   8.880  47.659  1.00  0.00     0.060 C 
HETATM   11  C7  UNL     1      31.208   8.919  47.037  1.00  0.00    -0.018 C 
HETATM   12  C8  UNL     1      30.483   7.762  47.018  1.00  0.00    -0.025 C 
HETATM   13  C9  UNL     1      30.084   6.365  47.272  1.00  0.00     0.065 C 
HETATM   14  C10 UNL     1      33.325   7.649  47.229  1.00  0.00    -0.062 A 
HETATM   15  C11 UNL     1      32.843   7.352  45.990  1.00  0.00     0.002 A 
HETATM   16  C12 UNL     1      33.436   6.147  46.218  1.00  0.00     0.001 A 
HETATM   17  C13 UNL     1      34.117   5.794  47.325  1.00  0.00     0.108 A 
HETATM   18  C14 UNL     1      34.637   6.019  48.556  1.00  0.00     0.032 A 
HETATM   19  C15 UNL     1      34.028   7.208  48.296  1.00  0.00     0.051 A 
HETATM   20  H1  UNL     1      32.518   2.612  48.168  1.00  0.00     0.140 HD
ENDROOT
BRANCH   7  21
HETATM   21  O3  UNL     1      31.220   5.386  50.380  1.00  0.00    -0.360 OA
HETATM   22  H4  UNL     1      31.854   5.474  51.166  1.00  0.00     0.217 HD
ENDBRANCH   7  21
TORSDOF 1
ENDMDL
MODEL 3
REMARK VINA RESULT:      -7.1      3.214      4.768
REMARK  1 active torsions:
REMARK  status: ('A' for Active; 'I' for Inactive)
REMARK    1  A    between atoms: C3_7  and  O3_8 
ROOT
HETATM    1  O1  UNL     1      20.655   3.335  47.254  1.00  0.00    -0.210 OA
HETATM    2  S1  UNL     1      21.584   3.871  48.261  1.00  0.00     0.223 S 
HETATM    3  O2  UNL     1      22.496   4.829  47.589  1.00  0.00    -0.210 OA
HETATM    4  N1  UNL     1      20.742   4.742  49.545  1.00  0.00    -0.215 NA
HETATM    5  C1  UNL     1      21.623   5.180  50.572  1.00  0.00     0.141 C 
HETATM    6  C2  UNL     1      21.792   4.310  51.762  1.00  0.00    -0.030 C 
HETATM    7  C3  UNL     1      21.092   3.244  52.222  1.00  0.00     0.069 C 
HETATM    8  C4  UNL     1      21.371   1.846  52.666  1.00  0.00     0.034 C 
HETATM    9  C5  UNL     1      22.421   0.984  52.753  1.00  0.00    -0.011 C 
HETATM   10  C6  UNL     1      23.769   1.276  52.092  1.00  0.00     0.060 C 
HETATM   11  C7  UNL     1      24.399   2.317  52.969  1.00  0.00    -0.018 C 
HETATM   12  C8  UNL     1      23.876   3.578  52.937  1.00  0.00    -0.025 C 
HETATM   13  C9  UNL     1      22.981   4.707  52.619  1.00  0.00     0.065 C 
HETATM   14  C10 UNL     1      23.488   1.828  50.720  1.00  0.00    -0.062 A 
HETATM   15  C11 UNL     1      24.437   2.783  50.518  1.00  0.00     0.002 A 
HETATM   16  C12 UNL     1      23.607   3.175  49.511  1.00  0.00     0.001 A 
HETATM   17  C13 UNL     1      22.438   2.597  49.177  1.00  0.00     0.108 A 
HETATM   18  C14 UNL     1      21.457   1.670  49.309  1.00  0.00     0.032 A 
HETATM   19  C15 UNL     1      22.308   1.312  50.308  1.00  0.00     0.051 A 
HETATM   20  H1  UNL     1      20.205   5.496  49.087  1.00  0.00     0.140 HD
ENDROOT
BRANCH   7  21
HETATM   21  O3  UNL     1      19.744   3.554  52.295  1.00  0.00    -0.360 OA
HETATM   22  H4  UNL     1      19.344   3.729  53.209  1.00  0.00     0.217 HD
ENDBRANCH   7  21
TORSDOF 1
ENDMDL
MODEL 4
REMARK VINA RESULT:      -6.8      6.503      7.881
REMARK  1 active torsions:
REMARK  status: ('A' for Active; 'I' for Inactive)
REMARK    1  A    between atoms: C3_7  and  O3_8 
ROOT
HETATM    1  O1  UNL     1      31.868   5.394  49.764  1.00  0.00    -0.210 OA
HETATM    2  S1  UNL     1      31.061   5.839  48.618  1.00  0.00     0.223 S 
HETATM    3  O2  UNL     1      31.333   4.932  47.476  1.00  0.00    -0.210 OA
HETATM    4  N1  UNL     1      29.330   5.771  48.957  1.00  0.00    -0.215 NA
HETATM    5  C1  UNL     1      28.547   6.291  47.890  1.00  0.00     0.141 C 
HETATM    6  C2  UNL     1      28.139   7.716  47.955  1.00  0.00    -0.030 C 
HETATM    7  C3  UNL     1      28.155   8.626  48.960  1.00  0.00     0.069 C 
HETATM    8  C4  UNL     1      28.653  10.015  49.187  1.00  0.00     0.034 C 
HETATM    9  C5  UNL     1      29.366  10.972  48.532  1.00  0.00    -0.011 C 
HETATM   10  C6  UNL     1      30.124  10.677  47.236  1.00  0.00     0.060 C 
HETATM   11  C7  UNL     1      29.054  10.591  46.188  1.00  0.00    -0.018 C 
HETATM   12  C8  UNL     1      28.235   9.498  46.202  1.00  0.00    -0.025 C 
HETATM   13  C9  UNL     1      27.602   8.237  46.634  1.00  0.00     0.065 C 
HETATM   14  C10 UNL     1      30.814   9.350  47.410  1.00  0.00    -0.062 A 
HETATM   15  C11 UNL     1      30.730   8.743  46.193  1.00  0.00     0.002 A 
HETATM   16  C12 UNL     1      31.060   7.627  46.901  1.00  0.00     0.001 A 
HETATM   17  C13 UNL     1      31.292   7.567  48.226  1.00  0.00     0.108 A 
HETATM   18  C14 UNL     1      31.405   8.102  49.467  1.00  0.00     0.032 A 
HETATM   19  C15 UNL     1      31.069   9.194  48.728  1.00  0.00     0.051 A 
HETATM   20  H1  UNL     1      29.118   4.792  49.211  1.00  0.00     0.140 HD
ENDROOT
BRANCH   7  21
HETATM   21  O3  UNL     1      27.529   8.108  50.082  1.00  0.00    -0.360 OA
HETATM   22  H4  UNL     1      27.720   8.542  50.977  1.00  0.00     0.217 HD
ENDBRANCH   7  21
TORSDOF 1
ENDMDL
MODEL 5
REMARK VINA RESULT:      -6.7     23.067     24.823
REMARK  1 active torsions:
REMARK  status: ('A' for Active; 'I' for Inactive)
REMARK    1  A    between atoms: C3_7  and  O3_8 
ROOT
HETATM    1  O1  UNL     1      37.929   2.022  70.340  1.00  0.00    -0.210 OA
HETATM    2  S1  UNL     1      37.751   0.680  69.764  1.00  0.00     0.223 S 
HETATM    3  O2  UNL     1      36.417   0.173  70.168  1.00  0.00    -0.210 OA
HETATM    4  N1  UNL     1      37.806   0.702  68.000  1.00  0.00    -0.215 NA
HETATM    5  C1  UNL     1      37.732  -0.603  67.439  1.00  0.00     0.141 C 
HETATM    6  C2  UNL     1      39.004  -1.294  67.113  1.00  0.00    -0.030 C 
HETATM    7  C3  UNL     1      40.284  -0.855  67.015  1.00  0.00     0.069 C 
HETATM    8  C4  UNL     1      41.626  -1.231  67.552  1.00  0.00     0.034 C 
HETATM    9  C5  UNL     1      42.173  -2.124  68.421  1.00  0.00    -0.011 C 
HETATM   10  C6  UNL     1      41.316  -2.970  69.365  1.00  0.00     0.060 C 
HETATM   11  C7  UNL     1      40.712  -4.021  68.481  1.00  0.00    -0.018 C 
HETATM   12  C8  UNL     1      39.736  -3.634  67.607  1.00  0.00    -0.025 C 
HETATM   13  C9  UNL     1      38.818  -2.775  66.837  1.00  0.00     0.065 C 
HETATM   14  C10 UNL     1      40.252  -2.070  69.935  1.00  0.00    -0.062 A 
HETATM   15  C11 UNL     1      39.136  -2.846  70.019  1.00  0.00     0.002 A 
HETATM   16  C12 UNL     1      38.502  -1.649  70.157  1.00  0.00     0.001 A 
HETATM   17  C13 UNL     1      39.088  -0.436  70.161  1.00  0.00     0.108 A 
HETATM   18  C14 UNL     1      40.153   0.400  70.098  1.00  0.00     0.032 A 
HETATM   19  C15 UNL     1      40.751  -0.814  69.957  1.00  0.00     0.051 A 
HETATM   20  H1  UNL     1      37.062   1.347  67.690  1.00  0.00     0.140 HD
ENDROOT
BRANCH   7  21
HETATM   21  O3  UNL     1      40.347   0.249  66.181  1.00  0.00    -0.360 OA
HETATM   22  H4  UNL     1      40.806   0.143  65.284  1.00  0.00     0.217 HD
ENDBRANCH   7  21
TORSDOF 1
ENDMDL
MODEL 6
REMARK VINA RESULT:      -6.7      6.529      8.368
REMARK  1 active torsions:
REMARK  status: ('A' for Active; 'I' for Inactive)
REMARK    1  A    between atoms: C3_7  and  O3_8 
ROOT
HETATM    1  O1  UNL     1      30.815  12.846  49.259  1.00  0.00    -0.210 OA
HETATM    2  S1  UNL     1      30.546  11.520  48.682  1.00  0.00     0.223 S 
HETATM    3  O2  UNL     1      31.716  11.124  47.861  1.00  0.00    -0.210 OA
HETATM    4  N1  UNL     1      30.320  10.287  49.924  1.00  0.00    -0.215 NA
HETATM    5  C1  UNL     1      29.964   9.024  49.376  1.00  0.00     0.141 C 
HETATM    6  C2  UNL     1      28.522   8.686  49.285  1.00  0.00    -0.030 C 
HETATM    7  C3  UNL     1      27.416   9.242  49.838  1.00  0.00     0.069 C 
HETATM    8  C4  UNL     1      26.085   9.743  49.383  1.00  0.00     0.034 C 
HETATM    9  C5  UNL     1      25.399   9.935  48.223  1.00  0.00    -0.011 C 
HETATM   10  C6  UNL     1      26.073   9.834  46.853  1.00  0.00     0.060 C 
HETATM   11  C7  UNL     1      26.262   8.362  46.636  1.00  0.00    -0.018 C 
HETATM   12  C8  UNL     1      27.213   7.725  47.382  1.00  0.00    -0.025 C 
HETATM   13  C9  UNL     1      28.252   7.482  48.399  1.00  0.00     0.065 C 
HETATM   14  C10 UNL     1      27.401  10.538  46.953  1.00  0.00    -0.062 A 
HETATM   15  C11 UNL     1      28.254   9.797  46.192  1.00  0.00     0.002 A 
HETATM   16  C12 UNL     1      29.212  10.500  46.859  1.00  0.00     0.001 A 
HETATM   17  C13 UNL     1      28.996  11.442  47.797  1.00  0.00     0.108 A 
HETATM   18  C14 UNL     1      28.210  12.222  48.579  1.00  0.00     0.032 A 
HETATM   19  C15 UNL     1      27.283  11.498  47.897  1.00  0.00     0.051 A 
HETATM   20  H1  UNL     1      31.180  10.283  50.495  1.00  0.00     0.140 HD
ENDROOT
BRANCH   7  21
HETATM   21  O3  UNL     1      27.582   9.375  51.206  1.00  0.00    -0.360 OA
HETATM   22  H4  UNL     1      28.436   9.018  51.620  1.00  0.00     0.217 HD
ENDBRANCH   7  21
TORSDOF 1
ENDMDL
MODEL 7
REMARK VINA RESULT:      -6.6      2.514      4.662
REMARK  1 active torsions:
REMARK  status: ('A' for Active; 'I' for Inactive)
REMARK    1  A    between atoms: C3_7  and  O3_8 
ROOT
HETATM    1  O1  UNL     1      22.837   7.488  50.988  1.00  0.00    -0.210 OA
HETATM    2  S1  UNL     1      22.192   6.260  50.499  1.00  0.00     0.223 S 
HETATM    3  O2  UNL     1      20.835   6.608  50.013  1.00  0.00    -0.210 OA
HETATM    4  N1  UNL     1      23.076   5.537  49.152  1.00  0.00    -0.215 NA
HETATM    5  C1  UNL     1      22.513   4.298  48.737  1.00  0.00     0.141 C 
HETATM    6  C2  UNL     1      23.077   3.051  49.309  1.00  0.00    -0.030 C 
HETATM    7  C3  UNL     1      24.213   2.796  50.004  1.00  0.00     0.069 C 
HETATM    8  C4  UNL     1      24.603   2.120  51.277  1.00  0.00     0.034 C 
HETATM    9  C5  UNL     1      24.012   1.516  52.344  1.00  0.00    -0.011 C 
HETATM   10  C6  UNL     1      22.505   1.602  52.596  1.00  0.00     0.060 C 
HETATM   11  C7  UNL     1      21.903   0.670  51.585  1.00  0.00    -0.018 C 
HETATM   12  C8  UNL     1      21.917   1.056  50.276  1.00  0.00    -0.025 C 
HETATM   13  C9  UNL     1      22.201   1.836  49.057  1.00  0.00     0.065 C 
HETATM   14  C10 UNL     1      22.085   3.023  52.333  1.00  0.00    -0.062 A 
HETATM   15  C11 UNL     1      20.859   2.930  51.746  1.00  0.00     0.002 A 
HETATM   16  C12 UNL     1      21.099   4.225  51.397  1.00  0.00     0.001 A 
HETATM   17  C13 UNL     1      22.202   4.937  51.699  1.00  0.00     0.108 A 
HETATM   18  C14 UNL     1      23.421   5.109  52.267  1.00  0.00     0.032 A 
HETATM   19  C15 UNL     1      23.149   3.817  52.592  1.00  0.00     0.051 A 
HETATM   20  H1  UNL     1      23.127   6.256  48.413  1.00  0.00     0.140 HD
ENDROOT
BRANCH   7  21
HETATM   21  O3  UNL     1      25.309   3.313  49.333  1.00  0.00    -0.360 OA
HETATM   22  H4  UNL     1      25.915   2.666  48.841  1.00  0.00     0.217 HD
ENDBRANCH   7  21
TORSDOF 1
ENDMDL
MODEL 8
REMARK VINA RESULT:      -6.4     22.803     24.541
REMARK  1 active torsions:
REMARK  status: ('A' for Active; 'I' for Inactive)
REMARK    1  A    between atoms: C3_7  and  O3_8 
ROOT
HETATM    1  O1  UNL     1      36.645  -4.730  68.629  1.00  0.00    -0.210 OA
HETATM    2  S1  UNL     1      37.779  -4.118  67.922  1.00  0.00     0.223 S 
HETATM    3  O2  UNL     1      38.366  -5.134  67.015  1.00  0.00    -0.210 OA
HETATM    4  N1  UNL     1      37.282  -2.741  66.935  1.00  0.00    -0.215 NA
HETATM    5  C1  UNL     1      38.387  -2.084  66.325  1.00  0.00     0.141 C 
HETATM    6  C2  UNL     1      38.974  -0.914  67.023  1.00  0.00    -0.030 C 
HETATM    7  C3  UNL     1      38.536  -0.151  68.054  1.00  0.00     0.069 C 
HETATM    8  C4  UNL     1      39.053   0.337  69.368  1.00  0.00     0.034 C 
HETATM    9  C5  UNL     1      40.152   0.193  70.157  1.00  0.00    -0.011 C 
HETATM   10  C6  UNL     1      41.215  -0.874  69.887  1.00  0.00     0.060 C 
HETATM   11  C7  UNL     1      41.983  -0.348  68.711  1.00  0.00    -0.018 C 
HETATM   12  C8  UNL     1      41.367  -0.356  67.492  1.00  0.00    -0.025 C 
HETATM   13  C9  UNL     1      40.324  -0.507  66.460  1.00  0.00     0.065 C 
HETATM   14  C10 UNL     1      40.494  -2.147  69.532  1.00  0.00    -0.062 A 
HETATM   15  C11 UNL     1      41.255  -2.730  68.565  1.00  0.00     0.002 A 
HETATM   16  C12 UNL     1      40.134  -3.473  68.348  1.00  0.00     0.001 A 
HETATM   17  C13 UNL     1      38.972  -3.372  69.022  1.00  0.00     0.108 A 
HETATM   18  C14 UNL     1      38.159  -2.848  69.972  1.00  0.00     0.032 A 
HETATM   19  C15 UNL     1      39.294  -2.122  70.155  1.00  0.00     0.051 A 
HETATM   20  H1  UNL     1      36.571  -3.093  66.275  1.00  0.00     0.140 HD
ENDROOT
BRANCH   7  21
HETATM   21  O3  UNL     1      37.248   0.294  67.805  1.00  0.00    -0.360 OA
HETATM   22  H4  UNL     1      36.863   0.143  66.880  1.00  0.00     0.217 HD
ENDBRANCH   7  21
TORSDOF 1
ENDMDL
MODEL 9
REMARK VINA RESULT:      -6.4      7.708      9.678
REMARK  1 active torsions:
REMARK  status: ('A' for Active; 'I' for Inactive)
REMARK    1  A    between atoms: C3_7  and  O3_8 
ROOT
HETATM    1  O1  UNL     1      28.252   9.101  48.750  1.00  0.00    -0.210 OA
HETATM    2  S1  UNL     1      29.706   9.151  48.533  1.00  0.00     0.223 S 
HETATM    3  O2  UNL     1      30.098  10.567  48.330  1.00  0.00    -0.210 OA
HETATM    4  N1  UNL     1      30.607   8.538  49.921  1.00  0.00    -0.215 NA
HETATM    5  C1  UNL     1      32.008   8.493  49.681  1.00  0.00     0.141 C 
HETATM    6  C2  UNL     1      32.591   7.218  49.194  1.00  0.00    -0.030 C 
HETATM    7  C3  UNL     1      32.103   5.955  49.133  1.00  0.00     0.069 C 
HETATM    8  C4  UNL     1      31.959   4.872  48.115  1.00  0.00     0.034 C 
HETATM    9  C5  UNL     1      32.180   4.674  46.787  1.00  0.00    -0.011 C 
HETATM   10  C6  UNL     1      32.509   5.826  45.835  1.00  0.00     0.060 C 
HETATM   11  C7  UNL     1      33.937   6.169  46.142  1.00  0.00    -0.018 C 
HETATM   12  C8  UNL     1      34.201   6.796  47.326  1.00  0.00    -0.025 C 
HETATM   13  C9  UNL     1      34.006   7.379  48.667  1.00  0.00     0.065 C 
HETATM   14  C10 UNL     1      31.595   6.971  46.182  1.00  0.00    -0.062 A 
HETATM   15  C11 UNL     1      32.352   8.092  46.024  1.00  0.00     0.002 A 
HETATM   16  C12 UNL     1      31.357   8.678  46.746  1.00  0.00     0.001 A 
HETATM   17  C13 UNL     1      30.258   8.066  47.226  1.00  0.00     0.108 A 
HETATM   18  C14 UNL     1      29.446   6.996  47.415  1.00  0.00     0.032 A 
HETATM   19  C15 UNL     1      30.461   6.444  46.697  1.00  0.00     0.051 A 
HETATM   20  H1  UNL     1      30.326   9.113  50.732  1.00  0.00     0.140 HD
ENDROOT
BRANCH   7  21
HETATM   21  O3  UNL     1      31.605   5.576  50.369  1.00  0.00    -0.360 OA
HETATM   22  H4  UNL     1      31.023   4.748  50.415  1.00  0.00     0.217 HD
ENDBRANCH   7  21
TORSDOF 1
ENDMDL
