MODEL 1
REMARK VINA RESULT:      -8.7      0.000      0.000
REMARK  5 active torsions:
REMARK  status: ('A' for Active; 'I' for Inactive)
REMARK    1  A    between atoms: O1_2  and  C2_3 
REMARK    2  A    between atoms: N3_9  and  C6_10 
REMARK    3  A    between atoms: C9_13  and  C10_14 
REMARK    4  A    between atoms: C19_25  and  O2_26 
REMARK    5  A    between atoms: C22_29  and  O3_30 
ROOT
HETATM    1  C6  UNL     1      24.228   4.883  50.470  1.00  0.00     0.065 A 
HETATM    2  C7  UNL     1      23.398   4.725  51.583  1.00  0.00     0.033 A 
HETATM    3  C8  UNL     1      23.625   3.787  52.590  1.00  0.00     0.011 A 
HETATM    4  C9  UNL     1      24.744   2.948  52.494  1.00  0.00    -0.036 A 
HETATM    5  C18 UNL     1      25.558   3.110  51.395  1.00  0.00     0.047 A 
HETATM    6  C19 UNL     1      25.317   4.042  50.410  1.00  0.00     0.092 A 
ENDROOT
BRANCH   1   7
HETATM    7  N3  UNL     1      23.757   5.899  49.611  1.00  0.00    -0.357 N 
HETATM    8  C5  UNL     1      23.154   5.631  48.285  1.00  0.00     0.275 C 
HETATM    9  N2  UNL     1      23.576   6.734  47.394  1.00  0.00    -0.263 NA
HETATM   10  C4  UNL     1      24.856   7.077  47.420  1.00  0.00     0.228 C 
HETATM   11  N1  UNL     1      26.109   7.669  47.214  1.00  0.00    -0.256 NA
HETATM   12  C3  UNL     1      26.428   8.714  47.950  1.00  0.00     0.129 C 
HETATM   13  C2  UNL     1      25.607   9.355  48.993  1.00  0.00     0.217 C 
HETATM   14  C22 UNL     1      25.566   8.662  50.283  1.00  0.00     0.075 C 
HETATM   15  C21 UNL     1      24.777   7.731  50.850  1.00  0.00     0.028 C 
HETATM   16  C20 UNL     1      23.700   7.323  49.928  1.00  0.00     0.154 C 
BRANCH  13  17
HETATM   17  O1  UNL     1      26.128  10.653  49.208  1.00  0.00    -0.379 OA
HETATM   18  C1  UNL     1      25.851  11.479  48.118  1.00  0.00     0.202 C 
ENDBRANCH  13  17
BRANCH  14  19
HETATM   19  O3  UNL     1      26.694   9.307  50.788  1.00  0.00    -0.362 OA
HETATM   20  H22 UNL     1      27.316   9.805  50.197  1.00  0.00     0.217 HD
ENDBRANCH  14  19
ENDBRANCH   1   7
BRANCH   6  21
HETATM   21  O2  UNL     1      26.100   4.251  49.282  1.00  0.00    -0.358 OA
HETATM   22  H18 UNL     1      25.727   4.485  48.370  1.00  0.00     0.217 HD
ENDBRANCH   6  21
BRANCH   4  23
HETATM   23  C10 UNL     1      25.118   1.899  53.470  1.00  0.00     0.126 A 
HETATM   24  C11 UNL     1      26.478   2.125  54.025  1.00  0.00     0.110 A 
HETATM   25  N4  UNL     1      27.558   1.473  54.125  1.00  0.00    -0.262 NA
HETATM   26  C12 UNL     1      27.814   0.170  53.678  1.00  0.00     0.072 A 
HETATM   27  C13 UNL     1      28.999  -0.522  53.793  1.00  0.00     0.033 A 
HETATM   28  C17 UNL     1      26.732  -0.427  53.065  1.00  0.00     0.030 A 
HETATM   29  C14 UNL     1      29.191  -1.807  53.327  1.00  0.00     0.002 A 
HETATM   30  C15 UNL     1      28.115  -2.419  52.709  1.00  0.00     0.002 A 
HETATM   31  C16 UNL     1      26.909  -1.730  52.586  1.00  0.00     0.021 A 
HETATM   32  S1  UNL     1      25.092   0.227  52.781  1.00  0.00    -0.113 SA
ENDBRANCH   4  23
TORSDOF 5
ENDMDL
MODEL 2
REMARK VINA RESULT:      -8.5      2.777      3.434
REMARK  5 active torsions:
REMARK  status: ('A' for Active; 'I' for Inactive)
REMARK    1  A    between atoms: O1_2  and  C2_3 
REMARK    2  A    between atoms: N3_9  and  C6_10 
REMARK    3  A    between atoms: C9_13  and  C10_14 
REMARK    4  A    between atoms: C19_25  and  O2_26 
REMARK    5  A    between atoms: C22_29  and  O3_30 
ROOT
HETATM    1  C6  UNL     1      22.418   2.472  50.390  1.00  0.00     0.065 A 
HETATM    2  C7  UNL     1      23.729   2.923  50.566  1.00  0.00     0.033 A 
HETATM    3  C8  UNL     1      24.588   2.436  51.552  1.00  0.00     0.011 A 
HETATM    4  C9  UNL     1      24.126   1.438  52.421  1.00  0.00    -0.036 A 
HETATM    5  C18 UNL     1      22.834   0.996  52.240  1.00  0.00     0.047 A 
HETATM    6  C19 UNL     1      21.999   1.490  51.261  1.00  0.00     0.092 A 
ENDROOT
BRANCH   1   7
HETATM    7  N3  UNL     1      21.776   3.141  49.325  1.00  0.00    -0.357 N 
HETATM    8  C5  UNL     1      21.951   2.767  47.904  1.00  0.00     0.275 C 
HETATM    9  N2  UNL     1      21.925   4.025  47.126  1.00  0.00    -0.263 NA
HETATM   10  C4  UNL     1      22.654   5.034  47.581  1.00  0.00     0.228 C 
HETATM   11  N1  UNL     1      23.297   6.260  47.788  1.00  0.00    -0.256 NA
HETATM   12  C3  UNL     1      22.664   7.182  48.486  1.00  0.00     0.129 C 
HETATM   13  C2  UNL     1      21.325   7.077  49.094  1.00  0.00     0.217 C 
HETATM   14  C22 UNL     1      21.253   6.311  50.341  1.00  0.00     0.075 C 
HETATM   15  C21 UNL     1      21.022   5.027  50.670  1.00  0.00     0.028 C 
HETATM   16  C20 UNL     1      20.792   4.210  49.463  1.00  0.00     0.154 C 
BRANCH  13  17
HETATM   17  O1  UNL     1      20.873   8.391  49.358  1.00  0.00    -0.379 OA
HETATM   18  C1  UNL     1      20.803   9.132  48.178  1.00  0.00     0.202 C 
ENDBRANCH  13  17
BRANCH  14  19
HETATM   19  O3  UNL     1      21.527   7.409  51.157  1.00  0.00    -0.362 OA
HETATM   20  H22 UNL     1      21.005   8.250  51.088  1.00  0.00     0.217 HD
ENDBRANCH  14  19
ENDBRANCH   1   7
BRANCH   6  21
HETATM   21  O2  UNL     1      20.691   1.085  51.031  1.00  0.00    -0.358 OA
HETATM   22  H18 UNL     1      20.402   0.117  50.963  1.00  0.00     0.217 HD
ENDBRANCH   6  21
BRANCH   4  23
HETATM   23  C10 UNL     1      24.908   0.827  53.519  1.00  0.00     0.126 A 
HETATM   24  C11 UNL     1      26.028   1.703  53.950  1.00  0.00     0.110 A 
HETATM   25  N4  UNL     1      27.283   1.607  54.081  1.00  0.00    -0.262 NA
HETATM   26  C12 UNL     1      28.085   0.488  53.821  1.00  0.00     0.072 A 
HETATM   27  C13 UNL     1      29.452   0.403  53.966  1.00  0.00     0.033 A 
HETATM   28  C17 UNL     1      27.378  -0.608  53.372  1.00  0.00     0.030 A 
HETATM   29  C14 UNL     1      30.189  -0.731  53.688  1.00  0.00     0.002 A 
HETATM   30  C15 UNL     1      29.493  -1.838  53.238  1.00  0.00     0.002 A 
HETATM   31  C16 UNL     1      28.109  -1.766  53.085  1.00  0.00     0.021 A 
HETATM   32  S1  UNL     1      25.620  -0.780  53.093  1.00  0.00    -0.113 SA
ENDBRANCH   4  23
TORSDOF 5
ENDMDL
MODEL 3
REMARK VINA RESULT:      -8.2      4.473      6.973
REMARK  5 active torsions:
REMARK  status: ('A' for Active; 'I' for Inactive)
REMARK    1  A    between atoms: O1_2  and  C2_3 
REMARK    2  A    between atoms: N3_9  and  C6_10 
REMARK    3  A    between atoms: C9_13  and  C10_14 
REMARK    4  A    between atoms: C19_25  and  O2_26 
REMARK    5  A    between atoms: C22_29  and  O3_30 
ROOT
HETATM    1  C6  UNL     1      28.704   8.368  48.793  1.00  0.00     0.065 A 
HETATM    2  C7  UNL     1      28.276   7.279  48.028  1.00  0.00     0.033 A 
HETATM    3  C8  UNL     1      27.025   6.679  48.168  1.00  0.00     0.011 A 
HETATM    4  C9  UNL     1      26.134   7.185  49.125  1.00  0.00    -0.036 A 
HETATM    5  C18 UNL     1      26.560   8.259  49.874  1.00  0.00     0.047 A 
HETATM    6  C19 UNL     1      27.801   8.838  49.722  1.00  0.00     0.092 A 
ENDROOT
BRANCH   1   7
HETATM    7  N3  UNL     1      30.013   8.766  48.445  1.00  0.00    -0.357 N 
HETATM    8  C5  UNL     1      30.307   9.802  47.430  1.00  0.00     0.275 C 
HETATM    9  N2  UNL     1      31.540   9.377  46.732  1.00  0.00    -0.263 NA
HETATM   10  C4  UNL     1      31.610   8.112  46.344  1.00  0.00     0.228 C 
HETATM   11  N1  UNL     1      31.992   6.870  45.819  1.00  0.00    -0.256 NA
HETATM   12  C3  UNL     1      32.663   6.047  46.599  1.00  0.00     0.129 C 
HETATM   13  C2  UNL     1      33.072   6.278  47.997  1.00  0.00     0.217 C 
HETATM   14  C22 UNL     1      32.018   6.115  49.001  1.00  0.00     0.075 C 
HETATM   15  C21 UNL     1      31.118   6.922  49.592  1.00  0.00     0.028 C 
HETATM   16  C20 UNL     1      31.240   8.303  49.085  1.00  0.00     0.154 C 
BRANCH  13  17
HETATM   17  O1  UNL     1      34.108   5.362  48.294  1.00  0.00    -0.379 OA
HETATM   18  C1  UNL     1      35.322   6.031  48.461  1.00  0.00     0.202 C 
ENDBRANCH  13  17
BRANCH  14  19
HETATM   19  O3  UNL     1      32.242   4.749  49.171  1.00  0.00    -0.362 OA
HETATM   20  H22 UNL     1      32.782   4.401  49.928  1.00  0.00     0.217 HD
ENDBRANCH  14  19
ENDBRANCH   1   7
BRANCH   6  21
HETATM   21  O2  UNL     1      28.286   9.920  50.445  1.00  0.00    -0.358 OA
HETATM   22  H18 UNL     1      29.177   9.926  50.926  1.00  0.00     0.217 HD
ENDBRANCH   6  21
BRANCH   4  23
HETATM   23  C10 UNL     1      24.780   6.656  49.401  1.00  0.00     0.126 A 
HETATM   24  C11 UNL     1      24.436   6.754  50.844  1.00  0.00     0.110 A 
HETATM   25  N4  UNL     1      24.055   5.971  51.762  1.00  0.00    -0.262 NA
HETATM   26  C12 UNL     1      23.816   4.594  51.664  1.00  0.00     0.072 A 
HETATM   27  C13 UNL     1      23.405   3.755  52.676  1.00  0.00     0.033 A 
HETATM   28  C17 UNL     1      24.035   4.082  50.402  1.00  0.00     0.030 A 
HETATM   29  C14 UNL     1      23.189   2.402  52.517  1.00  0.00     0.002 A 
HETATM   30  C15 UNL     1      23.405   1.874  51.257  1.00  0.00     0.002 A 
HETATM   31  C16 UNL     1      23.822   2.711  50.223  1.00  0.00     0.021 A 
HETATM   32  S1  UNL     1      24.565   4.927  48.917  1.00  0.00    -0.113 SA
ENDBRANCH   4  23
TORSDOF 5
ENDMDL
MODEL 4
REMARK VINA RESULT:      -8.2      2.734      4.673
REMARK  5 active torsions:
REMARK  status: ('A' for Active; 'I' for Inactive)
REMARK    1  A    between atoms: O1_2  and  C2_3 
REMARK    2  A    between atoms: N3_9  and  C6_10 
REMARK    3  A    between atoms: C9_13  and  C10_14 
REMARK    4  A    between atoms: C19_25  and  O2_26 
REMARK    5  A    between atoms: C22_29  and  O3_30 
ROOT
HETATM    1  C6  UNL     1      23.920   4.141  50.373  1.00  0.00     0.065 A 
HETATM    2  C7  UNL     1      23.121   3.892  51.493  1.00  0.00     0.033 A 
HETATM    3  C8  UNL     1      23.513   3.078  52.556  1.00  0.00     0.011 A 
HETATM    4  C9  UNL     1      24.775   2.469  52.515  1.00  0.00    -0.036 A 
HETATM    5  C18 UNL     1      25.557   2.721  51.410  1.00  0.00     0.047 A 
HETATM    6  C19 UNL     1      25.154   3.527  50.368  1.00  0.00     0.092 A 
ENDROOT
BRANCH   1   7
HETATM    7  N3  UNL     1      23.273   4.992  49.452  1.00  0.00    -0.357 N 
HETATM    8  C5  UNL     1      23.195   6.461  49.615  1.00  0.00     0.275 C 
HETATM    9  N2  UNL     1      21.874   6.879  49.098  1.00  0.00    -0.263 NA
HETATM   10  C4  UNL     1      20.822   6.170  49.483  1.00  0.00     0.228 C 
HETATM   11  N1  UNL     1      19.541   5.644  49.692  1.00  0.00    -0.256 NA
HETATM   12  C3  UNL     1      19.103   4.728  48.851  1.00  0.00     0.129 C 
HETATM   13  C2  UNL     1      19.815   4.174  47.685  1.00  0.00     0.217 C 
HETATM   14  C22 UNL     1      20.843   3.175  47.986  1.00  0.00     0.075 C 
HETATM   15  C21 UNL     1      22.165   3.198  48.231  1.00  0.00     0.028 C 
HETATM   16  C20 UNL     1      22.683   4.579  48.182  1.00  0.00     0.154 C 
BRANCH  13  17
HETATM   17  O1  UNL     1      18.849   3.573  46.843  1.00  0.00    -0.379 OA
HETATM   18  C1  UNL     1      17.876   4.501  46.472  1.00  0.00     0.202 C 
ENDBRANCH  13  17
BRANCH  14  19
HETATM   19  O3  UNL     1      19.959   2.096  47.947  1.00  0.00    -0.362 OA
HETATM   20  H22 UNL     1      19.223   2.051  47.283  1.00  0.00     0.217 HD
ENDBRANCH  14  19
ENDBRANCH   1   7
BRANCH   6  21
HETATM   21  O2  UNL     1      25.896   3.816  49.232  1.00  0.00    -0.358 OA
HETATM   22  H18 UNL     1      26.629   3.220  48.867  1.00  0.00     0.217 HD
ENDBRANCH   6  21
BRANCH   4  23
HETATM   23  C10 UNL     1      25.331   1.575  53.554  1.00  0.00     0.126 A 
HETATM   24  C11 UNL     1      26.676   2.022  54.002  1.00  0.00     0.110 A 
HETATM   25  N4  UNL     1      27.836   1.524  54.092  1.00  0.00    -0.262 NA
HETATM   26  C12 UNL     1      28.238   0.227  53.746  1.00  0.00     0.072 A 
HETATM   27  C13 UNL     1      29.508  -0.296  53.848  1.00  0.00     0.033 A 
HETATM   28  C17 UNL     1      27.215  -0.558  53.257  1.00  0.00     0.030 A 
HETATM   29  C14 UNL     1      29.843  -1.585  53.486  1.00  0.00     0.002 A 
HETATM   30  C15 UNL     1      28.827  -2.384  52.994  1.00  0.00     0.002 A 
HETATM   31  C16 UNL     1      27.536  -1.868  52.885  1.00  0.00     0.021 A 
HETATM   32  S1  UNL     1      25.491  -0.145  53.019  1.00  0.00    -0.113 SA
ENDBRANCH   4  23
TORSDOF 5
ENDMDL
MODEL 5
REMARK VINA RESULT:      -8.1      2.857      3.996
REMARK  5 active torsions:
REMARK  status: ('A' for Active; 'I' for Inactive)
REMARK    1  A    between atoms: O1_2  and  C2_3 
REMARK    2  A    between atoms: N3_9  and  C6_10 
REMARK    3  A    between atoms: C9_13  and  C10_14 
REMARK    4  A    between atoms: C19_25  and  O2_26 
REMARK    5  A    between atoms: C22_29  and  O3_30 
ROOT
HETATM    1  C6  UNL     1      23.768   4.572  50.302  1.00  0.00     0.065 A 
HETATM    2  C7  UNL     1      24.478   3.429  49.922  1.00  0.00     0.033 A 
HETATM    3  C8  UNL     1      24.966   2.486  50.827  1.00  0.00     0.011 A 
HETATM    4  C9  UNL     1      24.740   2.681  52.197  1.00  0.00    -0.036 A 
HETATM    5  C18 UNL     1      24.039   3.807  52.564  1.00  0.00     0.047 A 
HETATM    6  C19 UNL     1      23.565   4.729  51.656  1.00  0.00     0.092 A 
ENDROOT
BRANCH   1   7
HETATM    7  N3  UNL     1      23.402   5.352  49.184  1.00  0.00    -0.357 N 
HETATM    8  C5  UNL     1      24.256   6.424  48.624  1.00  0.00     0.275 C 
HETATM    9  N2  UNL     1      23.347   7.494  48.159  1.00  0.00    -0.263 NA
HETATM   10  C4  UNL     1      22.374   7.862  48.981  1.00  0.00     0.228 C 
HETATM   11  N1  UNL     1      21.270   8.465  49.595  1.00  0.00    -0.256 NA
HETATM   12  C3  UNL     1      20.078   7.947  49.374  1.00  0.00     0.129 C 
HETATM   13  C2  UNL     1      19.756   6.777  48.536  1.00  0.00     0.217 C 
HETATM   14  C22 UNL     1      20.035   5.471  49.137  1.00  0.00     0.075 C 
HETATM   15  C21 UNL     1      21.078   4.622  49.153  1.00  0.00     0.028 C 
HETATM   16  C20 UNL     1      22.206   5.163  48.370  1.00  0.00     0.154 C 
BRANCH  13  17
HETATM   17  O1  UNL     1      18.375   6.837  48.235  1.00  0.00    -0.379 OA
HETATM   18  C1  UNL     1      18.101   7.922  47.401  1.00  0.00     0.202 C 
ENDBRANCH  13  17
BRANCH  14  19
HETATM   19  O3  UNL     1      18.786   5.365  49.749  1.00  0.00    -0.362 OA
HETATM   20  H22 UNL     1      18.363   6.139  50.204  1.00  0.00     0.217 HD
ENDBRANCH  14  19
ENDBRANCH   1   7
BRANCH   6  21
HETATM   21  O2  UNL     1      22.853   5.880  51.965  1.00  0.00    -0.358 OA
HETATM   22  H18 UNL     1      22.381   6.033  52.848  1.00  0.00     0.217 HD
ENDBRANCH   6  21
BRANCH   4  23
HETATM   23  C10 UNL     1      25.199   1.781  53.279  1.00  0.00     0.126 A 
HETATM   24  C11 UNL     1      26.447   2.279  53.914  1.00  0.00     0.110 A 
HETATM   25  N4  UNL     1      27.609   1.836  54.147  1.00  0.00    -0.262 NA
HETATM   26  C12 UNL     1      28.121   0.572  53.826  1.00  0.00     0.072 A 
HETATM   27  C13 UNL     1      29.393   0.108  54.085  1.00  0.00     0.033 A 
HETATM   28  C17 UNL     1      27.216  -0.246  53.184  1.00  0.00     0.030 A 
HETATM   29  C14 UNL     1      29.840  -1.150  53.739  1.00  0.00     0.002 A 
HETATM   30  C15 UNL     1      28.943  -1.982  53.094  1.00  0.00     0.002 A 
HETATM   31  C16 UNL     1      27.653  -1.526  52.826  1.00  0.00     0.021 A 
HETATM   32  S1  UNL     1      25.519   0.089  52.726  1.00  0.00    -0.113 SA
ENDBRANCH   4  23
TORSDOF 5
ENDMDL
MODEL 6
REMARK VINA RESULT:      -8.1      7.042     10.086
REMARK  5 active torsions:
REMARK  status: ('A' for Active; 'I' for Inactive)
REMARK    1  A    between atoms: O1_2  and  C2_3 
REMARK    2  A    between atoms: N3_9  and  C6_10 
REMARK    3  A    between atoms: C9_13  and  C10_14 
REMARK    4  A    between atoms: C19_25  and  O2_26 
REMARK    5  A    between atoms: C22_29  and  O3_30 
ROOT
HETATM    1  C6  UNL     1      19.775   1.319  51.641  1.00  0.00     0.065 A 
HETATM    2  C7  UNL     1      18.965   0.270  51.196  1.00  0.00     0.033 A 
HETATM    3  C8  UNL     1      17.591   0.388  50.988  1.00  0.00     0.011 A 
HETATM    4  C9  UNL     1      16.972   1.622  51.235  1.00  0.00    -0.036 A 
HETATM    5  C18 UNL     1      17.776   2.652  51.671  1.00  0.00     0.047 A 
HETATM    6  C19 UNL     1      19.133   2.516  51.871  1.00  0.00     0.092 A 
ENDROOT
BRANCH   1   7
HETATM    7  N3  UNL     1      21.122   0.917  51.769  1.00  0.00    -0.357 N 
HETATM    8  C5  UNL     1      21.689   0.353  53.015  1.00  0.00     0.275 C 
HETATM    9  N2  UNL     1      23.080   0.847  53.113  1.00  0.00    -0.263 NA
HETATM   10  C4  UNL     1      23.281   2.137  52.885  1.00  0.00     0.228 C 
HETATM   11  N1  UNL     1      23.819   3.418  52.706  1.00  0.00    -0.256 NA
HETATM   12  C3  UNL     1      24.241   3.750  51.502  1.00  0.00     0.129 C 
HETATM   13  C2  UNL     1      24.214   2.915  50.286  1.00  0.00     0.217 C 
HETATM   14  C22 UNL     1      22.911   2.802  49.624  1.00  0.00     0.075 C 
HETATM   15  C21 UNL     1      21.865   1.960  49.697  1.00  0.00     0.028 C 
HETATM   16  C20 UNL     1      22.111   0.903  50.696  1.00  0.00     0.154 C 
BRANCH  13  17
HETATM   17  O1  UNL     1      25.128   3.477  49.365  1.00  0.00    -0.379 OA
HETATM   18  C1  UNL     1      26.441   3.281  49.796  1.00  0.00     0.202 C 
ENDBRANCH  13  17
BRANCH  14  19
HETATM   19  O3  UNL     1      23.095   3.935  48.832  1.00  0.00    -0.362 OA
HETATM   20  H22 UNL     1      22.889   4.845  49.170  1.00  0.00     0.217 HD
ENDBRANCH  14  19
ENDBRANCH   1   7
BRANCH   6  21
HETATM   21  O2  UNL     1      19.992   3.515  52.308  1.00  0.00    -0.358 OA
HETATM   22  H18 UNL     1      20.285   3.628  53.271  1.00  0.00     0.217 HD
ENDBRANCH   6  21
BRANCH   4  23
HETATM   23  C10 UNL     1      15.529   1.906  51.073  1.00  0.00     0.126 A 
HETATM   24  C11 UNL     1      15.235   3.356  51.214  1.00  0.00     0.110 A 
HETATM   25  N4  UNL     1      14.479   4.084  51.920  1.00  0.00    -0.262 NA
HETATM   26  C12 UNL     1      13.577   3.671  52.909  1.00  0.00     0.072 A 
HETATM   27  C13 UNL     1      12.764   4.480  53.672  1.00  0.00     0.033 A 
HETATM   28  C17 UNL     1      13.547   2.305  53.096  1.00  0.00     0.030 A 
HETATM   29  C14 UNL     1      11.896   4.013  54.637  1.00  0.00     0.002 A 
HETATM   30  C15 UNL     1      11.855   2.645  54.836  1.00  0.00     0.002 A 
HETATM   31  C16 UNL     1      12.673   1.813  54.071  1.00  0.00     0.021 A 
HETATM   32  S1  UNL     1      14.482   1.031  52.259  1.00  0.00    -0.113 SA
ENDBRANCH   4  23
TORSDOF 5
ENDMDL
MODEL 7
REMARK VINA RESULT:      -7.9      3.121      3.861
REMARK  5 active torsions:
REMARK  status: ('A' for Active; 'I' for Inactive)
REMARK    1  A    between atoms: O1_2  and  C2_3 
REMARK    2  A    between atoms: N3_9  and  C6_10 
REMARK    3  A    between atoms: C9_13  and  C10_14 
REMARK    4  A    between atoms: C19_25  and  O2_26 
REMARK    5  A    between atoms: C22_29  and  O3_30 
ROOT
HETATM    1  C6  UNL     1      23.564   6.041  50.336  1.00  0.00     0.065 A 
HETATM    2  C7  UNL     1      23.343   5.300  49.172  1.00  0.00     0.033 A 
HETATM    3  C8  UNL     1      23.232   3.909  49.150  1.00  0.00     0.011 A 
HETATM    4  C9  UNL     1      23.347   3.201  50.354  1.00  0.00    -0.036 A 
HETATM    5  C18 UNL     1      23.563   3.938  51.498  1.00  0.00     0.047 A 
HETATM    6  C19 UNL     1      23.670   5.312  51.500  1.00  0.00     0.092 A 
ENDROOT
BRANCH   1   7
HETATM    7  N3  UNL     1      23.640   7.424  50.065  1.00  0.00    -0.357 N 
HETATM    8  C5  UNL     1      22.529   8.200  49.469  1.00  0.00     0.275 C 
HETATM    9  N2  UNL     1      23.143   9.213  48.583  1.00  0.00    -0.263 NA
HETATM   10  C4  UNL     1      24.100   8.800  47.765  1.00  0.00     0.228 C 
HETATM   11  N1  UNL     1      25.116   8.692  46.806  1.00  0.00    -0.256 NA
HETATM   12  C3  UNL     1      26.358   8.902  47.193  1.00  0.00     0.129 C 
HETATM   13  C2  UNL     1      26.824   9.245  48.550  1.00  0.00     0.217 C 
HETATM   14  C22 UNL     1      26.886   8.131  49.499  1.00  0.00     0.075 C 
HETATM   15  C21 UNL     1      26.048   7.586  50.399  1.00  0.00     0.028 C 
HETATM   16  C20 UNL     1      24.756   8.299  50.411  1.00  0.00     0.154 C 
BRANCH  13  17
HETATM   17  O1  UNL     1      28.123   9.793  48.428  1.00  0.00    -0.379 OA
HETATM   18  C1  UNL     1      28.057  11.173  48.234  1.00  0.00     0.202 C 
ENDBRANCH  13  17
BRANCH  14  19
HETATM   19  O3  UNL     1      28.188   7.769  49.154  1.00  0.00    -0.362 OA
HETATM   20  H22 UNL     1      28.706   7.118  49.695  1.00  0.00     0.217 HD
ENDBRANCH  14  19
ENDBRANCH   1   7
BRANCH   6  21
HETATM   21  O2  UNL     1      23.887   6.106  52.618  1.00  0.00    -0.358 OA
HETATM   22  H18 UNL     1      23.568   7.063  52.702  1.00  0.00     0.217 HD
ENDBRANCH   6  21
BRANCH   4  23
HETATM   23  C10 UNL     1      23.263   1.731  50.497  1.00  0.00     0.126 A 
HETATM   24  C11 UNL     1      21.854   1.267  50.584  1.00  0.00     0.110 A 
HETATM   25  N4  UNL     1      21.151   0.579  51.381  1.00  0.00    -0.262 NA
HETATM   26  C12 UNL     1      21.562  -0.025  52.577  1.00  0.00     0.072 A 
HETATM   27  C13 UNL     1      20.781  -0.768  53.435  1.00  0.00     0.033 A 
HETATM   28  C17 UNL     1      22.893   0.183  52.874  1.00  0.00     0.030 A 
HETATM   29  C14 UNL     1      21.244  -1.336  54.604  1.00  0.00     0.002 A 
HETATM   30  C15 UNL     1      22.577  -1.136  54.915  1.00  0.00     0.002 A 
HETATM   31  C16 UNL     1      23.379  -0.386  54.056  1.00  0.00     0.021 A 
HETATM   32  S1  UNL     1      24.126   1.094  51.954  1.00  0.00    -0.113 SA
ENDBRANCH   4  23
TORSDOF 5
ENDMDL
MODEL 8
REMARK VINA RESULT:      -7.9      3.763      9.059
REMARK  5 active torsions:
REMARK  status: ('A' for Active; 'I' for Inactive)
REMARK    1  A    between atoms: O1_2  and  C2_3 
REMARK    2  A    between atoms: N3_9  and  C6_10 
REMARK    3  A    between atoms: C9_13  and  C10_14 
REMARK    4  A    between atoms: C19_25  and  O2_26 
REMARK    5  A    between atoms: C22_29  and  O3_30 
ROOT
HETATM    1  C6  UNL     1      25.545   6.347  49.404  1.00  0.00     0.065 A 
HETATM    2  C7  UNL     1      26.276   6.588  48.237  1.00  0.00     0.033 A 
HETATM    3  C8  UNL     1      27.075   7.715  48.044  1.00  0.00     0.011 A 
HETATM    4  C9  UNL     1      27.161   8.668  49.069  1.00  0.00    -0.036 A 
HETATM    5  C18 UNL     1      26.441   8.424  50.216  1.00  0.00     0.047 A 
HETATM    6  C19 UNL     1      25.656   7.305  50.389  1.00  0.00     0.092 A 
ENDROOT
BRANCH   1   7
HETATM    7  N3  UNL     1      24.822   5.138  49.324  1.00  0.00    -0.357 N 
HETATM    8  C5  UNL     1      23.355   5.077  49.131  1.00  0.00     0.275 C 
HETATM    9  N2  UNL     1      22.870   3.921  49.914  1.00  0.00    -0.263 NA
HETATM   10  C4  UNL     1      23.323   3.795  51.153  1.00  0.00     0.228 C 
HETATM   11  N1  UNL     1      23.605   3.384  52.462  1.00  0.00    -0.256 NA
HETATM   12  C3  UNL     1      24.603   2.543  52.646  1.00  0.00     0.129 C 
HETATM   13  C2  UNL     1      25.485   1.966  51.615  1.00  0.00     0.217 C 
HETATM   14  C22 UNL     1      26.536   2.854  51.112  1.00  0.00     0.075 C 
HETATM   15  C21 UNL     1      26.653   3.730  50.097  1.00  0.00     0.028 C 
HETATM   16  C20 UNL     1      25.401   3.799  49.318  1.00  0.00     0.154 C 
BRANCH  13  17
HETATM   17  O1  UNL     1      26.104   0.824  52.174  1.00  0.00    -0.379 OA
HETATM   18  C1  UNL     1      25.189   0.093  52.933  1.00  0.00     0.202 C 
ENDBRANCH  13  17
BRANCH  14  19
HETATM   19  O3  UNL     1      27.461   2.491  52.091  1.00  0.00    -0.362 OA
HETATM   20  H22 UNL     1      27.233   2.521  53.056  1.00  0.00     0.217 HD
ENDBRANCH  14  19
ENDBRANCH   1   7
BRANCH   6  21
HETATM   21  O2  UNL     1      24.909   7.004  51.520  1.00  0.00    -0.358 OA
HETATM   22  H18 UNL     1      23.938   6.717  51.498  1.00  0.00     0.217 HD
ENDBRANCH   6  21
BRANCH   4  23
HETATM   23  C10 UNL     1      27.955   9.917  49.015  1.00  0.00     0.126 A 
HETATM   24  C11 UNL     1      27.770  10.631  47.725  1.00  0.00     0.110 A 
HETATM   25  N4  UNL     1      28.506  11.071  46.795  1.00  0.00    -0.262 NA
HETATM   26  C12 UNL     1      29.903  11.001  46.707  1.00  0.00     0.072 A 
HETATM   27  C13 UNL     1      30.688  11.484  45.683  1.00  0.00     0.033 A 
HETATM   28  C17 UNL     1      30.495  10.369  47.780  1.00  0.00     0.030 A 
HETATM   29  C14 UNL     1      32.064  11.380  45.651  1.00  0.00     0.002 A 
HETATM   30  C15 UNL     1      32.672  10.749  46.721  1.00  0.00     0.002 A 
HETATM   31  C16 UNL     1      31.889  10.255  47.764  1.00  0.00     0.021 A 
HETATM   32  S1  UNL     1      29.731   9.655  49.231  1.00  0.00    -0.113 SA
ENDBRANCH   4  23
TORSDOF 5
ENDMDL
MODEL 9
REMARK VINA RESULT:      -7.8      5.183      8.348
REMARK  5 active torsions:
REMARK  status: ('A' for Active; 'I' for Inactive)
REMARK    1  A    between atoms: O1_2  and  C2_3 
REMARK    2  A    between atoms: N3_9  and  C6_10 
REMARK    3  A    between atoms: C9_13  and  C10_14 
REMARK    4  A    between atoms: C19_25  and  O2_26 
REMARK    5  A    between atoms: C22_29  and  O3_30 
ROOT
HETATM    1  C6  UNL     1      30.009   8.513  48.299  1.00  0.00     0.065 A 
HETATM    2  C7  UNL     1      29.190   7.743  47.470  1.00  0.00     0.033 A 
HETATM    3  C8  UNL     1      27.818   7.585  47.669  1.00  0.00     0.011 A 
HETATM    4  C9  UNL     1      27.212   8.230  48.756  1.00  0.00    -0.036 A 
HETATM    5  C18 UNL     1      28.025   8.990  49.568  1.00  0.00     0.047 A 
HETATM    6  C19 UNL     1      29.379   9.133  49.357  1.00  0.00     0.092 A 
ENDROOT
BRANCH   1   7
HETATM    7  N3  UNL     1      31.353   8.490  47.869  1.00  0.00    -0.357 N 
HETATM    8  C5  UNL     1      31.871   9.335  46.769  1.00  0.00     0.275 C 
HETATM    9  N2  UNL     1      32.883   8.528  46.053  1.00  0.00    -0.263 NA
HETATM   10  C4  UNL     1      32.561   7.277  45.756  1.00  0.00     0.228 C 
HETATM   11  N1  UNL     1      32.534   5.951  45.307  1.00  0.00    -0.256 NA
HETATM   12  C3  UNL     1      32.985   5.014  46.117  1.00  0.00     0.129 C 
HETATM   13  C2  UNL     1      33.529   5.195  47.475  1.00  0.00     0.217 C 
HETATM   14  C22 UNL     1      32.537   5.406  48.532  1.00  0.00     0.075 C 
HETATM   15  C21 UNL     1      31.947   6.473  49.100  1.00  0.00     0.028 C 
HETATM   16  C20 UNL     1      32.432   7.726  48.488  1.00  0.00     0.154 C 
BRANCH  13  17
HETATM   17  O1  UNL     1      34.273   4.034  47.794  1.00  0.00    -0.379 OA
HETATM   18  C1  UNL     1      34.973   3.578  46.677  1.00  0.00     0.202 C 
ENDBRANCH  13  17
BRANCH  14  19
HETATM   19  O3  UNL     1      32.367   4.046  48.792  1.00  0.00    -0.362 OA
HETATM   20  H22 UNL     1      31.775   3.480  48.232  1.00  0.00     0.217 HD
ENDBRANCH  14  19
ENDBRANCH   1   7
BRANCH   6  21
HETATM   21  O2  UNL     1      30.247   9.883  50.138  1.00  0.00    -0.358 OA
HETATM   22  H18 UNL     1      30.087  10.850  50.393  1.00  0.00     0.217 HD
ENDBRANCH   6  21
BRANCH   4  23
HETATM   23  C10 UNL     1      25.776   8.156  49.107  1.00  0.00     0.126 A 
HETATM   24  C11 UNL     1      25.546   7.301  50.300  1.00  0.00     0.110 A 
HETATM   25  N4  UNL     1      24.846   6.289  50.594  1.00  0.00    -0.262 NA
HETATM   26  C12 UNL     1      23.964   5.589  49.759  1.00  0.00     0.072 A 
HETATM   27  C13 UNL     1      23.212   4.486  50.096  1.00  0.00     0.033 A 
HETATM   28  C17 UNL     1      23.886   6.102  48.481  1.00  0.00     0.030 A 
HETATM   29  C14 UNL     1      22.361   3.836  49.225  1.00  0.00     0.002 A 
HETATM   30  C15 UNL     1      22.273   4.339  47.940  1.00  0.00     0.002 A 
HETATM   31  C16 UNL     1      23.029   5.456  47.585  1.00  0.00     0.021 A 
HETATM   32  S1  UNL     1      24.738   7.508  47.776  1.00  0.00    -0.113 SA
ENDBRANCH   4  23
TORSDOF 5
ENDMDL
