MODEL 1
REMARK VINA RESULT:      -7.2      0.000      0.000
REMARK  7 active torsions:
REMARK  status: ('A' for Active; 'I' for Inactive)
REMARK    1  A    between atoms: N1_2  and  C3_4 
REMARK    2  A    between atoms: C3_4  and  C4_5 
REMARK    3  A    between atoms: C4_5  and  C5_6 
REMARK    4  A    between atoms: C5_6  and  C6_8 
REMARK    5  A    between atoms: C9_12  and  O2_14 
REMARK    6  A    between atoms: O2_14  and  C11_15 
REMARK    7  A    between atoms: C11_15  and  C12_16 
ROOT
HETATM    1  C6  UNL     1      27.348   1.609  52.400  1.00  0.00    -0.009 A 
HETATM    2  C7  UNL     1      28.119   2.318  53.201  1.00  0.00     0.012 A 
HETATM    3  C8  UNL     1      28.732   1.621  54.322  1.00  0.00     0.015 A 
HETATM    4  P1  UNL     1      28.474   0.010  54.585  1.00  0.00    -0.022 P 
HETATM    5  C9  UNL     1      27.353  -0.746  53.318  1.00  0.00     0.091 A 
HETATM    6  C10 UNL     1      28.112  -1.924  52.723  1.00  0.00     0.052 C 
HETATM    7  C18 UNL     1      26.909   0.232  52.304  1.00  0.00     0.085 A 
ENDROOT
BRANCH   5   8
HETATM    8  O2  UNL     1      26.175  -1.296  53.883  1.00  0.00    -0.370 OA
BRANCH   8   9
HETATM    9  C11 UNL     1      25.426  -0.274  54.406  1.00  0.00     0.207 C 
BRANCH   9  10
HETATM   10  C12 UNL     1      23.971  -0.440  54.095  1.00  0.00    -0.035 A 
HETATM   11  C13 UNL     1      23.377   0.110  52.957  1.00  0.00     0.009 A 
HETATM   12  C14 UNL     1      22.034  -0.081  52.736  1.00  0.00     0.001 A 
HETATM   13  C15 UNL     1      21.246  -0.805  53.608  1.00  0.00     0.000 A 
HETATM   14  C16 UNL     1      21.787  -1.369  54.748  1.00  0.00     0.001 A 
HETATM   15  C17 UNL     1      23.136  -1.161  54.945  1.00  0.00     0.009 A 
ENDBRANCH   9  10
ENDBRANCH   8   9
ENDBRANCH   5   8
BRANCH   1  16
HETATM   16  C5  UNL     1      26.807   2.439  51.332  1.00  0.00     0.157 C 
HETATM   17  O1  UNL     1      26.807   3.251  50.406  1.00  0.00    -0.293 OA
BRANCH  16  18
HETATM   18  C4  UNL     1      25.392   2.520  50.919  1.00  0.00     0.103 C 
BRANCH  18  19
HETATM   19  C3  UNL     1      24.507   3.445  51.654  1.00  0.00     0.123 C 
BRANCH  19  20
HETATM   20  N1  UNL     1      23.174   3.357  51.270  1.00  0.00    -0.420 N 
HETATM   21  C1  UNL     1      22.058   3.719  51.986  1.00  0.00     0.142 C 
HETATM   22  C2  UNL     1      22.935   2.581  50.065  1.00  0.00     0.142 C 
ENDBRANCH  19  20
ENDBRANCH  18  19
ENDBRANCH  16  18
ENDBRANCH   1  16
TORSDOF 7
ENDMDL
MODEL 2
REMARK VINA RESULT:      -6.9      1.799      2.481
REMARK  7 active torsions:
REMARK  status: ('A' for Active; 'I' for Inactive)
REMARK    1  A    between atoms: N1_2  and  C3_4 
REMARK    2  A    between atoms: C3_4  and  C4_5 
REMARK    3  A    between atoms: C4_5  and  C5_6 
REMARK    4  A    between atoms: C5_6  and  C6_8 
REMARK    5  A    between atoms: C9_12  and  O2_14 
REMARK    6  A    between atoms: O2_14  and  C11_15 
REMARK    7  A    between atoms: C11_15  and  C12_16 
ROOT
HETATM    1  C6  UNL     1      26.869   1.489  52.175  1.00  0.00    -0.009 A 
HETATM    2  C7  UNL     1      27.770   2.229  52.793  1.00  0.00     0.012 A 
HETATM    3  C8  UNL     1      28.573   1.580  53.818  1.00  0.00     0.015 A 
HETATM    4  P1  UNL     1      28.368  -0.016  54.198  1.00  0.00    -0.022 P 
HETATM    5  C9  UNL     1      27.041  -0.821  53.187  1.00  0.00     0.091 A 
HETATM    6  C10 UNL     1      27.684  -2.031  52.522  1.00  0.00     0.052 C 
HETATM    7  C18 UNL     1      26.422   0.112  52.223  1.00  0.00     0.085 A 
ENDROOT
BRANCH   5   8
HETATM    8  O2  UNL     1      25.983  -1.336  53.976  1.00  0.00    -0.370 OA
BRANCH   8   9
HETATM    9  C11 UNL     1      25.202  -0.290  54.394  1.00  0.00     0.207 C 
BRANCH   9  10
HETATM   10  C12 UNL     1      23.745  -0.579  54.207  1.00  0.00    -0.035 A 
HETATM   11  C13 UNL     1      23.002  -1.328  55.123  1.00  0.00     0.009 A 
HETATM   12  C14 UNL     1      21.668  -1.556  54.885  1.00  0.00     0.001 A 
HETATM   13  C15 UNL     1      21.032  -1.065  53.763  1.00  0.00     0.000 A 
HETATM   14  C16 UNL     1      21.722  -0.319  52.827  1.00  0.00     0.001 A 
HETATM   15  C17 UNL     1      23.060  -0.106  53.091  1.00  0.00     0.009 A 
ENDBRANCH   9  10
ENDBRANCH   8   9
ENDBRANCH   5   8
BRANCH   1  16
HETATM   16  C5  UNL     1      26.146   2.272  51.183  1.00  0.00     0.157 C 
HETATM   17  O1  UNL     1      25.178   2.724  50.570  1.00  0.00    -0.293 OA
BRANCH  16  18
HETATM   18  C4  UNL     1      26.741   3.158  50.164  1.00  0.00     0.103 C 
BRANCH  18  19
HETATM   19  C3  UNL     1      25.977   4.351  49.750  1.00  0.00     0.123 C 
BRANCH  19  20
HETATM   20  N1  UNL     1      26.692   5.204  48.916  1.00  0.00    -0.420 N 
HETATM   21  C1  UNL     1      28.003   5.100  48.516  1.00  0.00     0.142 C 
HETATM   22  C2  UNL     1      26.034   6.467  48.625  1.00  0.00     0.142 C 
ENDBRANCH  19  20
ENDBRANCH  18  19
ENDBRANCH  16  18
ENDBRANCH   1  16
TORSDOF 7
ENDMDL
MODEL 3
REMARK VINA RESULT:      -6.8      2.793      6.408
REMARK  7 active torsions:
REMARK  status: ('A' for Active; 'I' for Inactive)
REMARK    1  A    between atoms: N1_2  and  C3_4 
REMARK    2  A    between atoms: C3_4  and  C4_5 
REMARK    3  A    between atoms: C4_5  and  C5_6 
REMARK    4  A    between atoms: C5_6  and  C6_8 
REMARK    5  A    between atoms: C9_12  and  O2_14 
REMARK    6  A    between atoms: O2_14  and  C11_15 
REMARK    7  A    between atoms: C11_15  and  C12_16 
ROOT
HETATM    1  C6  UNL     1      23.349   0.113  53.445  1.00  0.00    -0.009 A 
HETATM    2  C7  UNL     1      22.312  -0.290  54.154  1.00  0.00     0.012 A 
HETATM    3  C8  UNL     1      21.006   0.227  53.775  1.00  0.00     0.015 A 
HETATM    4  P1  UNL     1      20.824   1.277  52.512  1.00  0.00    -0.022 P 
HETATM    5  C9  UNL     1      22.433   1.683  51.689  1.00  0.00     0.091 A 
HETATM    6  C10 UNL     1      22.255   1.350  50.214  1.00  0.00     0.052 C 
HETATM    7  C18 UNL     1      23.576   0.983  52.309  1.00  0.00     0.085 A 
ENDROOT
BRANCH   5   8
HETATM    8  O2  UNL     1      22.742   3.065  51.734  1.00  0.00    -0.370 OA
BRANCH   8   9
HETATM    9  C11 UNL     1      24.058   3.206  52.091  1.00  0.00     0.207 C 
BRANCH   9  10
HETATM   10  C12 UNL     1      24.857   3.863  51.009  1.00  0.00    -0.035 A 
HETATM   11  C13 UNL     1      24.533   5.120  50.491  1.00  0.00     0.009 A 
HETATM   12  C14 UNL     1      25.311   5.662  49.496  1.00  0.00     0.001 A 
HETATM   13  C15 UNL     1      26.411   5.001  48.988  1.00  0.00     0.000 A 
HETATM   14  C16 UNL     1      26.773   3.756  49.467  1.00  0.00     0.001 A 
HETATM   15  C17 UNL     1      25.974   3.236  50.464  1.00  0.00     0.009 A 
ENDBRANCH   9  10
ENDBRANCH   8   9
ENDBRANCH   5   8
BRANCH   1  16
HETATM   16  C5  UNL     1      24.582  -0.483  53.941  1.00  0.00     0.157 C 
HETATM   17  O1  UNL     1      25.302  -1.229  54.606  1.00  0.00    -0.293 OA
BRANCH  16  18
HETATM   18  C4  UNL     1      25.954  -0.127  53.530  1.00  0.00     0.103 C 
BRANCH  18  19
HETATM   19  C3  UNL     1      26.694   0.848  54.355  1.00  0.00     0.123 C 
BRANCH  19  20
HETATM   20  N1  UNL     1      28.049   0.913  54.052  1.00  0.00    -0.420 N 
HETATM   21  C1  UNL     1      29.034   0.005  54.361  1.00  0.00     0.142 C 
HETATM   22  C2  UNL     1      28.502   2.200  53.551  1.00  0.00     0.142 C 
ENDBRANCH  19  20
ENDBRANCH  18  19
ENDBRANCH  16  18
ENDBRANCH   1  16
TORSDOF 7
ENDMDL
MODEL 4
REMARK VINA RESULT:      -6.7      2.735      5.028
REMARK  7 active torsions:
REMARK  status: ('A' for Active; 'I' for Inactive)
REMARK    1  A    between atoms: N1_2  and  C3_4 
REMARK    2  A    between atoms: C3_4  and  C4_5 
REMARK    3  A    between atoms: C4_5  and  C5_6 
REMARK    4  A    between atoms: C5_6  and  C6_8 
REMARK    5  A    between atoms: C9_12  and  O2_14 
REMARK    6  A    between atoms: O2_14  and  C11_15 
REMARK    7  A    between atoms: C11_15  and  C12_16 
ROOT
HETATM    1  C6  UNL     1      25.803   2.059  52.920  1.00  0.00    -0.009 A 
HETATM    2  C7  UNL     1      26.657   2.010  51.916  1.00  0.00     0.012 A 
HETATM    3  C8  UNL     1      26.275   2.686  50.686  1.00  0.00     0.015 A 
HETATM    4  P1  UNL     1      24.832   3.482  50.547  1.00  0.00    -0.022 P 
HETATM    5  C9  UNL     1      23.821   3.395  52.097  1.00  0.00     0.091 A 
HETATM    6  C10 UNL     1      23.505   4.833  52.483  1.00  0.00     0.052 C 
HETATM    7  C18 UNL     1      24.500   2.640  53.171  1.00  0.00     0.085 A 
ENDROOT
BRANCH   5   8
HETATM    8  O2  UNL     1      22.567   2.767  51.902  1.00  0.00    -0.370 OA
BRANCH   8   9
HETATM    9  C11 UNL     1      22.784   1.466  51.530  1.00  0.00     0.207 C 
BRANCH   9  10
HETATM   10  C12 UNL     1      22.036   0.508  52.404  1.00  0.00    -0.035 A 
HETATM   11  C13 UNL     1      20.643   0.512  52.507  1.00  0.00     0.009 A 
HETATM   12  C14 UNL     1      20.023  -0.395  53.332  1.00  0.00     0.001 A 
HETATM   13  C15 UNL     1      20.737  -1.319  54.068  1.00  0.00     0.000 A 
HETATM   14  C16 UNL     1      22.117  -1.363  54.002  1.00  0.00     0.001 A 
HETATM   15  C17 UNL     1      22.713  -0.441  53.166  1.00  0.00     0.009 A 
ENDBRANCH   9  10
ENDBRANCH   8   9
ENDBRANCH   5   8
BRANCH   1  16
HETATM   16  C5  UNL     1      26.319   1.339  54.076  1.00  0.00     0.157 C 
HETATM   17  O1  UNL     1      26.625   1.137  55.252  1.00  0.00    -0.293 OA
BRANCH  16  18
HETATM   18  C4  UNL     1      26.884  -0.025  54.077  1.00  0.00     0.103 C 
BRANCH  18  19
HETATM   19  C3  UNL     1      28.169  -0.244  54.771  1.00  0.00     0.123 C 
BRANCH  19  20
HETATM   20  N1  UNL     1      29.209  -0.583  53.914  1.00  0.00    -0.420 N 
HETATM   21  C1  UNL     1      30.208   0.227  53.426  1.00  0.00     0.142 C 
HETATM   22  C2  UNL     1      29.086  -1.889  53.290  1.00  0.00     0.142 C 
ENDBRANCH  19  20
ENDBRANCH  18  19
ENDBRANCH  16  18
ENDBRANCH   1  16
TORSDOF 7
ENDMDL
MODEL 5
REMARK VINA RESULT:      -6.6      2.728      5.154
REMARK  7 active torsions:
REMARK  status: ('A' for Active; 'I' for Inactive)
REMARK    1  A    between atoms: N1_2  and  C3_4 
REMARK    2  A    between atoms: C3_4  and  C4_5 
REMARK    3  A    between atoms: C4_5  and  C5_6 
REMARK    4  A    between atoms: C5_6  and  C6_8 
REMARK    5  A    between atoms: C9_12  and  O2_14 
REMARK    6  A    between atoms: O2_14  and  C11_15 
REMARK    7  A    between atoms: C11_15  and  C12_16 
ROOT
HETATM    1  C6  UNL     1      24.596   3.166  50.538  1.00  0.00    -0.009 A 
HETATM    2  C7  UNL     1      24.343   2.877  49.276  1.00  0.00     0.012 A 
HETATM    3  C8  UNL     1      22.989   3.112  48.799  1.00  0.00     0.015 A 
HETATM    4  P1  UNL     1      21.813   3.714  49.793  1.00  0.00    -0.022 P 
HETATM    5  C9  UNL     1      22.429   4.030  51.511  1.00  0.00     0.091 A 
HETATM    6  C10 UNL     1      22.117   5.489  51.815  1.00  0.00     0.052 C 
HETATM    7  C18 UNL     1      23.860   3.696  51.667  1.00  0.00     0.085 A 
ENDROOT
BRANCH   5   8
HETATM    8  O2  UNL     1      21.736   3.278  52.492  1.00  0.00    -0.370 OA
BRANCH   8   9
HETATM    9  C11 UNL     1      21.471   2.034  51.980  1.00  0.00     0.207 C 
BRANCH   9  10
HETATM   10  C12 UNL     1      21.932   0.948  52.901  1.00  0.00    -0.035 A 
HETATM   11  C13 UNL     1      23.222   0.413  52.847  1.00  0.00     0.009 A 
HETATM   12  C14 UNL     1      23.576  -0.586  53.722  1.00  0.00     0.001 A 
HETATM   13  C15 UNL     1      22.694  -1.081  54.661  1.00  0.00     0.000 A 
HETATM   14  C16 UNL     1      21.407  -0.585  54.754  1.00  0.00     0.001 A 
HETATM   15  C17 UNL     1      21.078   0.416  53.863  1.00  0.00     0.009 A 
ENDBRANCH   9  10
ENDBRANCH   8   9
ENDBRANCH   5   8
BRANCH   1  16
HETATM   16  C5  UNL     1      25.985   2.878  50.868  1.00  0.00     0.157 C 
HETATM   17  O1  UNL     1      27.195   3.074  50.983  1.00  0.00    -0.293 OA
BRANCH  16  18
HETATM   18  C4  UNL     1      26.506   1.620  51.437  1.00  0.00     0.103 C 
BRANCH  18  19
HETATM   19  C3  UNL     1      27.018   1.643  52.822  1.00  0.00     0.123 C 
BRANCH  19  20
HETATM   20  N1  UNL     1      27.210   0.377  53.362  1.00  0.00    -0.420 N 
HETATM   21  C1  UNL     1      27.258  -0.829  52.705  1.00  0.00     0.142 C 
HETATM   22  C2  UNL     1      27.119   0.311  54.811  1.00  0.00     0.142 C 
ENDBRANCH  19  20
ENDBRANCH  18  19
ENDBRANCH  16  18
ENDBRANCH   1  16
TORSDOF 7
ENDMDL
MODEL 6
REMARK VINA RESULT:      -6.5      3.226      7.012
REMARK  7 active torsions:
REMARK  status: ('A' for Active; 'I' for Inactive)
REMARK    1  A    between atoms: N1_2  and  C3_4 
REMARK    2  A    between atoms: C3_4  and  C4_5 
REMARK    3  A    between atoms: C4_5  and  C5_6 
REMARK    4  A    between atoms: C5_6  and  C6_8 
REMARK    5  A    between atoms: C9_12  and  O2_14 
REMARK    6  A    between atoms: O2_14  and  C11_15 
REMARK    7  A    between atoms: C11_15  and  C12_16 
ROOT
HETATM    1  C6  UNL     1      23.836   0.909  52.417  1.00  0.00    -0.009 A 
HETATM    2  C7  UNL     1      22.819   0.696  53.229  1.00  0.00     0.012 A 
HETATM    3  C8  UNL     1      21.600   1.450  52.979  1.00  0.00     0.015 A 
HETATM    4  P1  UNL     1      21.491   2.532  51.734  1.00  0.00    -0.022 P 
HETATM    5  C9  UNL     1      23.058   2.643  50.751  1.00  0.00     0.091 A 
HETATM    6  C10 UNL     1      22.675   2.367  49.304  1.00  0.00     0.052 C 
HETATM    7  C18 UNL     1      24.107   1.735  51.259  1.00  0.00     0.085 A 
ENDROOT
BRANCH   5   8
HETATM    8  O2  UNL     1      23.620   3.944  50.757  1.00  0.00    -0.370 OA
BRANCH   8   9
HETATM    9  C11 UNL     1      23.665   4.404  49.466  1.00  0.00     0.207 C 
BRANCH   9  10
HETATM   10  C12 UNL     1      25.019   4.936  49.115  1.00  0.00    -0.035 A 
HETATM   11  C13 UNL     1      25.221   6.239  48.655  1.00  0.00     0.009 A 
HETATM   12  C14 UNL     1      26.493   6.659  48.349  1.00  0.00     0.001 A 
HETATM   13  C15 UNL     1      27.588   5.830  48.484  1.00  0.00     0.000 A 
HETATM   14  C16 UNL     1      27.441   4.532  48.935  1.00  0.00     0.001 A 
HETATM   15  C17 UNL     1      26.153   4.137  49.234  1.00  0.00     0.009 A 
ENDBRANCH   9  10
ENDBRANCH   8   9
ENDBRANCH   5   8
BRANCH   1  16
HETATM   16  C5  UNL     1      24.980   0.089  52.791  1.00  0.00     0.157 C 
HETATM   17  O1  UNL     1      25.592  -0.902  53.194  1.00  0.00    -0.293 OA
BRANCH  16  18
HETATM   18  C4  UNL     1      26.400   0.488  52.734  1.00  0.00     0.103 C 
BRANCH  18  19
HETATM   19  C3  UNL     1      27.409  -0.458  53.249  1.00  0.00     0.123 C 
BRANCH  19  20
HETATM   20  N1  UNL     1      28.622   0.143  53.563  1.00  0.00    -0.420 N 
HETATM   21  C1  UNL     1      28.907   1.485  53.656  1.00  0.00     0.142 C 
HETATM   22  C2  UNL     1      29.765  -0.754  53.568  1.00  0.00     0.142 C 
ENDBRANCH  19  20
ENDBRANCH  18  19
ENDBRANCH  16  18
ENDBRANCH   1  16
TORSDOF 7
ENDMDL
MODEL 7
REMARK VINA RESULT:      -6.5      2.570      5.781
REMARK  7 active torsions:
REMARK  status: ('A' for Active; 'I' for Inactive)
REMARK    1  A    between atoms: N1_2  and  C3_4 
REMARK    2  A    between atoms: C3_4  and  C4_5 
REMARK    3  A    between atoms: C4_5  and  C5_6 
REMARK    4  A    between atoms: C5_6  and  C6_8 
REMARK    5  A    between atoms: C9_12  and  O2_14 
REMARK    6  A    between atoms: O2_14  and  C11_15 
REMARK    7  A    between atoms: C11_15  and  C12_16 
ROOT
HETATM    1  C6  UNL     1      23.856  -0.344  54.168  1.00  0.00    -0.009 A 
HETATM    2  C7  UNL     1      24.975  -0.836  54.663  1.00  0.00     0.012 A 
HETATM    3  C8  UNL     1      26.217  -0.190  54.267  1.00  0.00     0.015 A 
HETATM    4  P1  UNL     1      26.231   1.104  53.239  1.00  0.00    -0.022 P 
HETATM    5  C9  UNL     1      24.530   1.592  52.690  1.00  0.00     0.091 A 
HETATM    6  C10 UNL     1      24.375   3.066  53.040  1.00  0.00     0.052 C 
HETATM    7  C18 UNL     1      23.480   0.740  53.284  1.00  0.00     0.085 A 
ENDROOT
BRANCH   5   8
HETATM    8  O2  UNL     1      24.361   1.513  51.286  1.00  0.00    -0.370 OA
BRANCH   8   9
HETATM    9  C11 UNL     1      23.018   1.530  51.007  1.00  0.00     0.207 C 
BRANCH   9  10
HETATM   10  C12 UNL     1      22.726   2.267  49.738  1.00  0.00    -0.035 A 
HETATM   11  C13 UNL     1      21.996   1.701  48.689  1.00  0.00     0.009 A 
HETATM   12  C14 UNL     1      21.768   2.435  47.551  1.00  0.00     0.001 A 
HETATM   13  C15 UNL     1      22.240   3.725  47.407  1.00  0.00     0.000 A 
HETATM   14  C16 UNL     1      22.967   4.329  48.415  1.00  0.00     0.001 A 
HETATM   15  C17 UNL     1      23.182   3.568  49.546  1.00  0.00     0.009 A 
ENDBRANCH   9  10
ENDBRANCH   8   9
ENDBRANCH   5   8
BRANCH   1  16
HETATM   16  C5  UNL     1      22.702  -1.091  54.650  1.00  0.00     0.157 C 
HETATM   17  O1  UNL     1      22.074  -2.030  55.141  1.00  0.00    -0.293 OA
BRANCH  16  18
HETATM   18  C4  UNL     1      21.300  -0.631  54.650  1.00  0.00     0.103 C 
BRANCH  18  19
HETATM   19  C3  UNL     1      20.278  -1.518  54.059  1.00  0.00     0.123 C 
BRANCH  19  20
HETATM   20  N1  UNL     1      19.284  -0.834  53.369  1.00  0.00    -0.420 N 
HETATM   21  C1  UNL     1      17.973  -1.202  53.182  1.00  0.00     0.142 C 
HETATM   22  C2  UNL     1      19.755   0.281  52.566  1.00  0.00     0.142 C 
ENDBRANCH  19  20
ENDBRANCH  18  19
ENDBRANCH  16  18
ENDBRANCH   1  16
TORSDOF 7
ENDMDL
MODEL 8
REMARK VINA RESULT:      -6.4      2.630      5.898
REMARK  7 active torsions:
REMARK  status: ('A' for Active; 'I' for Inactive)
REMARK    1  A    between atoms: N1_2  and  C3_4 
REMARK    2  A    between atoms: C3_4  and  C4_5 
REMARK    3  A    between atoms: C4_5  and  C5_6 
REMARK    4  A    between atoms: C5_6  and  C6_8 
REMARK    5  A    between atoms: C9_12  and  O2_14 
REMARK    6  A    between atoms: O2_14  and  C11_15 
REMARK    7  A    between atoms: C11_15  and  C12_16 
ROOT
HETATM    1  C6  UNL     1      21.854   2.406  51.554  1.00  0.00    -0.009 A 
HETATM    2  C7  UNL     1      21.151   3.467  51.900  1.00  0.00     0.012 A 
HETATM    3  C8  UNL     1      21.847   4.745  51.930  1.00  0.00     0.015 A 
HETATM    4  P1  UNL     1      23.451   4.866  51.550  1.00  0.00    -0.022 P 
HETATM    5  C9  UNL     1      24.201   3.231  51.104  1.00  0.00     0.091 A 
HETATM    6  C10 UNL     1      24.825   3.408  49.727  1.00  0.00     0.052 C 
HETATM    7  C18 UNL     1      23.220   2.127  51.161  1.00  0.00     0.085 A 
ENDROOT
BRANCH   5   8
HETATM    8  O2  UNL     1      25.266   2.861  51.961  1.00  0.00    -0.370 OA
BRANCH   8   9
HETATM    9  C11 UNL     1      26.145   2.084  51.253  1.00  0.00     0.207 C 
BRANCH   9  10
HETATM   10  C12 UNL     1      26.991   1.243  52.157  1.00  0.00    -0.035 A 
HETATM   11  C13 UNL     1      27.964   1.786  53.000  1.00  0.00     0.009 A 
HETATM   12  C14 UNL     1      28.707   0.953  53.801  1.00  0.00     0.001 A 
HETATM   13  C15 UNL     1      28.521  -0.415  53.802  1.00  0.00     0.000 A 
HETATM   14  C16 UNL     1      27.572  -1.001  52.987  1.00  0.00     0.001 A 
HETATM   15  C17 UNL     1      26.842  -0.141  52.192  1.00  0.00     0.009 A 
ENDBRANCH   9  10
ENDBRANCH   8   9
ENDBRANCH   5   8
BRANCH   1  16
HETATM   16  C5  UNL     1      21.028   1.207  51.572  1.00  0.00     0.157 C 
HETATM   17  O1  UNL     1      20.405   0.243  51.125  1.00  0.00    -0.293 OA
BRANCH  16  18
HETATM   18  C4  UNL     1      20.466   0.549  52.768  1.00  0.00     0.103 C 
BRANCH  18  19
HETATM   19  C3  UNL     1      21.271   0.554  54.006  1.00  0.00     0.123 C 
BRANCH  19  20
HETATM   20  N1  UNL     1      22.169  -0.504  54.086  1.00  0.00    -0.420 N 
HETATM   21  C1  UNL     1      23.507  -0.509  53.769  1.00  0.00     0.142 C 
HETATM   22  C2  UNL     1      21.563  -1.804  54.314  1.00  0.00     0.142 C 
ENDBRANCH  19  20
ENDBRANCH  18  19
ENDBRANCH  16  18
ENDBRANCH   1  16
TORSDOF 7
ENDMDL
MODEL 9
REMARK VINA RESULT:      -6.3      3.462      5.857
REMARK  7 active torsions:
REMARK  status: ('A' for Active; 'I' for Inactive)
REMARK    1  A    between atoms: N1_2  and  C3_4 
REMARK    2  A    between atoms: C3_4  and  C4_5 
REMARK    3  A    between atoms: C4_5  and  C5_6 
REMARK    4  A    between atoms: C5_6  and  C6_8 
REMARK    5  A    between atoms: C9_12  and  O2_14 
REMARK    6  A    between atoms: O2_14  and  C11_15 
REMARK    7  A    between atoms: C11_15  and  C12_16 
ROOT
HETATM    1  C6  UNL     1      24.638   4.099  49.697  1.00  0.00    -0.009 A 
HETATM    2  C7  UNL     1      23.525   3.781  49.065  1.00  0.00     0.012 A 
HETATM    3  C8  UNL     1      22.751   2.671  49.600  1.00  0.00     0.015 A 
HETATM    4  P1  UNL     1      23.243   1.840  50.941  1.00  0.00    -0.022 P 
HETATM    5  C9  UNL     1      24.836   2.485  51.632  1.00  0.00     0.091 A 
HETATM    6  C10 UNL     1      24.565   2.820  53.092  1.00  0.00     0.052 C 
HETATM    7  C18 UNL     1      25.362   3.630  50.860  1.00  0.00     0.085 A 
ENDROOT
BRANCH   5   8
HETATM    8  O2  UNL     1      25.865   1.511  51.648  1.00  0.00    -0.370 OA
BRANCH   8   9
HETATM    9  C11 UNL     1      26.396   1.459  52.911  1.00  0.00     0.207 C 
BRANCH   9  10
HETATM   10  C12 UNL     1      27.394   0.352  53.046  1.00  0.00    -0.035 A 
HETATM   11  C13 UNL     1      27.078  -0.983  52.783  1.00  0.00     0.009 A 
HETATM   12  C14 UNL     1      28.045  -1.949  52.930  1.00  0.00     0.001 A 
HETATM   13  C15 UNL     1      29.329  -1.640  53.332  1.00  0.00     0.000 A 
HETATM   14  C16 UNL     1      29.691  -0.335  53.605  1.00  0.00     0.001 A 
HETATM   15  C17 UNL     1      28.701   0.613  53.449  1.00  0.00     0.009 A 
ENDBRANCH   9  10
ENDBRANCH   8   9
ENDBRANCH   5   8
BRANCH   1  16
HETATM   16  C5  UNL     1      25.302   5.221  49.047  1.00  0.00     0.157 C 
HETATM   17  O1  UNL     1      25.410   6.294  48.452  1.00  0.00    -0.293 OA
BRANCH  16  18
HETATM   18  C4  UNL     1      26.757   5.398  48.878  1.00  0.00     0.103 C 
BRANCH  18  19
HETATM   19  C3  UNL     1      27.233   6.616  48.191  1.00  0.00     0.123 C 
BRANCH  19  20
HETATM   20  N1  UNL     1      28.618   6.724  48.154  1.00  0.00    -0.420 N 
HETATM   21  C1  UNL     1      29.376   7.816  47.804  1.00  0.00     0.142 C 
HETATM   22  C2  UNL     1      29.333   5.465  48.281  1.00  0.00     0.142 C 
ENDBRANCH  19  20
ENDBRANCH  18  19
ENDBRANCH  16  18
ENDBRANCH   1  16
TORSDOF 7
ENDMDL
