MODEL 1
REMARK VINA RESULT:      -8.2      0.000      0.000
REMARK  0 active torsions:
REMARK  status: ('A' for Active; 'I' for Inactive)
ROOT
HETATM    1  C1  UNL     1      22.295   1.994  48.984  1.00  0.00     0.005 C 
HETATM    2  C2  UNL     1      22.989   2.881  49.720  1.00  0.00    -0.070 C 
HETATM    3  C3  UNL     1      24.337   3.439  50.005  1.00  0.00     0.070 C 
HETATM    4  C4  UNL     1      24.848   2.628  51.260  1.00  0.00    -0.060 C 
HETATM    5  C5  UNL     1      26.120   2.182  51.085  1.00  0.00     0.004 C 
HETATM    6  C6  UNL     1      27.134   1.373  51.872  1.00  0.00     0.195 C 
HETATM    7  O1  UNL     1      26.536   1.031  53.044  1.00  0.00    -0.387 OA
HETATM    8  C7  UNL     1      27.202   0.262  53.939  1.00  0.00     0.170 C 
HETATM    9  C8  UNL     1      26.343  -0.026  55.153  1.00  0.00     0.052 C 
HETATM   10  C9  UNL     1      25.070  -0.757  54.851  1.00  0.00     0.173 C 
HETATM   11  O2  UNL     1      24.269  -0.050  54.012  1.00  0.00    -0.357 OA
HETATM   12  C10 UNL     1      23.053  -0.658  53.700  1.00  0.00     0.308 C 
HETATM   13  O3  UNL     1      22.290  -0.958  54.788  1.00  0.00    -0.355 OA
HETATM   14  C11 UNL     1      21.126  -1.614  54.315  1.00  0.00     0.197 C 
HETATM   15  C12 UNL     1      20.289  -0.625  53.518  1.00  0.00     0.197 C 
HETATM   16  O4  UNL     1      21.061   0.477  53.155  1.00  0.00    -0.359 OA
HETATM   17  C13 UNL     1      22.298   0.122  52.677  1.00  0.00     0.279 C 
HETATM   18  N1  UNL     1      22.958   1.354  52.298  1.00  0.00    -0.349 N 
HETATM   19  C14 UNL     1      24.052   2.344  52.501  1.00  0.00     0.160 C 
HETATM   20  C15 UNL     1      22.162   1.745  51.151  1.00  0.00     0.013 C 
HETATM   21  C16 UNL     1      21.633   1.085  50.061  1.00  0.00     0.025 C 
HETATM   22  C17 UNL     1      21.826   3.212  50.692  1.00  0.00     0.091 C 
ENDROOT
TORSDOF 0
ENDMDL
MODEL 2
REMARK VINA RESULT:      -7.9      1.865      4.499
REMARK  0 active torsions:
REMARK  status: ('A' for Active; 'I' for Inactive)
ROOT
HETATM    1  C1  UNL     1      20.793   1.062  53.474  1.00  0.00     0.005 C 
HETATM    2  C2  UNL     1      21.439  -0.115  53.376  1.00  0.00    -0.070 C 
HETATM    3  C3  UNL     1      22.159  -1.177  54.127  1.00  0.00     0.070 C 
HETATM    4  C4  UNL     1      23.686  -0.801  53.983  1.00  0.00    -0.060 C 
HETATM    5  C5  UNL     1      24.331  -0.852  55.178  1.00  0.00     0.004 C 
HETATM    6  C6  UNL     1      25.734  -0.605  55.698  1.00  0.00     0.195 C 
HETATM    7  O1  UNL     1      26.485  -0.226  54.630  1.00  0.00    -0.387 OA
HETATM    8  C7  UNL     1      27.788   0.101  54.806  1.00  0.00     0.170 C 
HETATM    9  C8  UNL     1      28.424   0.523  53.499  1.00  0.00     0.052 C 
HETATM   10  C9  UNL     1      27.784   1.717  52.856  1.00  0.00     0.173 C 
HETATM   11  O2  UNL     1      26.479   1.490  52.557  1.00  0.00    -0.357 OA
HETATM   12  C10 UNL     1      25.819   2.551  51.936  1.00  0.00     0.308 C 
HETATM   13  O3  UNL     1      26.406   2.965  50.779  1.00  0.00    -0.355 OA
HETATM   14  C11 UNL     1      25.660   4.073  50.303  1.00  0.00     0.197 C 
HETATM   15  C12 UNL     1      24.277   3.595  49.885  1.00  0.00     0.197 C 
HETATM   16  O4  UNL     1      24.011   2.343  50.438  1.00  0.00    -0.359 OA
HETATM   17  C13 UNL     1      24.365   2.264  51.762  1.00  0.00     0.279 C 
HETATM   18  N1  UNL     1      23.988   0.939  52.206  1.00  0.00    -0.349 N 
HETATM   19  C14 UNL     1      24.374  -0.410  52.707  1.00  0.00     0.160 C 
HETATM   20  C15 UNL     1      22.543   1.042  52.165  1.00  0.00     0.013 C 
HETATM   21  C16 UNL     1      21.622   1.996  52.545  1.00  0.00     0.025 C 
HETATM   22  C17 UNL     1      21.525  -0.110  51.827  1.00  0.00     0.091 C 
ENDROOT
TORSDOF 0
ENDMDL
MODEL 3
REMARK VINA RESULT:      -7.8      1.694      4.422
REMARK  0 active torsions:
REMARK  status: ('A' for Active; 'I' for Inactive)
ROOT
HETATM    1  C1  UNL     1      27.050   1.448  53.442  1.00  0.00     0.005 C 
HETATM    2  C2  UNL     1      26.752   1.657  52.146  1.00  0.00    -0.070 C 
HETATM    3  C3  UNL     1      26.529   2.685  51.096  1.00  0.00     0.070 C 
HETATM    4  C4  UNL     1      24.963   2.885  51.059  1.00  0.00    -0.060 C 
HETATM    5  C5  UNL     1      24.624   4.200  51.072  1.00  0.00     0.004 C 
HETATM    6  C6  UNL     1      23.349   5.022  51.062  1.00  0.00     0.195 C 
HETATM    7  O1  UNL     1      22.315   4.139  51.047  1.00  0.00    -0.387 OA
HETATM    8  C7  UNL     1      21.040   4.595  51.075  1.00  0.00     0.170 C 
HETATM    9  C8  UNL     1      20.052   3.447  51.087  1.00  0.00     0.052 C 
HETATM   10  C9  UNL     1      20.185   2.527  52.262  1.00  0.00     0.173 C 
HETATM   11  O2  UNL     1      21.409   1.940  52.308  1.00  0.00    -0.357 OA
HETATM   12  C10 UNL     1      21.602   1.052  53.366  1.00  0.00     0.308 C 
HETATM   13  O3  UNL     1      20.694   0.037  53.408  1.00  0.00    -0.355 OA
HETATM   14  C11 UNL     1      20.986  -0.739  54.558  1.00  0.00     0.197 C 
HETATM   15  C12 UNL     1      22.327  -1.430  54.361  1.00  0.00     0.197 C 
HETATM   16  O4  UNL     1      23.041  -0.815  53.333  1.00  0.00    -0.359 OA
HETATM   17  C13 UNL     1      23.008   0.555  53.413  1.00  0.00     0.279 C 
HETATM   18  N1  UNL     1      23.824   1.045  52.321  1.00  0.00    -0.349 N 
HETATM   19  C14 UNL     1      23.942   1.784  51.033  1.00  0.00     0.160 C 
HETATM   20  C15 UNL     1      25.141   0.632  52.761  1.00  0.00     0.013 C 
HETATM   21  C16 UNL     1      25.819   0.651  53.963  1.00  0.00     0.025 C 
HETATM   22  C17 UNL     1      26.345   0.190  51.849  1.00  0.00     0.091 C 
ENDROOT
TORSDOF 0
ENDMDL
MODEL 4
REMARK VINA RESULT:      -7.7      1.929      5.908
REMARK  0 active torsions:
REMARK  status: ('A' for Active; 'I' for Inactive)
ROOT
HETATM    1  C1  UNL     1      26.677  -0.993  52.508  1.00  0.00     0.005 C 
HETATM    2  C2  UNL     1      25.926  -0.614  53.558  1.00  0.00    -0.070 C 
HETATM    3  C3  UNL     1      24.707  -0.910  54.355  1.00  0.00     0.070 C 
HETATM    4  C4  UNL     1      23.596   0.038  53.752  1.00  0.00    -0.060 C 
HETATM    5  C5  UNL     1      22.440  -0.634  53.510  1.00  0.00     0.004 C 
HETATM    6  C6  UNL     1      21.065  -0.320  52.952  1.00  0.00     0.195 C 
HETATM    7  O1  UNL     1      21.071   0.998  52.618  1.00  0.00    -0.387 OA
HETATM    8  C7  UNL     1      19.973   1.553  52.051  1.00  0.00     0.170 C 
HETATM    9  C8  UNL     1      20.207   3.014  51.730  1.00  0.00     0.052 C 
HETATM   10  C9  UNL     1      21.335   3.266  50.775  1.00  0.00     0.173 C 
HETATM   11  O2  UNL     1      22.519   2.818  51.263  1.00  0.00    -0.357 OA
HETATM   12  C10 UNL     1      23.622   3.035  50.437  1.00  0.00     0.308 C 
HETATM   13  O3  UNL     1      23.818   4.343  50.110  1.00  0.00    -0.355 OA
HETATM   14  C11 UNL     1      24.929   4.394  49.231  1.00  0.00     0.197 C 
HETATM   15  C12 UNL     1      26.183   3.995  49.995  1.00  0.00     0.197 C 
HETATM   16  O4  UNL     1      25.840   3.336  51.175  1.00  0.00    -0.359 OA
HETATM   17  C13 UNL     1      24.854   2.400  50.990  1.00  0.00     0.279 C 
HETATM   18  N1  UNL     1      24.643   1.771  52.277  1.00  0.00    -0.349 N 
HETATM   19  C14 UNL     1      23.764   1.498  53.449  1.00  0.00     0.160 C 
HETATM   20  C15 UNL     1      25.886   1.043  52.429  1.00  0.00     0.013 C 
HETATM   21  C16 UNL     1      26.673   0.271  51.599  1.00  0.00     0.025 C 
HETATM   22  C17 UNL     1      26.646   0.743  53.775  1.00  0.00     0.091 C 
ENDROOT
TORSDOF 0
ENDMDL
MODEL 5
REMARK VINA RESULT:      -7.6      2.678      5.118
REMARK  0 active torsions:
REMARK  status: ('A' for Active; 'I' for Inactive)
ROOT
HETATM    1  C1  UNL     1      22.519  -0.855  54.915  1.00  0.00     0.005 C 
HETATM    2  C2  UNL     1      23.312  -0.509  53.885  1.00  0.00    -0.070 C 
HETATM    3  C3  UNL     1      24.360   0.436  53.417  1.00  0.00     0.070 C 
HETATM    4  C4  UNL     1      23.566   1.559  52.640  1.00  0.00    -0.060 C 
HETATM    5  C5  UNL     1      23.961   2.804  53.015  1.00  0.00     0.004 C 
HETATM    6  C6  UNL     1      23.602   4.237  52.671  1.00  0.00     0.195 C 
HETATM    7  O1  UNL     1      22.608   4.179  51.746  1.00  0.00    -0.387 OA
HETATM    8  C7  UNL     1      22.055   5.324  51.278  1.00  0.00     0.170 C 
HETATM    9  C8  UNL     1      20.949   5.030  50.287  1.00  0.00     0.052 C 
HETATM   10  C9  UNL     1      19.815   4.225  50.846  1.00  0.00     0.173 C 
HETATM   11  O2  UNL     1      20.227   3.009  51.285  1.00  0.00    -0.357 OA
HETATM   12  C10 UNL     1      19.222   2.192  51.802  1.00  0.00     0.308 C 
HETATM   13  O3  UNL     1      18.202   1.953  50.931  1.00  0.00    -0.355 OA
HETATM   14  C11 UNL     1      17.243   1.164  51.614  1.00  0.00     0.197 C 
HETATM   15  C12 UNL     1      17.840  -0.207  51.895  1.00  0.00     0.197 C 
HETATM   16  O4  UNL     1      19.227  -0.165  51.768  1.00  0.00    -0.359 OA
HETATM   17  C13 UNL     1      19.780   0.934  52.377  1.00  0.00     0.279 C 
HETATM   18  N1  UNL     1      21.213   0.816  52.207  1.00  0.00    -0.349 N 
HETATM   19  C14 UNL     1      22.487   1.322  51.623  1.00  0.00     0.160 C 
HETATM   20  C15 UNL     1      21.494  -0.322  53.060  1.00  0.00     0.013 C 
HETATM   21  C16 UNL     1      21.088  -0.722  54.316  1.00  0.00     0.025 C 
HETATM   22  C17 UNL     1      22.606  -1.413  52.841  1.00  0.00     0.091 C 
ENDROOT
TORSDOF 0
ENDMDL
MODEL 6
REMARK VINA RESULT:      -7.4      1.899      4.556
REMARK  0 active torsions:
REMARK  status: ('A' for Active; 'I' for Inactive)
ROOT
HETATM    1  C1  UNL     1      20.014   3.338  52.259  1.00  0.00     0.005 C 
HETATM    2  C2  UNL     1      20.097   2.032  51.943  1.00  0.00    -0.070 C 
HETATM    3  C3  UNL     1      20.202   0.651  52.484  1.00  0.00     0.070 C 
HETATM    4  C4  UNL     1      21.748   0.329  52.456  1.00  0.00    -0.060 C 
HETATM    5  C5  UNL     1      22.172  -0.203  53.632  1.00  0.00     0.004 C 
HETATM    6  C6  UNL     1      23.477  -0.697  54.225  1.00  0.00     0.195 C 
HETATM    7  O1  UNL     1      24.431  -0.516  53.274  1.00  0.00    -0.387 OA
HETATM    8  C7  UNL     1      25.720  -0.836  53.544  1.00  0.00     0.170 C 
HETATM    9  C8  UNL     1      26.616  -0.525  52.363  1.00  0.00     0.052 C 
HETATM   10  C9  UNL     1      26.627   0.918  51.957  1.00  0.00     0.173 C 
HETATM   11  O2  UNL     1      25.394   1.347  51.587  1.00  0.00    -0.357 OA
HETATM   12  C10 UNL     1      25.328   2.679  51.175  1.00  0.00     0.308 C 
HETATM   13  O3  UNL     1      26.160   2.978  50.139  1.00  0.00    -0.355 OA
HETATM   14  C11 UNL     1      26.020   4.364  49.876  1.00  0.00     0.197 C 
HETATM   15  C12 UNL     1      24.622   4.627  49.337  1.00  0.00     0.197 C 
HETATM   16  O4  UNL     1      23.784   3.551  49.622  1.00  0.00    -0.359 OA
HETATM   17  C13 UNL     1      23.921   3.101  50.911  1.00  0.00     0.279 C 
HETATM   18  N1  UNL     1      22.964   2.026  51.072  1.00  0.00    -0.349 N 
HETATM   19  C14 UNL     1      22.673   0.583  51.301  1.00  0.00     0.160 C 
HETATM   20  C15 UNL     1      21.718   2.765  51.016  1.00  0.00     0.013 C 
HETATM   21  C16 UNL     1      21.261   3.949  51.556  1.00  0.00     0.025 C 
HETATM   22  C17 UNL     1      20.348   2.260  50.430  1.00  0.00     0.091 C 
ENDROOT
TORSDOF 0
ENDMDL
MODEL 7
REMARK VINA RESULT:      -7.3      2.616      6.338
REMARK  0 active torsions:
REMARK  status: ('A' for Active; 'I' for Inactive)
ROOT
HETATM    1  C1  UNL     1      26.309   0.578  52.053  1.00  0.00     0.005 C 
HETATM    2  C2  UNL     1      25.275   0.760  52.894  1.00  0.00    -0.070 C 
HETATM    3  C3  UNL     1      23.961   0.229  53.345  1.00  0.00     0.070 C 
HETATM    4  C4  UNL     1      22.894   1.051  52.519  1.00  0.00    -0.060 C 
HETATM    5  C5  UNL     1      21.955   0.241  51.966  1.00  0.00     0.004 C 
HETATM    6  C6  UNL     1      20.724   0.397  51.093  1.00  0.00     0.195 C 
HETATM    7  O1  UNL     1      20.602   1.724  50.825  1.00  0.00    -0.387 OA
HETATM    8  C7  UNL     1      19.600   2.158  50.022  1.00  0.00     0.170 C 
HETATM    9  C8  UNL     1      19.669   3.658  49.830  1.00  0.00     0.052 C 
HETATM   10  C9  UNL     1      20.940   4.145  49.201  1.00  0.00     0.173 C 
HETATM   11  O2  UNL     1      22.026   3.835  49.954  1.00  0.00    -0.357 OA
HETATM   12  C10 UNL     1      23.248   4.274  49.443  1.00  0.00     0.308 C 
HETATM   13  O3  UNL     1      23.307   5.618  49.229  1.00  0.00    -0.355 OA
HETATM   14  C11 UNL     1      24.575   5.897  48.662  1.00  0.00     0.197 C 
HETATM   15  C12 UNL     1      25.652   5.624  49.701  1.00  0.00     0.197 C 
HETATM   16  O4  UNL     1      25.143   4.832  50.728  1.00  0.00    -0.359 OA
HETATM   17  C13 UNL     1      24.393   3.781  50.262  1.00  0.00     0.279 C 
HETATM   18  N1  UNL     1      23.978   3.028  51.428  1.00  0.00    -0.349 N 
HETATM   19  C14 UNL     1      22.896   2.541  52.328  1.00  0.00     0.160 C 
HETATM   20  C15 UNL     1      25.247   2.478  51.859  1.00  0.00     0.013 C 
HETATM   21  C16 UNL     1      26.324   1.895  51.224  1.00  0.00     0.025 C 
HETATM   22  C17 UNL     1      25.694   2.185  53.340  1.00  0.00     0.091 C 
ENDROOT
TORSDOF 0
ENDMDL
MODEL 8
REMARK VINA RESULT:      -7.2      1.440      2.057
REMARK  0 active torsions:
REMARK  status: ('A' for Active; 'I' for Inactive)
ROOT
HETATM    1  C1  UNL     1      23.274   4.456  48.596  1.00  0.00     0.005 C 
HETATM    2  C2  UNL     1      24.094   4.756  49.619  1.00  0.00    -0.070 C 
HETATM    3  C3  UNL     1      25.465   4.593  50.171  1.00  0.00     0.070 C 
HETATM    4  C4  UNL     1      25.352   3.369  51.164  1.00  0.00    -0.060 C 
HETATM    5  C5  UNL     1      26.355   2.473  50.973  1.00  0.00     0.004 C 
HETATM    6  C6  UNL     1      26.790   1.146  51.564  1.00  0.00     0.195 C 
HETATM    7  O1  UNL     1      25.882   0.830  52.524  1.00  0.00    -0.387 OA
HETATM    8  C7  UNL     1      25.998  -0.338  53.202  1.00  0.00     0.170 C 
HETATM    9  C8  UNL     1      24.868  -0.505  54.196  1.00  0.00     0.052 C 
HETATM   10  C9  UNL     1      23.500  -0.520  53.582  1.00  0.00     0.173 C 
HETATM   11  O2  UNL     1      23.227   0.638  52.929  1.00  0.00    -0.357 OA
HETATM   12  C10 UNL     1      21.962   0.708  52.347  1.00  0.00     0.308 C 
HETATM   13  O3  UNL     1      20.938   0.520  53.226  1.00  0.00    -0.355 OA
HETATM   14  C11 UNL     1      19.733   0.563  52.482  1.00  0.00     0.197 C 
HETATM   15  C12 UNL     1      19.530   1.973  51.950  1.00  0.00     0.197 C 
HETATM   16  O4  UNL     1      20.727   2.685  52.000  1.00  0.00    -0.359 OA
HETATM   17  C13 UNL     1      21.796   1.955  51.544  1.00  0.00     0.279 C 
HETATM   18  N1  UNL     1      22.946   2.832  51.609  1.00  0.00    -0.349 N 
HETATM   19  C14 UNL     1      24.274   3.174  52.191  1.00  0.00     0.160 C 
HETATM   20  C15 UNL     1      22.617   3.786  50.569  1.00  0.00     0.013 C 
HETATM   21  C16 UNL     1      22.106   3.697  49.290  1.00  0.00     0.025 C 
HETATM   22  C17 UNL     1      22.981   5.317  50.543  1.00  0.00     0.091 C 
ENDROOT
TORSDOF 0
ENDMDL
MODEL 9
REMARK VINA RESULT:      -7.1      8.818     11.341
REMARK  0 active torsions:
REMARK  status: ('A' for Active; 'I' for Inactive)
ROOT
HETATM    1  C1  UNL     1      26.189   7.823  50.257  1.00  0.00     0.005 C 
HETATM    2  C2  UNL     1      26.414   7.279  49.047  1.00  0.00    -0.070 C 
HETATM    3  C3  UNL     1      26.989   6.116  48.321  1.00  0.00     0.070 C 
HETATM    4  C4  UNL     1      28.447   6.576  47.923  1.00  0.00    -0.060 C 
HETATM    5  C5  UNL     1      29.372   5.628  48.225  1.00  0.00     0.004 C 
HETATM    6  C6  UNL     1      30.875   5.463  48.111  1.00  0.00     0.195 C 
HETATM    7  O1  UNL     1      31.354   6.612  47.564  1.00  0.00    -0.387 OA
HETATM    8  C7  UNL     1      32.687   6.765  47.380  1.00  0.00     0.170 C 
HETATM    9  C8  UNL     1      33.003   8.125  46.793  1.00  0.00     0.052 C 
HETATM   10  C9  UNL     1      32.570   9.282  47.643  1.00  0.00     0.173 C 
HETATM   11  O2  UNL     1      31.227   9.287  47.843  1.00  0.00    -0.357 OA
HETATM   12  C10 UNL     1      30.745  10.347  48.610  1.00  0.00     0.308 C 
HETATM   13  O3  UNL     1      31.057  11.576  48.112  1.00  0.00    -0.355 OA
HETATM   14  C11 UNL     1      30.553  12.538  49.022  1.00  0.00     0.197 C 
HETATM   15  C12 UNL     1      29.032  12.489  49.001  1.00  0.00     0.197 C 
HETATM   16  O4  UNL     1      28.596  11.297  48.426  1.00  0.00    -0.359 OA
HETATM   17  C13 UNL     1      29.286  10.204  48.887  1.00  0.00     0.279 C 
HETATM   18  N1  UNL     1      28.695   9.048  48.245  1.00  0.00    -0.349 N 
HETATM   19  C14 UNL     1      28.809   7.897  47.307  1.00  0.00     0.160 C 
HETATM   20  C15 UNL     1      27.394   9.021  48.884  1.00  0.00     0.013 C 
HETATM   21  C16 UNL     1      26.937   9.185  50.175  1.00  0.00     0.025 C 
HETATM   22  C17 UNL     1      26.037   8.549  48.241  1.00  0.00     0.091 C 
ENDROOT
TORSDOF 0
ENDMDL
