MODEL 1
REMARK VINA RESULT:      -9.0      0.000      0.000
REMARK  2 active torsions:
REMARK  status: ('A' for Active; 'I' for Inactive)
REMARK    1  A    between atoms: C7_8  and  O2_9 
REMARK    2  A    between atoms: C11_16  and  N3_17 
ROOT
HETATM    1  C1  UNL     1      27.143   8.133  47.595  1.00  0.00     0.210 C 
HETATM    2  O1  UNL     1      26.466   7.155  48.095  1.00  0.00    -0.353 OA
HETATM    3  C2  UNL     1      25.790   6.176  48.595  1.00  0.00     0.102 A 
HETATM    4  C3  UNL     1      26.525   5.091  49.017  1.00  0.00     0.051 A 
HETATM    5  C4  UNL     1      25.832   4.001  49.568  1.00  0.00    -0.004 A 
HETATM    6  C5  UNL     1      24.469   4.020  49.680  1.00  0.00     0.088 A 
HETATM    7  C6  UNL     1      23.774   5.149  49.236  1.00  0.00     0.077 A 
HETATM    8  C7  UNL     1      24.415   6.267  48.678  1.00  0.00     0.104 A 
HETATM    9  O3  UNL     1      23.639   3.041  50.196  1.00  0.00    -0.289 OA
HETATM   10  C9  UNL     1      23.952   2.119  51.225  1.00  0.00     0.202 A 
HETATM   11  N1  UNL     1      22.869   1.485  51.680  1.00  0.00    -0.215 NA
HETATM   12  C10 UNL     1      23.075   0.575  52.680  1.00  0.00     0.238 A 
HETATM   13  N2  UNL     1      24.273   0.252  53.254  1.00  0.00    -0.221 NA
HETATM   14  C11 UNL     1      25.395   0.891  52.801  1.00  0.00     0.166 A 
HETATM   15  C17 UNL     1      25.212   1.831  51.775  1.00  0.00     0.129 A 
HETATM   16  N4  UNL     1      26.448   2.444  51.336  1.00  0.00    -0.379 N 
HETATM   17  C18 UNL     1      26.721   2.901  49.988  1.00  0.00     0.161 C 
HETATM   18  H14 UNL     1      27.138   2.511  52.134  1.00  0.00     0.160 HD
ENDROOT
BRANCH   8  19
HETATM   19  O2  UNL     1      23.739   7.388  48.234  1.00  0.00    -0.353 OA
HETATM   20  C8  UNL     1      23.258   8.299  49.237  1.00  0.00     0.210 C 
ENDBRANCH   8  19
BRANCH  14  21
HETATM   21  N3  UNL     1      26.735   0.734  53.240  1.00  0.00    -0.314 N 
HETATM   22  C12 UNL     1      27.663   1.670  53.832  1.00  0.00     0.097 A 
HETATM   23  C13 UNL     1      28.858   1.230  54.140  1.00  0.00     0.033 A 
HETATM   24  C14 UNL     1      29.396  -0.118  53.963  1.00  0.00     0.240 A 
HETATM   25  F1  UNL     1      30.542  -0.142  53.192  1.00  0.00    -0.239 F 
HETATM   26  C15 UNL     1      28.435  -1.066  53.353  1.00  0.00     0.065 A 
HETATM   27 CL1  UNL     1      28.958  -2.706  53.082  1.00  0.00    -0.084 Cl
HETATM   28  C16 UNL     1      27.234  -0.608  53.048  1.00  0.00     0.120 A 
ENDBRANCH  14  21
TORSDOF 2
ENDMDL
MODEL 2
REMARK VINA RESULT:      -8.8      4.489      8.251
REMARK  2 active torsions:
REMARK  status: ('A' for Active; 'I' for Inactive)
REMARK    1  A    between atoms: C7_8  and  O2_9 
REMARK    2  A    between atoms: C11_16  and  N3_17 
ROOT
HETATM    1  C1  UNL     1      24.316  -1.309  55.582  1.00  0.00     0.210 C 
HETATM    2  O1  UNL     1      24.809  -0.605  54.619  1.00  0.00    -0.353 OA
HETATM    3  C2  UNL     1      25.301   0.098  53.656  1.00  0.00     0.102 A 
HETATM    4  C3  UNL     1      24.389   0.782  52.884  1.00  0.00     0.051 A 
HETATM    5  C4  UNL     1      24.878   1.562  51.824  1.00  0.00    -0.004 A 
HETATM    6  C5  UNL     1      26.219   1.636  51.568  1.00  0.00     0.088 A 
HETATM    7  C6  UNL     1      27.100   0.921  52.384  1.00  0.00     0.077 A 
HETATM    8  C7  UNL     1      26.667   0.127  53.459  1.00  0.00     0.104 A 
HETATM    9  O3  UNL     1      26.863   2.352  50.573  1.00  0.00    -0.289 OA
HETATM   10  C9  UNL     1      26.440   3.578  50.002  1.00  0.00     0.202 A 
HETATM   11  N1  UNL     1      27.398   4.147  49.267  1.00  0.00    -0.215 NA
HETATM   12  C10 UNL     1      27.080   5.339  48.676  1.00  0.00     0.238 A 
HETATM   13  N2  UNL     1      25.886   5.999  48.764  1.00  0.00    -0.221 NA
HETATM   14  C11 UNL     1      24.892   5.432  49.513  1.00  0.00     0.166 A 
HETATM   15  C17 UNL     1      25.192   4.208  50.131  1.00  0.00     0.129 A 
HETATM   16  N4  UNL     1      24.081   3.662  50.884  1.00  0.00    -0.379 N 
HETATM   17  C18 UNL     1      23.812   2.251  51.070  1.00  0.00     0.161 C 
HETATM   18  H14 UNL     1      23.480   4.437  51.280  1.00  0.00     0.160 HD
ENDROOT
BRANCH   8  19
HETATM   19  O2  UNL     1      27.528  -0.585  54.273  1.00  0.00    -0.353 OA
HETATM   20  C8  UNL     1      28.628   0.138  54.850  1.00  0.00     0.210 C 
ENDBRANCH   8  19
BRANCH  14  21
HETATM   21  N3  UNL     1      23.584   5.925  49.758  1.00  0.00    -0.314 N 
HETATM   22  C12 UNL     1      23.027   6.637  50.885  1.00  0.00     0.097 A 
HETATM   23  C13 UNL     1      21.761   6.969  50.829  1.00  0.00     0.033 A 
HETATM   24  C14 UNL     1      20.808   6.711  49.751  1.00  0.00     0.240 A 
HETATM   25  F1  UNL     1      19.700   6.001  50.171  1.00  0.00    -0.239 F 
HETATM   26  C15 UNL     1      21.392   5.978  48.603  1.00  0.00     0.065 A 
HETATM   27 CL1  UNL     1      20.355   5.603  47.255  1.00  0.00    -0.084 Cl
HETATM   28  C16 UNL     1      22.669   5.651  48.674  1.00  0.00     0.120 A 
ENDBRANCH  14  21
TORSDOF 2
ENDMDL
MODEL 3
REMARK VINA RESULT:      -8.7      2.626      3.853
REMARK  2 active torsions:
REMARK  status: ('A' for Active; 'I' for Inactive)
REMARK    1  A    between atoms: C7_8  and  O2_9 
REMARK    2  A    between atoms: C11_16  and  N3_17 
ROOT
HETATM    1  C1  UNL     1      30.988   6.061  47.385  1.00  0.00     0.210 C 
HETATM    2  O1  UNL     1      29.756   6.083  47.767  1.00  0.00    -0.353 OA
HETATM    3  C2  UNL     1      28.524   6.103  48.148  1.00  0.00     0.102 A 
HETATM    4  C3  UNL     1      28.023   4.913  48.627  1.00  0.00     0.051 A 
HETATM    5  C4  UNL     1      26.686   4.887  49.054  1.00  0.00    -0.004 A 
HETATM    6  C5  UNL     1      25.908   6.009  48.995  1.00  0.00     0.088 A 
HETATM    7  C6  UNL     1      26.469   7.190  48.500  1.00  0.00     0.077 A 
HETATM    8  C7  UNL     1      27.799   7.275  48.060  1.00  0.00     0.104 A 
HETATM    9  O3  UNL     1      24.584   6.156  49.373  1.00  0.00    -0.289 OA
HETATM   10  C9  UNL     1      23.915   5.454  50.405  1.00  0.00     0.202 A 
HETATM   11  N1  UNL     1      22.734   6.000  50.702  1.00  0.00    -0.215 NA
HETATM   12  C10 UNL     1      22.016   5.388  51.692  1.00  0.00     0.238 A 
HETATM   13  N2  UNL     1      22.385   4.281  52.403  1.00  0.00    -0.221 NA
HETATM   14  C11 UNL     1      23.593   3.706  52.113  1.00  0.00     0.166 A 
HETATM   15  C17 UNL     1      24.351   4.314  51.100  1.00  0.00     0.129 A 
HETATM   16  N4  UNL     1      25.602   3.633  50.839  1.00  0.00    -0.379 N 
HETATM   17  C18 UNL     1      26.261   3.563  49.550  1.00  0.00     0.161 C 
HETATM   18  H14 UNL     1      25.975   3.181  51.719  1.00  0.00     0.160 HD
ENDROOT
BRANCH   8  19
HETATM   19  O2  UNL     1      28.366   8.437  47.568  1.00  0.00    -0.353 OA
HETATM   20  C8  UNL     1      28.823   9.398  48.534  1.00  0.00     0.210 C 
ENDBRANCH   8  19
BRANCH  14  21
HETATM   21  N3  UNL     1      24.192   2.568  52.712  1.00  0.00    -0.314 N 
HETATM   22  C12 UNL     1      25.475   2.389  53.354  1.00  0.00     0.097 A 
HETATM   23  C13 UNL     1      25.760   1.200  53.822  1.00  0.00     0.033 A 
HETATM   24  C14 UNL     1      24.934  -0.006  53.785  1.00  0.00     0.240 A 
HETATM   25  F1  UNL     1      25.558  -1.066  53.155  1.00  0.00    -0.239 F 
HETATM   26  C15 UNL     1      23.623   0.191  53.122  1.00  0.00     0.065 A 
HETATM   27 CL1  UNL     1      22.548  -1.174  53.007  1.00  0.00    -0.084 Cl
HETATM   28  C16 UNL     1      23.350   1.396  52.656  1.00  0.00     0.120 A 
ENDBRANCH  14  21
TORSDOF 2
ENDMDL
MODEL 4
REMARK VINA RESULT:      -8.7      2.744      5.615
REMARK  2 active torsions:
REMARK  status: ('A' for Active; 'I' for Inactive)
REMARK    1  A    between atoms: C7_8  and  O2_9 
REMARK    2  A    between atoms: C11_16  and  N3_17 
ROOT
HETATM    1  C1  UNL     1      18.365  -1.234  53.086  1.00  0.00     0.210 C 
HETATM    2  O1  UNL     1      19.222  -0.432  52.552  1.00  0.00    -0.353 OA
HETATM    3  C2  UNL     1      20.080   0.371  52.020  1.00  0.00     0.102 A 
HETATM    4  C3  UNL     1      21.217   0.614  52.758  1.00  0.00     0.051 A 
HETATM    5  C4  UNL     1      22.179   1.482  52.219  1.00  0.00    -0.004 A 
HETATM    6  C5  UNL     1      21.990   2.068  50.999  1.00  0.00     0.088 A 
HETATM    7  C6  UNL     1      20.817   1.786  50.292  1.00  0.00     0.077 A 
HETATM    8  C7  UNL     1      19.822   0.926  50.782  1.00  0.00     0.104 A 
HETATM    9  O3  UNL     1      22.831   2.939  50.327  1.00  0.00    -0.289 OA
HETATM   10  C9  UNL     1      24.246   2.971  50.393  1.00  0.00     0.202 A 
HETATM   11  N1  UNL     1      24.777   3.738  49.438  1.00  0.00    -0.215 NA
HETATM   12  C10 UNL     1      26.141   3.827  49.423  1.00  0.00     0.238 A 
HETATM   13  N2  UNL     1      27.009   3.214  50.283  1.00  0.00    -0.221 NA
HETATM   14  C11 UNL     1      26.483   2.424  51.269  1.00  0.00     0.166 A 
HETATM   15  C17 UNL     1      25.085   2.314  51.308  1.00  0.00     0.129 A 
HETATM   16  N4  UNL     1      24.609   1.481  52.393  1.00  0.00    -0.379 N 
HETATM   17  C18 UNL     1      23.354   1.662  53.094  1.00  0.00     0.161 C 
HETATM   18  H14 UNL     1      25.306   0.718  52.614  1.00  0.00     0.160 HD
ENDROOT
BRANCH   8  19
HETATM   19  O2  UNL     1      18.657   0.640  50.094  1.00  0.00    -0.353 OA
HETATM   20  C8  UNL     1      17.533   1.505  50.326  1.00  0.00     0.210 C 
ENDBRANCH   8  19
BRANCH  14  21
HETATM   21  N3  UNL     1      27.172   1.685  52.265  1.00  0.00    -0.314 N 
HETATM   22  C12 UNL     1      27.982   2.112  53.383  1.00  0.00     0.097 A 
HETATM   23  C13 UNL     1      28.502   1.184  54.148  1.00  0.00     0.033 A 
HETATM   24  C14 UNL     1      28.369  -0.266  54.022  1.00  0.00     0.240 A 
HETATM   25  F1  UNL     1      29.586  -0.910  53.910  1.00  0.00    -0.239 F 
HETATM   26  C15 UNL     1      27.538  -0.690  52.871  1.00  0.00     0.065 A 
HETATM   27 CL1  UNL     1      27.308  -2.397  52.609  1.00  0.00    -0.084 Cl
HETATM   28  C16 UNL     1      27.021   0.257  52.110  1.00  0.00     0.120 A 
ENDBRANCH  14  21
TORSDOF 2
ENDMDL
MODEL 5
REMARK VINA RESULT:      -8.2      5.872      8.998
REMARK  2 active torsions:
REMARK  status: ('A' for Active; 'I' for Inactive)
REMARK    1  A    between atoms: C7_8  and  O2_9 
REMARK    2  A    between atoms: C11_16  and  N3_17 
ROOT
HETATM    1  C1  UNL     1      22.642   5.916  50.467  1.00  0.00     0.210 C 
HETATM    2  O1  UNL     1      23.839   5.683  50.045  1.00  0.00    -0.353 OA
HETATM    3  C2  UNL     1      25.036   5.451  49.622  1.00  0.00     0.102 A 
HETATM    4  C3  UNL     1      25.693   6.522  49.059  1.00  0.00     0.051 A 
HETATM    5  C4  UNL     1      26.998   6.317  48.585  1.00  0.00    -0.004 A 
HETATM    6  C5  UNL     1      27.596   5.091  48.679  1.00  0.00     0.088 A 
HETATM    7  C6  UNL     1      26.881   4.039  49.261  1.00  0.00     0.077 A 
HETATM    8  C7  UNL     1      25.575   4.187  49.753  1.00  0.00     0.104 A 
HETATM    9  O3  UNL     1      28.864   4.722  48.267  1.00  0.00    -0.289 OA
HETATM   10  C9  UNL     1      30.015   5.547  48.223  1.00  0.00     0.202 A 
HETATM   11  N1  UNL     1      31.133   4.842  48.038  1.00  0.00    -0.215 NA
HETATM   12  C10 UNL     1      32.298   5.556  47.984  1.00  0.00     0.238 A 
HETATM   13  N2  UNL     1      32.429   6.912  48.100  1.00  0.00    -0.221 NA
HETATM   14  C11 UNL     1      31.293   7.652  48.290  1.00  0.00     0.166 A 
HETATM   15  C17 UNL     1      30.083   6.944  48.349  1.00  0.00     0.129 A 
HETATM   16  N4  UNL     1      28.930   7.800  48.527  1.00  0.00    -0.379 N 
HETATM   17  C18 UNL     1      27.604   7.533  48.008  1.00  0.00     0.161 C 
HETATM   18  H14 UNL     1      29.184   8.660  49.089  1.00  0.00     0.160 HD
ENDROOT
BRANCH   8  19
HETATM   19  O2  UNL     1      24.858   3.154  50.329  1.00  0.00    -0.353 OA
HETATM   20  C8  UNL     1      25.416   2.553  51.509  1.00  0.00     0.210 C 
ENDBRANCH   8  19
BRANCH  14  21
HETATM   21  N3  UNL     1      31.175   9.058  48.444  1.00  0.00    -0.314 N 
HETATM   22  C12 UNL     1      30.658   9.861  49.529  1.00  0.00     0.097 A 
HETATM   23  C13 UNL     1      30.677  11.162  49.385  1.00  0.00     0.033 A 
HETATM   24  C14 UNL     1      31.165  11.937  48.245  1.00  0.00     0.240 A 
HETATM   25  F1  UNL     1      30.202  12.770  47.709  1.00  0.00    -0.239 F 
HETATM   26  C15 UNL     1      31.690  11.102  47.140  1.00  0.00     0.065 A 
HETATM   27 CL1  UNL     1      32.296  11.907  45.719  1.00  0.00    -0.084 Cl
HETATM   28  C16 UNL     1      31.665   9.791  47.300  1.00  0.00     0.120 A 
ENDBRANCH  14  21
TORSDOF 2
ENDMDL
MODEL 6
REMARK VINA RESULT:      -8.2      2.144      3.036
REMARK  2 active torsions:
REMARK  status: ('A' for Active; 'I' for Inactive)
REMARK    1  A    between atoms: C7_8  and  O2_9 
REMARK    2  A    between atoms: C11_16  and  N3_17 
ROOT
HETATM    1  C1  UNL     1      30.676   6.931  47.146  1.00  0.00     0.210 C 
HETATM    2  O1  UNL     1      29.508   6.690  47.638  1.00  0.00    -0.353 OA
HETATM    3  C2  UNL     1      28.340   6.447  48.129  1.00  0.00     0.102 A 
HETATM    4  C3  UNL     1      28.111   5.147  48.524  1.00  0.00     0.051 A 
HETATM    5  C4  UNL     1      26.854   4.836  49.064  1.00  0.00    -0.004 A 
HETATM    6  C5  UNL     1      25.888   5.795  49.194  1.00  0.00     0.088 A 
HETATM    7  C6  UNL     1      26.175   7.098  48.778  1.00  0.00     0.077 A 
HETATM    8  C7  UNL     1      27.415   7.467  48.231  1.00  0.00     0.104 A 
HETATM    9  O3  UNL     1      24.608   5.658  49.703  1.00  0.00    -0.289 OA
HETATM   10  C9  UNL     1      24.189   4.757  50.712  1.00  0.00     0.202 A 
HETATM   11  N1  UNL     1      22.969   5.045  51.171  1.00  0.00    -0.215 NA
HETATM   12  C10 UNL     1      22.481   4.227  52.152  1.00  0.00     0.238 A 
HETATM   13  N2  UNL     1      23.115   3.150  52.705  1.00  0.00    -0.221 NA
HETATM   14  C11 UNL     1      24.367   2.838  52.249  1.00  0.00     0.166 A 
HETATM   15  C17 UNL     1      24.892   3.662  51.241  1.00  0.00     0.129 A 
HETATM   16  N4  UNL     1      26.208   3.251  50.797  1.00  0.00    -0.379 N 
HETATM   17  C18 UNL     1      26.725   3.418  49.454  1.00  0.00     0.161 C 
HETATM   18  H14 UNL     1      26.748   2.802  51.588  1.00  0.00     0.160 HD
ENDROOT
BRANCH   8  19
HETATM   19  O2  UNL     1      27.711   8.752  47.816  1.00  0.00    -0.353 OA
HETATM   20  C8  UNL     1      27.167   9.170  46.553  1.00  0.00     0.210 C 
ENDBRANCH   8  19
BRANCH  14  21
HETATM   21  N3  UNL     1      25.219   1.783  52.668  1.00  0.00    -0.314 N 
HETATM   22  C12 UNL     1      25.040   0.349  52.661  1.00  0.00     0.097 A 
HETATM   23  C13 UNL     1      26.019  -0.388  53.122  1.00  0.00     0.033 A 
HETATM   24  C14 UNL     1      27.307   0.053  53.655  1.00  0.00     0.240 A 
HETATM   25  F1  UNL     1      27.536  -0.389  54.943  1.00  0.00    -0.239 F 
HETATM   26  C15 UNL     1      27.477   1.525  53.658  1.00  0.00     0.065 A 
HETATM   27 CL1  UNL     1      28.968   2.179  54.276  1.00  0.00    -0.084 Cl
HETATM   28  C16 UNL     1      26.480   2.255  53.190  1.00  0.00     0.120 A 
ENDBRANCH  14  21
TORSDOF 2
ENDMDL
MODEL 7
REMARK VINA RESULT:      -7.9      3.836      5.828
REMARK  2 active torsions:
REMARK  status: ('A' for Active; 'I' for Inactive)
REMARK    1  A    between atoms: C7_8  and  O2_9 
REMARK    2  A    between atoms: C11_16  and  N3_17 
ROOT
HETATM    1  C1  UNL     1      32.259   4.538  47.866  1.00  0.00     0.210 C 
HETATM    2  O1  UNL     1      31.123   5.122  48.043  1.00  0.00    -0.353 OA
HETATM    3  C2  UNL     1      29.986   5.705  48.221  1.00  0.00     0.102 A 
HETATM    4  C3  UNL     1      28.915   4.875  48.469  1.00  0.00     0.051 A 
HETATM    5  C4  UNL     1      27.657   5.464  48.668  1.00  0.00    -0.004 A 
HETATM    6  C5  UNL     1      27.502   6.822  48.616  1.00  0.00     0.088 A 
HETATM    7  C6  UNL     1      28.623   7.617  48.361  1.00  0.00     0.077 A 
HETATM    8  C7  UNL     1      29.905   7.082  48.155  1.00  0.00     0.104 A 
HETATM    9  O3  UNL     1      26.343   7.559  48.790  1.00  0.00    -0.289 OA
HETATM   10  C9  UNL     1      25.240   7.222  49.611  1.00  0.00     0.202 A 
HETATM   11  N1  UNL     1      24.402   8.248  49.775  1.00  0.00    -0.215 NA
HETATM   12  C10 UNL     1      23.305   8.015  50.557  1.00  0.00     0.238 A 
HETATM   13  N2  UNL     1      22.983   6.843  51.183  1.00  0.00    -0.221 NA
HETATM   14  C11 UNL     1      23.830   5.779  51.027  1.00  0.00     0.166 A 
HETATM   15  C17 UNL     1      24.964   5.991  50.229  1.00  0.00     0.129 A 
HETATM   16  N4  UNL     1      25.794   4.812  50.094  1.00  0.00    -0.379 N 
HETATM   17  C18 UNL     1      26.590   4.479  48.930  1.00  0.00     0.161 C 
HETATM   18  H14 UNL     1      25.739   4.213  50.965  1.00  0.00     0.160 HD
ENDROOT
BRANCH   8  19
HETATM   19  O2  UNL     1      31.021   7.857  47.901  1.00  0.00    -0.353 OA
HETATM   20  C8  UNL     1      31.707   8.405  49.039  1.00  0.00     0.210 C 
ENDBRANCH   8  19
BRANCH  14  21
HETATM   21  N3  UNL     1      23.716   4.476  51.578  1.00  0.00    -0.314 N 
HETATM   22  C12 UNL     1      24.274   3.893  52.776  1.00  0.00     0.097 A 
HETATM   23  C13 UNL     1      23.991   2.640  53.031  1.00  0.00     0.033 A 
HETATM   24  C14 UNL     1      23.161   1.725  52.248  1.00  0.00     0.240 A 
HETATM   25  F1  UNL     1      23.835   0.582  51.865  1.00  0.00    -0.239 F 
HETATM   26  C15 UNL     1      22.597   2.336  51.022  1.00  0.00     0.065 A 
HETATM   27 CL1  UNL     1      21.595   1.346  49.998  1.00  0.00    -0.084 Cl
HETATM   28  C16 UNL     1      22.892   3.600  50.778  1.00  0.00     0.120 A 
ENDBRANCH  14  21
TORSDOF 2
ENDMDL
MODEL 8
REMARK VINA RESULT:      -7.5      6.639      9.292
REMARK  2 active torsions:
REMARK  status: ('A' for Active; 'I' for Inactive)
REMARK    1  A    between atoms: C7_8  and  O2_9 
REMARK    2  A    between atoms: C11_16  and  N3_17 
ROOT
HETATM    1  C1  UNL     1      33.433   2.499  48.011  1.00  0.00     0.210 C 
HETATM    2  O1  UNL     1      32.974   3.703  48.063  1.00  0.00    -0.353 OA
HETATM    3  C2  UNL     1      32.513   4.907  48.114  1.00  0.00     0.102 A 
HETATM    4  C3  UNL     1      31.174   5.052  47.829  1.00  0.00     0.051 A 
HETATM    5  C4  UNL     1      30.628   6.344  47.873  1.00  0.00    -0.004 A 
HETATM    6  C5  UNL     1      31.405   7.425  48.187  1.00  0.00     0.088 A 
HETATM    7  C6  UNL     1      32.759   7.219  48.468  1.00  0.00     0.077 A 
HETATM    8  C7  UNL     1      33.358   5.950  48.441  1.00  0.00     0.104 A 
HETATM    9  O3  UNL     1      31.030   8.754  48.275  1.00  0.00    -0.289 OA
HETATM   10  C9  UNL     1      29.760   9.252  48.657  1.00  0.00     0.202 A 
HETATM   11  N1  UNL     1      29.786  10.564  48.902  1.00  0.00    -0.215 NA
HETATM   12  C10 UNL     1      28.602  11.134  49.279  1.00  0.00     0.238 A 
HETATM   13  N2  UNL     1      27.402  10.497  49.429  1.00  0.00    -0.221 NA
HETATM   14  C11 UNL     1      27.354   9.152  49.182  1.00  0.00     0.166 A 
HETATM   15  C17 UNL     1      28.556   8.541  48.793  1.00  0.00     0.129 A 
HETATM   16  N4  UNL     1      28.416   7.124  48.528  1.00  0.00    -0.379 N 
HETATM   17  C18 UNL     1      29.187   6.377  47.555  1.00  0.00     0.161 C 
HETATM   18  H14 UNL     1      27.664   6.701  49.139  1.00  0.00     0.160 HD
ENDROOT
BRANCH   8  19
HETATM   19  O2  UNL     1      34.696   5.733  48.716  1.00  0.00    -0.353 OA
HETATM   20  C8  UNL     1      35.582   6.855  48.567  1.00  0.00     0.210 C 
ENDBRANCH   8  19
BRANCH  14  21
HETATM   21  N3  UNL     1      26.239   8.279  49.275  1.00  0.00    -0.314 N 
HETATM   22  C12 UNL     1      25.734   7.487  50.374  1.00  0.00     0.097 A 
HETATM   23  C13 UNL     1      24.664   6.762  50.160  1.00  0.00     0.033 A 
HETATM   24  C14 UNL     1      23.887   6.643  48.926  1.00  0.00     0.240 A 
HETATM   25  F1  UNL     1      23.791   5.341  48.475  1.00  0.00    -0.239 F 
HETATM   26  C15 UNL     1      24.417   7.458  47.808  1.00  0.00     0.065 A 
HETATM   27 CL1  UNL     1      23.583   7.398  46.281  1.00  0.00    -0.084 Cl
HETATM   28  C16 UNL     1      25.496   8.184  48.040  1.00  0.00     0.120 A 
ENDBRANCH  14  21
TORSDOF 2
ENDMDL
MODEL 9
REMARK VINA RESULT:      -7.4      4.854      8.707
REMARK  2 active torsions:
REMARK  status: ('A' for Active; 'I' for Inactive)
REMARK    1  A    between atoms: C7_8  and  O2_9 
REMARK    2  A    between atoms: C11_16  and  N3_17 
ROOT
HETATM    1  C1  UNL     1      22.385  -1.292  54.826  1.00  0.00     0.210 C 
HETATM    2  O1  UNL     1      23.044  -0.507  54.041  1.00  0.00    -0.353 OA
HETATM    3  C2  UNL     1      23.701   0.276  53.255  1.00  0.00     0.102 A 
HETATM    4  C3  UNL     1      23.003   0.773  52.177  1.00  0.00     0.051 A 
HETATM    5  C4  UNL     1      23.677   1.631  51.294  1.00  0.00    -0.004 A 
HETATM    6  C5  UNL     1      24.988   1.961  51.500  1.00  0.00     0.088 A 
HETATM    7  C6  UNL     1      25.649   1.427  52.611  1.00  0.00     0.077 A 
HETATM    8  C7  UNL     1      25.024   0.566  53.527  1.00  0.00     0.104 A 
HETATM    9  O3  UNL     1      25.795   2.786  50.736  1.00  0.00    -0.289 OA
HETATM   10  C9  UNL     1      25.381   3.907  49.976  1.00  0.00     0.202 A 
HETATM   11  N1  UNL     1      26.414   4.649  49.569  1.00  0.00    -0.215 NA
HETATM   12  C10 UNL     1      26.109   5.757  48.829  1.00  0.00     0.238 A 
HETATM   13  N2  UNL     1      24.860   6.177  48.466  1.00  0.00    -0.221 NA
HETATM   14  C11 UNL     1      23.788   5.430  48.873  1.00  0.00     0.166 A 
HETATM   15  C17 UNL     1      24.072   4.287  49.635  1.00  0.00     0.129 A 
HETATM   16  N4  UNL     1      22.888   3.540  50.004  1.00  0.00    -0.379 N 
HETATM   17  C18 UNL     1      22.830   2.103  50.183  1.00  0.00     0.161 C 
HETATM   18  H14 UNL     1      22.059   4.185  50.124  1.00  0.00     0.160 HD
ENDROOT
BRANCH   8  19
HETATM   19  O2  UNL     1      25.666   0.032  54.629  1.00  0.00    -0.353 OA
HETATM   20  C8  UNL     1      27.089   0.221  54.710  1.00  0.00     0.210 C 
ENDBRANCH   8  19
BRANCH  14  21
HETATM   21  N3  UNL     1      22.410   5.664  48.630  1.00  0.00    -0.314 N 
HETATM   22  C12 UNL     1      21.453   4.968  47.801  1.00  0.00     0.097 A 
HETATM   23  C13 UNL     1      20.226   5.424  47.773  1.00  0.00     0.033 A 
HETATM   24  C14 UNL     1      19.674   6.573  48.490  1.00  0.00     0.240 A 
HETATM   25  F1  UNL     1      19.110   7.512  47.649  1.00  0.00    -0.239 F 
HETATM   26  C15 UNL     1      20.666   7.279  49.335  1.00  0.00     0.065 A 
HETATM   27 CL1  UNL     1      20.134   8.671  50.237  1.00  0.00    -0.084 Cl
HETATM   28  C16 UNL     1      21.900   6.807  49.352  1.00  0.00     0.120 A 
ENDBRANCH  14  21
TORSDOF 2
ENDMDL
