MODEL 1
REMARK VINA RESULT:      -7.5      0.000      0.000
REMARK  4 active torsions:
REMARK  status: ('A' for Active; 'I' for Inactive)
REMARK    1  A    between atoms: C1_2  and  N1_3 
REMARK    2  A    between atoms: N2_10  and  C7_11 
REMARK    3  A    between atoms: C7_11  and  O2_12 
REMARK    4  A    between atoms: C7_11  and  C8_13 
ROOT
HETATM    1  N1  UNL     1      21.452   1.863  52.671  1.00  0.00    -0.354 N 
HETATM    2  C2  UNL     1      20.776   3.083  52.354  1.00  0.00     0.135 C 
HETATM    3  C3  UNL     1      21.755   4.162  52.004  1.00  0.00     0.093 C 
HETATM    4  S1  UNL     1      23.111   3.484  51.090  1.00  0.00    -0.148 SA
HETATM    5  C4  UNL     1      23.697   2.180  51.812  1.00  0.00    -0.013 C 
HETATM    6  C5  UNL     1      22.854   2.012  53.027  1.00  0.00     0.167 C 
HETATM    7  C6  UNL     1      24.827   1.416  51.256  1.00  0.00     0.163 C 
HETATM    8  N2  UNL     1      26.119   1.699  51.733  1.00  0.00    -0.368 N 
HETATM    9  C14 UNL     1      26.698   2.960  51.370  1.00  0.00     0.207 C 
HETATM   10  N3  UNL     1      26.815   3.111  49.948  1.00  0.00    -0.284 NA
HETATM   11  C15 UNL     1      26.191   4.073  49.387  1.00  0.00     0.327 C 
HETATM   12  N4  UNL     1      25.377   5.022  50.052  1.00  0.00    -0.254 NA
HETATM   13  C16 UNL     1      24.291   4.673  50.624  1.00  0.00     0.156 C 
ENDROOT
BRANCH   8  14
HETATM   14  C7  UNL     1      26.357   1.325  53.087  1.00  0.00     0.251 C 
BRANCH  14  15
HETATM   15  O2  UNL     1      26.513   2.377  53.977  1.00  0.00    -0.373 OA
HETATM   16  H11 UNL     1      25.802   2.378  54.666  1.00  0.00     0.212 HD
ENDBRANCH  14  15
BRANCH  14  17
HETATM   17  C8  UNL     1      27.459   0.312  53.190  1.00  0.00    -0.010 A 
HETATM   18  C9  UNL     1      28.709   0.721  53.569  1.00  0.00     0.011 A 
HETATM   19  C10 UNL     1      29.689  -0.232  53.653  1.00  0.00     0.001 A 
HETATM   20  C11 UNL     1      29.375  -1.548  53.355  1.00  0.00     0.000 A 
HETATM   21  C12 UNL     1      28.116  -1.924  52.978  1.00  0.00     0.001 A 
HETATM   22  C13 UNL     1      27.092  -0.988  52.881  1.00  0.00     0.011 A 
ENDBRANCH  14  17
ENDBRANCH   8  14
BRANCH   1  23
HETATM   23  C1  UNL     1      20.786   0.610  52.634  1.00  0.00     0.351 C 
HETATM   24  O1  UNL     1      21.322  -0.508  52.915  1.00  0.00    -0.284 OA
ENDBRANCH   1  23
TORSDOF 4
ENDMDL
MODEL 2
REMARK VINA RESULT:      -7.4      2.086      2.634
REMARK  4 active torsions:
REMARK  status: ('A' for Active; 'I' for Inactive)
REMARK    1  A    between atoms: C1_2  and  N1_3 
REMARK    2  A    between atoms: N2_10  and  C7_11 
REMARK    3  A    between atoms: C7_11  and  O2_12 
REMARK    4  A    between atoms: C7_11  and  C8_13 
ROOT
HETATM    1  N1  UNL     1      20.980  -0.489  53.695  1.00  0.00    -0.354 N 
HETATM    2  C2  UNL     1      19.690  -0.159  53.173  1.00  0.00     0.135 C 
HETATM    3  C3  UNL     1      19.745   1.100  52.363  1.00  0.00     0.093 C 
HETATM    4  S1  UNL     1      21.260   1.172  51.450  1.00  0.00    -0.148 SA
HETATM    5  C4  UNL     1      22.517   0.861  52.393  1.00  0.00    -0.013 C 
HETATM    6  C5  UNL     1      21.926   0.616  53.737  1.00  0.00     0.167 C 
HETATM    7  C6  UNL     1      23.898   0.850  51.882  1.00  0.00     0.163 C 
HETATM    8  N2  UNL     1      24.668   2.019  52.021  1.00  0.00    -0.368 N 
HETATM    9  C14 UNL     1      24.302   3.151  51.219  1.00  0.00     0.207 C 
HETATM   10  N3  UNL     1      24.365   2.861  49.814  1.00  0.00    -0.284 NA
HETATM   11  C15 UNL     1      23.295   2.960  49.126  1.00  0.00     0.327 C 
HETATM   12  N4  UNL     1      22.026   3.336  49.630  1.00  0.00    -0.254 NA
HETATM   13  C16 UNL     1      21.402   2.597  50.463  1.00  0.00     0.156 C 
ENDROOT
BRANCH   8  14
HETATM   14  C7  UNL     1      25.021   2.353  53.359  1.00  0.00     0.251 C 
BRANCH  14  15
HETATM   15  O2  UNL     1      24.870   3.689  53.700  1.00  0.00    -0.373 OA
HETATM   16  H11 UNL     1      24.122   4.107  53.206  1.00  0.00     0.212 HD
ENDBRANCH  14  15
BRANCH  14  17
HETATM   17  C8  UNL     1      26.375   1.814  53.718  1.00  0.00    -0.010 A 
HETATM   18  C9  UNL     1      27.493   2.451  53.252  1.00  0.00     0.011 A 
HETATM   19  C10 UNL     1      28.710   1.931  53.601  1.00  0.00     0.001 A 
HETATM   20  C11 UNL     1      28.755   0.800  54.399  1.00  0.00     0.000 A 
HETATM   21  C12 UNL     1      27.620   0.186  54.849  1.00  0.00     0.001 A 
HETATM   22  C13 UNL     1      26.363   0.682  54.517  1.00  0.00     0.011 A 
ENDBRANCH  14  17
ENDBRANCH   8  14
BRANCH   1  23
HETATM   23  C1  UNL     1      21.294  -1.801  54.134  1.00  0.00     0.351 C 
HETATM   24  O1  UNL     1      22.008  -2.078  55.149  1.00  0.00    -0.284 OA
ENDBRANCH   1  23
TORSDOF 4
ENDMDL
MODEL 3
REMARK VINA RESULT:      -7.1      2.621      5.441
REMARK  4 active torsions:
REMARK  status: ('A' for Active; 'I' for Inactive)
REMARK    1  A    between atoms: C1_2  and  N1_3 
REMARK    2  A    between atoms: N2_10  and  C7_11 
REMARK    3  A    between atoms: C7_11  and  O2_12 
REMARK    4  A    between atoms: C7_11  and  C8_13 
ROOT
HETATM    1  N1  UNL     1      24.546  -0.138  53.376  1.00  0.00    -0.354 N 
HETATM    2  C2  UNL     1      23.420  -0.688  54.066  1.00  0.00     0.135 C 
HETATM    3  C3  UNL     1      22.201   0.157  53.861  1.00  0.00     0.093 C 
HETATM    4  S1  UNL     1      22.169   0.794  52.210  1.00  0.00    -0.148 SA
HETATM    5  C4  UNL     1      23.578   1.447  51.817  1.00  0.00    -0.013 C 
HETATM    6  C5  UNL     1      24.424   1.269  53.028  1.00  0.00     0.167 C 
HETATM    7  C6  UNL     1      23.825   2.045  50.494  1.00  0.00     0.163 C 
HETATM    8  N2  UNL     1      23.662   3.435  50.352  1.00  0.00    -0.368 N 
HETATM    9  C14 UNL     1      22.327   3.955  50.420  1.00  0.00     0.207 C 
HETATM   10  N3  UNL     1      21.479   3.403  49.402  1.00  0.00    -0.284 NA
HETATM   11  C15 UNL     1      20.450   2.742  49.764  1.00  0.00     0.327 C 
HETATM   12  N4  UNL     1      20.059   2.497  51.102  1.00  0.00    -0.254 NA
HETATM   13  C16 UNL     1      20.773   1.775  51.876  1.00  0.00     0.156 C 
ENDROOT
BRANCH   8  14
HETATM   14  C7  UNL     1      24.624   4.228  51.040  1.00  0.00     0.251 C 
BRANCH  14  15
HETATM   15  O2  UNL     1      24.107   5.136  51.952  1.00  0.00    -0.373 OA
HETATM   16  H11 UNL     1      24.560   5.068  52.829  1.00  0.00     0.212 HD
ENDBRANCH  14  15
BRANCH  14  17
HETATM   17  C8  UNL     1      25.599   4.856  50.087  1.00  0.00    -0.010 A 
HETATM   18  C9  UNL     1      26.619   4.099  49.579  1.00  0.00     0.011 A 
HETATM   19  C10 UNL     1      27.487   4.707  48.712  1.00  0.00     0.001 A 
HETATM   20  C11 UNL     1      27.296   6.041  48.393  1.00  0.00     0.000 A 
HETATM   21  C12 UNL     1      26.267   6.770  48.918  1.00  0.00     0.001 A 
HETATM   22  C13 UNL     1      25.363   6.192  49.803  1.00  0.00     0.011 A 
ENDBRANCH  14  17
ENDBRANCH   8  14
BRANCH   1  23
HETATM   23  C1  UNL     1      25.686  -0.922  53.064  1.00  0.00     0.351 C 
HETATM   24  O1  UNL     1      26.608  -1.227  53.885  1.00  0.00    -0.284 OA
ENDBRANCH   1  23
TORSDOF 4
ENDMDL
MODEL 4
REMARK VINA RESULT:      -6.8      2.114      2.940
REMARK  4 active torsions:
REMARK  status: ('A' for Active; 'I' for Inactive)
REMARK    1  A    between atoms: C1_2  and  N1_3 
REMARK    2  A    between atoms: N2_10  and  C7_11 
REMARK    3  A    between atoms: C7_11  and  O2_12 
REMARK    4  A    between atoms: C7_11  and  C8_13 
ROOT
HETATM    1  N1  UNL     1      19.259   1.578  51.931  1.00  0.00    -0.354 N 
HETATM    2  C2  UNL     1      18.261   2.528  51.546  1.00  0.00     0.135 C 
HETATM    3  C3  UNL     1      18.887   3.827  51.140  1.00  0.00     0.093 C 
HETATM    4  S1  UNL     1      20.399   3.532  50.269  1.00  0.00    -0.148 SA
HETATM    5  C4  UNL     1      21.328   2.496  51.063  1.00  0.00    -0.013 C 
HETATM    6  C5  UNL     1      20.548   2.152  52.283  1.00  0.00     0.167 C 
HETATM    7  C6  UNL     1      22.642   2.070  50.553  1.00  0.00     0.163 C 
HETATM    8  N2  UNL     1      23.786   2.745  51.019  1.00  0.00    -0.368 N 
HETATM    9  C14 UNL     1      23.976   4.100  50.589  1.00  0.00     0.207 C 
HETATM   10  N3  UNL     1      24.071   4.205  49.160  1.00  0.00    -0.284 NA
HETATM   11  C15 UNL     1      23.203   4.911  48.546  1.00  0.00     0.327 C 
HETATM   12  N4  UNL     1      22.134   5.612  49.155  1.00  0.00    -0.254 NA
HETATM   13  C16 UNL     1      21.187   4.989  49.742  1.00  0.00     0.156 C 
ENDROOT
BRANCH   8  14
HETATM   14  C7  UNL     1      24.097   2.528  52.391  1.00  0.00     0.251 C 
BRANCH  14  15
HETATM   15  O2  UNL     1      24.655   3.610  53.055  1.00  0.00    -0.373 OA
HETATM   16  H11 UNL     1      24.995   4.289  52.420  1.00  0.00     0.212 HD
ENDBRANCH  14  15
BRANCH  14  17
HETATM   17  C8  UNL     1      24.884   1.265  52.582  1.00  0.00    -0.010 A 
HETATM   18  C9  UNL     1      24.415   0.307  53.439  1.00  0.00     0.011 A 
HETATM   19  C10 UNL     1      25.160  -0.832  53.586  1.00  0.00     0.001 A 
HETATM   20  C11 UNL     1      26.339  -0.962  52.870  1.00  0.00     0.000 A 
HETATM   21  C12 UNL     1      26.781   0.013  52.021  1.00  0.00     0.001 A 
HETATM   22  C13 UNL     1      26.054   1.186  51.843  1.00  0.00     0.011 A 
ENDBRANCH  14  17
ENDBRANCH   8  14
BRANCH   1  23
HETATM   23  C1  UNL     1      18.990   0.185  51.962  1.00  0.00     0.351 C 
HETATM   24  O1  UNL     1      18.955  -0.527  53.014  1.00  0.00    -0.284 OA
ENDBRANCH   1  23
TORSDOF 4
ENDMDL
MODEL 5
REMARK VINA RESULT:      -6.7      3.275      7.247
REMARK  4 active torsions:
REMARK  status: ('A' for Active; 'I' for Inactive)
REMARK    1  A    between atoms: C1_2  and  N1_3 
REMARK    2  A    between atoms: N2_10  and  C7_11 
REMARK    3  A    between atoms: C7_11  and  O2_12 
REMARK    4  A    between atoms: C7_11  and  C8_13 
ROOT
HETATM    1  N1  UNL     1      23.088  -0.568  53.832  1.00  0.00    -0.354 N 
HETATM    2  C2  UNL     1      24.459  -0.183  53.701  1.00  0.00     0.135 C 
HETATM    3  C3  UNL     1      24.623   0.864  52.642  1.00  0.00     0.093 C 
HETATM    4  S1  UNL     1      23.251   1.983  52.672  1.00  0.00    -0.148 SA
HETATM    5  C4  UNL     1      21.860   1.188  52.697  1.00  0.00    -0.013 C 
HETATM    6  C5  UNL     1      22.249  -0.249  52.687  1.00  0.00     0.167 C 
HETATM    7  C6  UNL     1      20.561   1.880  52.732  1.00  0.00     0.163 C 
HETATM    8  N2  UNL     1      19.889   2.094  51.515  1.00  0.00    -0.368 N 
HETATM    9  C14 UNL     1      20.455   3.047  50.605  1.00  0.00     0.207 C 
HETATM   10  N3  UNL     1      20.547   4.358  51.183  1.00  0.00    -0.284 NA
HETATM   11  C15 UNL     1      21.702   4.890  51.298  1.00  0.00     0.327 C 
HETATM   12  N4  UNL     1      22.924   4.294  50.903  1.00  0.00    -0.254 NA
HETATM   13  C16 UNL     1      23.366   3.247  51.485  1.00  0.00     0.156 C 
ENDROOT
BRANCH   8  14
HETATM   14  C7  UNL     1      19.398   0.917  50.882  1.00  0.00     0.251 C 
BRANCH  14  15
HETATM   15  O2  UNL     1      19.268   0.990  49.504  1.00  0.00    -0.373 OA
HETATM   16  H11 UNL     1      19.990   1.533  49.100  1.00  0.00     0.212 HD
ENDBRANCH  14  15
BRANCH  14  17
HETATM   17  C8  UNL     1      18.154   0.413  51.554  1.00  0.00    -0.010 A 
HETATM   18  C9  UNL     1      18.231  -0.690  52.361  1.00  0.00     0.011 A 
HETATM   19  C10 UNL     1      17.076  -1.119  52.958  1.00  0.00     0.001 A 
HETATM   20  C11 UNL     1      15.899  -0.429  52.721  1.00  0.00     0.000 A 
HETATM   21  C12 UNL     1      15.855   0.669  51.908  1.00  0.00     0.001 A 
HETATM   22  C13 UNL     1      17.005   1.139  51.283  1.00  0.00     0.011 A 
ENDBRANCH  14  17
ENDBRANCH   8  14
BRANCH   1  23
HETATM   23  C1  UNL     1      22.603  -1.214  54.998  1.00  0.00     0.351 C 
HETATM   24  O1  UNL     1      21.546  -1.917  55.055  1.00  0.00    -0.284 OA
ENDBRANCH   1  23
TORSDOF 4
ENDMDL
MODEL 6
REMARK VINA RESULT:      -6.6      2.152      6.506
REMARK  4 active torsions:
REMARK  status: ('A' for Active; 'I' for Inactive)
REMARK    1  A    between atoms: C1_2  and  N1_3 
REMARK    2  A    between atoms: N2_10  and  C7_11 
REMARK    3  A    between atoms: C7_11  and  O2_12 
REMARK    4  A    between atoms: C7_11  and  C8_13 
ROOT
HETATM    1  N1  UNL     1      25.945   0.593  53.121  1.00  0.00    -0.354 N 
HETATM    2  C2  UNL     1      26.989   1.427  52.609  1.00  0.00     0.135 C 
HETATM    3  C3  UNL     1      26.448   2.421  51.628  1.00  0.00     0.093 C 
HETATM    4  S1  UNL     1      24.857   2.992  52.153  1.00  0.00    -0.148 SA
HETATM    5  C4  UNL     1      23.903   1.766  52.543  1.00  0.00    -0.013 C 
HETATM    6  C5  UNL     1      24.738   0.555  52.312  1.00  0.00     0.167 C 
HETATM    7  C6  UNL     1      22.524   1.963  53.020  1.00  0.00     0.163 C 
HETATM    8  N2  UNL     1      21.478   1.881  52.083  1.00  0.00    -0.368 N 
HETATM    9  C14 UNL     1      21.372   2.933  51.114  1.00  0.00     0.207 C 
HETATM   10  N3  UNL     1      21.184   4.217  51.730  1.00  0.00    -0.284 NA
HETATM   11  C15 UNL     1      22.061   5.121  51.527  1.00  0.00     0.327 C 
HETATM   12  N4  UNL     1      23.227   4.972  50.737  1.00  0.00    -0.254 NA
HETATM   13  C16 UNL     1      24.158   4.169  51.080  1.00  0.00     0.156 C 
ENDROOT
BRANCH   8  14
HETATM   14  C7  UNL     1      21.251   0.581  51.547  1.00  0.00     0.251 C 
BRANCH  14  15
HETATM   15  O2  UNL     1      21.596   0.417  50.213  1.00  0.00    -0.373 OA
HETATM   16  H11 UNL     1      21.932   1.260  49.820  1.00  0.00     0.212 HD
ENDBRANCH  14  15
BRANCH  14  17
HETATM   17  C8  UNL     1      19.861   0.101  51.847  1.00  0.00    -0.010 A 
HETATM   18  C9  UNL     1      18.849   0.396  50.975  1.00  0.00     0.011 A 
HETATM   19  C10 UNL     1      17.595  -0.060  51.283  1.00  0.00     0.001 A 
HETATM   20  C11 UNL     1      17.410  -0.790  52.445  1.00  0.00     0.000 A 
HETATM   21  C12 UNL     1      18.443  -1.068  53.296  1.00  0.00     0.001 A 
HETATM   22  C13 UNL     1      19.732  -0.623  53.022  1.00  0.00     0.011 A 
ENDBRANCH  14  17
ENDBRANCH   8  14
BRANCH   1  23
HETATM   23  C1  UNL     1      26.097  -0.132  54.331  1.00  0.00     0.351 C 
HETATM   24  O1  UNL     1      27.192  -0.277  54.961  1.00  0.00    -0.284 OA
ENDBRANCH   1  23
TORSDOF 4
ENDMDL
MODEL 7
REMARK VINA RESULT:      -6.6      6.828     10.150
REMARK  4 active torsions:
REMARK  status: ('A' for Active; 'I' for Inactive)
REMARK    1  A    between atoms: C1_2  and  N1_3 
REMARK    2  A    between atoms: N2_10  and  C7_11 
REMARK    3  A    between atoms: C7_11  and  O2_12 
REMARK    4  A    between atoms: C7_11  and  C8_13 
ROOT
HETATM    1  N1  UNL     1      33.113   5.761  47.360  1.00  0.00    -0.354 N 
HETATM    2  C2  UNL     1      34.237   6.526  46.915  1.00  0.00     0.135 C 
HETATM    3  C3  UNL     1      33.841   7.942  46.627  1.00  0.00     0.093 C 
HETATM    4  S1  UNL     1      32.640   8.492  47.806  1.00  0.00    -0.148 SA
HETATM    5  C4  UNL     1      31.455   7.425  47.962  1.00  0.00    -0.013 C 
HETATM    6  C5  UNL     1      31.815   6.326  47.025  1.00  0.00     0.167 C 
HETATM    7  C6  UNL     1      30.327   7.633  48.886  1.00  0.00     0.163 C 
HETATM    8  N2  UNL     1      29.141   8.189  48.373  1.00  0.00    -0.368 N 
HETATM    9  C14 UNL     1      29.171   9.568  47.981  1.00  0.00     0.207 C 
HETATM   10  N3  UNL     1      29.511  10.433  49.075  1.00  0.00    -0.284 NA
HETATM   11  C15 UNL     1      30.564  11.148  48.978  1.00  0.00     0.327 C 
HETATM   12  N4  UNL     1      31.446  11.166  47.870  1.00  0.00    -0.254 NA
HETATM   13  C16 UNL     1      32.135  10.137  47.559  1.00  0.00     0.156 C 
ENDROOT
BRANCH   8  14
HETATM   14  C7  UNL     1      28.424   7.351  47.472  1.00  0.00     0.251 C 
BRANCH  14  15
HETATM   15  O2  UNL     1      27.769   8.007  46.440  1.00  0.00    -0.373 OA
HETATM   16  H11 UNL     1      28.237   7.882  45.576  1.00  0.00     0.212 HD
ENDBRANCH  14  15
BRANCH  14  17
HETATM   17  C8  UNL     1      27.532   6.393  48.206  1.00  0.00    -0.010 A 
HETATM   18  C9  UNL     1      27.971   5.119  48.443  1.00  0.00     0.011 A 
HETATM   19  C10 UNL     1      27.130   4.275  49.117  1.00  0.00     0.001 A 
HETATM   20  C11 UNL     1      25.891   4.742  49.523  1.00  0.00     0.000 A 
HETATM   21  C12 UNL     1      25.482   6.021  49.271  1.00  0.00     0.001 A 
HETATM   22  C13 UNL     1      26.305   6.911  48.589  1.00  0.00     0.011 A 
ENDBRANCH  14  17
ENDBRANCH   8  14
BRANCH   1  23
HETATM   23  C1  UNL     1      33.274   4.545  48.074  1.00  0.00     0.351 C 
HETATM   24  O1  UNL     1      32.428   3.597  48.097  1.00  0.00    -0.284 OA
ENDBRANCH   1  23
TORSDOF 4
ENDMDL
MODEL 8
REMARK VINA RESULT:      -6.5      2.176      4.048
REMARK  4 active torsions:
REMARK  status: ('A' for Active; 'I' for Inactive)
REMARK    1  A    between atoms: C1_2  and  N1_3 
REMARK    2  A    between atoms: N2_10  and  C7_11 
REMARK    3  A    between atoms: C7_11  and  O2_12 
REMARK    4  A    between atoms: C7_11  and  C8_13 
ROOT
HETATM    1  N1  UNL     1      24.025   5.861  50.117  1.00  0.00    -0.354 N 
HETATM    2  C2  UNL     1      22.829   5.772  49.338  1.00  0.00     0.135 C 
HETATM    3  C3  UNL     1      22.323   4.363  49.291  1.00  0.00     0.093 C 
HETATM    4  S1  UNL     1      22.581   3.570  50.852  1.00  0.00    -0.148 SA
HETATM    5  C4  UNL     1      24.082   3.784  51.367  1.00  0.00    -0.013 C 
HETATM    6  C5  UNL     1      24.729   4.602  50.305  1.00  0.00     0.167 C 
HETATM    7  C6  UNL     1      24.560   3.233  52.646  1.00  0.00     0.163 C 
HETATM    8  N2  UNL     1      25.232   1.997  52.628  1.00  0.00    -0.368 N 
HETATM    9  C14 UNL     1      24.458   0.827  52.328  1.00  0.00     0.207 C 
HETATM   10  N3  UNL     1      23.393   0.627  53.271  1.00  0.00    -0.284 NA
HETATM   11  C15 UNL     1      22.193   0.630  52.839  1.00  0.00     0.327 C 
HETATM   12  N4  UNL     1      21.805   0.818  51.490  1.00  0.00    -0.254 NA
HETATM   13  C16 UNL     1      22.004   1.930  50.895  1.00  0.00     0.156 C 
ENDROOT
BRANCH   8  14
HETATM   14  C7  UNL     1      26.511   2.015  52.002  1.00  0.00     0.251 C 
BRANCH  14  15
HETATM   15  O2  UNL     1      26.532   1.613  50.675  1.00  0.00    -0.373 OA
HETATM   16  H11 UNL     1      27.397   1.195  50.437  1.00  0.00     0.212 HD
ENDBRANCH  14  15
BRANCH  14  17
HETATM   17  C8  UNL     1      27.539   1.309  52.837  1.00  0.00    -0.010 A 
HETATM   18  C9  UNL     1      28.342   2.041  53.669  1.00  0.00     0.011 A 
HETATM   19  C10 UNL     1      29.266   1.362  54.416  1.00  0.00     0.001 A 
HETATM   20  C11 UNL     1      29.347  -0.015  54.297  1.00  0.00     0.000 A 
HETATM   21  C12 UNL     1      28.530  -0.718  53.456  1.00  0.00     0.001 A 
HETATM   22  C13 UNL     1      27.578  -0.067  52.680  1.00  0.00     0.011 A 
ENDBRANCH  14  17
ENDBRANCH   8  14
BRANCH   1  23
HETATM   23  C1  UNL     1      24.475   7.094  50.657  1.00  0.00     0.351 C 
HETATM   24  O1  UNL     1      23.717   8.025  51.075  1.00  0.00    -0.284 OA
ENDBRANCH   1  23
TORSDOF 4
ENDMDL
MODEL 9
REMARK VINA RESULT:      -6.5      2.699      3.612
REMARK  4 active torsions:
REMARK  status: ('A' for Active; 'I' for Inactive)
REMARK    1  A    between atoms: C1_2  and  N1_3 
REMARK    2  A    between atoms: N2_10  and  C7_11 
REMARK    3  A    between atoms: C7_11  and  O2_12 
REMARK    4  A    between atoms: C7_11  and  C8_13 
ROOT
HETATM    1  N1  UNL     1      20.995   5.176  50.943  1.00  0.00    -0.354 N 
HETATM    2  C2  UNL     1      21.132   6.467  50.344  1.00  0.00     0.135 C 
HETATM    3  C3  UNL     1      22.575   6.846  50.211  1.00  0.00     0.093 C 
HETATM    4  S1  UNL     1      23.544   5.424  49.794  1.00  0.00    -0.148 SA
HETATM    5  C4  UNL     1      23.204   4.192  50.759  1.00  0.00    -0.013 C 
HETATM    6  C5  UNL     1      22.161   4.716  51.683  1.00  0.00     0.167 C 
HETATM    7  C6  UNL     1      23.864   2.882  50.624  1.00  0.00     0.163 C 
HETATM    8  N2  UNL     1      24.982   2.615  51.435  1.00  0.00    -0.368 N 
HETATM    9  C14 UNL     1      26.190   3.335  51.157  1.00  0.00     0.207 C 
HETATM   10  N3  UNL     1      26.667   3.097  49.824  1.00  0.00    -0.284 NA
HETATM   11  C15 UNL     1      26.764   4.090  49.029  1.00  0.00     0.327 C 
HETATM   12  N4  UNL     1      26.438   5.431  49.345  1.00  0.00    -0.254 NA
HETATM   13  C16 UNL     1      25.235   5.775  49.600  1.00  0.00     0.156 C 
ENDROOT
BRANCH   8  14
HETATM   14  C7  UNL     1      24.699   2.480  52.824  1.00  0.00     0.251 C 
BRANCH  14  15
HETATM   15  O2  UNL     1      25.776   2.683  53.674  1.00  0.00    -0.373 OA
HETATM   16  H11 UNL     1      26.326   1.865  53.764  1.00  0.00     0.212 HD
ENDBRANCH  14  15
BRANCH  14  17
HETATM   17  C8  UNL     1      23.967   1.202  53.113  1.00  0.00    -0.010 A 
HETATM   18  C9  UNL     1      24.682   0.050  53.299  1.00  0.00     0.011 A 
HETATM   19  C10 UNL     1      23.980  -1.095  53.562  1.00  0.00     0.001 A 
HETATM   20  C11 UNL     1      22.598  -1.038  53.626  1.00  0.00     0.000 A 
HETATM   21  C12 UNL     1      21.913   0.129  53.434  1.00  0.00     0.001 A 
HETATM   22  C13 UNL     1      22.587   1.315  53.166  1.00  0.00     0.011 A 
ENDBRANCH  14  17
ENDBRANCH   8  14
BRANCH   1  23
HETATM   23  C1  UNL     1      19.804   4.416  50.815  1.00  0.00     0.351 C 
HETATM   24  O1  UNL     1      19.157   3.907  51.784  1.00  0.00    -0.284 OA
ENDBRANCH   1  23
TORSDOF 4
ENDMDL
