MODEL 1
REMARK VINA RESULT:      -8.5      0.000      0.000
REMARK  1 active torsions:
REMARK  status: ('A' for Active; 'I' for Inactive)
REMARK    1  A    between atoms: C3_4  and  N2_5 
ROOT
HETATM    1  N1  UNL     1      23.569   4.125  53.071  1.00  0.00    -0.191 NA
HETATM    2  C1  UNL     1      24.338   3.263  53.088  1.00  0.00     0.104 C 
HETATM    3  C2  UNL     1      25.308   2.212  53.118  1.00  0.00     0.098 C 
HETATM    4  C3  UNL     1      24.821   1.058  52.713  1.00  0.00     0.115 C 
HETATM    5  C9  UNL     1      25.512  -0.124  52.635  1.00  0.00    -0.046 C 
HETATM    6  C10 UNL     1      26.106  -1.099  52.571  1.00  0.00    -0.090 C 
HETATM    7  C11 UNL     1      26.844  -2.270  52.501  1.00  0.00     0.118 C 
HETATM    8  C12 UNL     1      28.114  -2.391  52.827  1.00  0.00     0.202 A 
HETATM    9  C13 UNL     1      29.280  -1.683  53.320  1.00  0.00     0.216 A 
HETATM   10  O1  UNL     1      28.257  -0.918  53.214  1.00  0.00    -0.342 OA
HETATM   11  N3  UNL     1      29.808  -0.441  53.760  1.00  0.00    -0.360 N 
HETATM   12  C14 UNL     1      29.844   0.938  54.094  1.00  0.00     0.105 C 
HETATM   13  C15 UNL     1      28.882   1.830  54.034  1.00  0.00     0.133 C 
HETATM   14  N4  UNL     1      27.564   1.581  53.606  1.00  0.00    -0.270 NA
HETATM   15  C16 UNL     1      26.662   2.488  53.562  1.00  0.00     0.142 C 
HETATM   16  H6  UNL     1      30.646  -1.058  53.850  1.00  0.00     0.162 HD
ENDROOT
BRANCH   4  17
HETATM   17  N2  UNL     1      23.499   0.835  52.291  1.00  0.00    -0.322 N 
HETATM   18  C4  UNL     1      22.662   0.190  53.259  1.00  0.00     0.109 C 
HETATM   19  C5  UNL     1      21.379   0.051  53.074  1.00  0.00    -0.007 C 
HETATM   20  C6  UNL     1      20.888   0.224  51.878  1.00  0.00     0.034 C 
HETATM   21  C7  UNL     1      21.651   0.880  50.831  1.00  0.00     0.027 C 
HETATM   22 BR1  UNL     1      20.926   1.356  49.136  1.00  0.00    -0.050 Br
HETATM   23  C8  UNL     1      22.926   1.180  51.027  1.00  0.00     0.116 C 
ENDBRANCH   4  17
TORSDOF 1
ENDMDL
MODEL 2
REMARK VINA RESULT:      -8.3      3.082      6.374
REMARK  1 active torsions:
REMARK  status: ('A' for Active; 'I' for Inactive)
REMARK    1  A    between atoms: C3_4  and  N2_5 
ROOT
HETATM    1  N1  UNL     1      26.780   3.058  50.321  1.00  0.00    -0.191 NA
HETATM    2  C1  UNL     1      25.913   2.497  50.839  1.00  0.00     0.104 C 
HETATM    3  C2  UNL     1      24.823   1.812  51.462  1.00  0.00     0.098 C 
HETATM    4  C3  UNL     1      25.203   1.073  52.484  1.00  0.00     0.115 C 
HETATM    5  C9  UNL     1      24.383   0.306  53.272  1.00  0.00    -0.046 C 
HETATM    6  C10 UNL     1      23.684  -0.323  53.921  1.00  0.00    -0.090 C 
HETATM    7  C11 UNL     1      22.818  -1.079  54.696  1.00  0.00     0.118 C 
HETATM    8  C12 UNL     1      21.517  -1.166  54.520  1.00  0.00     0.202 A 
HETATM    9  C13 UNL     1      20.402  -0.722  53.705  1.00  0.00     0.216 A 
HETATM   10  O1  UNL     1      21.517  -0.224  53.316  1.00  0.00    -0.342 OA
HETATM   11  N3  UNL     1      19.989   0.070  52.602  1.00  0.00    -0.360 N 
HETATM   12  C14 UNL     1      20.089   0.954  51.496  1.00  0.00     0.105 C 
HETATM   13  C15 UNL     1      21.153   1.534  50.993  1.00  0.00     0.133 C 
HETATM   14  N4  UNL     1      22.468   1.385  51.476  1.00  0.00    -0.270 NA
HETATM   15  C16 UNL     1      23.475   1.977  50.952  1.00  0.00     0.142 C 
HETATM   16  H6  UNL     1      19.076  -0.332  52.913  1.00  0.00     0.162 HD
ENDROOT
BRANCH   4  17
HETATM   17  N2  UNL     1      26.524   0.941  52.946  1.00  0.00    -0.322 N 
HETATM   18  C4  UNL     1      27.083   2.135  53.510  1.00  0.00     0.109 C 
HETATM   19  C5  UNL     1      28.238   2.134  54.114  1.00  0.00    -0.007 C 
HETATM   20  C6  UNL     1      29.038   1.116  53.952  1.00  0.00     0.034 C 
HETATM   21  C7  UNL     1      28.565  -0.142  53.403  1.00  0.00     0.027 C 
HETATM   22 BR1  UNL     1      29.617  -1.728  53.337  1.00  0.00    -0.050 Br
HETATM   23  C8  UNL     1      27.338  -0.233  52.911  1.00  0.00     0.116 C 
ENDBRANCH   4  17
TORSDOF 1
ENDMDL
MODEL 3
REMARK VINA RESULT:      -7.9      3.245      6.823
REMARK  1 active torsions:
REMARK  status: ('A' for Active; 'I' for Inactive)
REMARK    1  A    between atoms: C3_4  and  N2_5 
ROOT
HETATM    1  N1  UNL     1      25.177  -1.388  55.789  1.00  0.00    -0.191 NA
HETATM    2  C1  UNL     1      24.614  -0.873  54.922  1.00  0.00     0.104 C 
HETATM    3  C2  UNL     1      23.894  -0.244  53.858  1.00  0.00     0.098 C 
HETATM    4  C3  UNL     1      24.665   0.492  53.086  1.00  0.00     0.115 C 
HETATM    5  C9  UNL     1      24.258   1.211  51.991  1.00  0.00    -0.046 C 
HETATM    6  C10 UNL     1      23.901   1.799  51.079  1.00  0.00    -0.090 C 
HETATM    7  C11 UNL     1      23.447   2.505  49.975  1.00  0.00     0.118 C 
HETATM    8  C12 UNL     1      22.200   2.542  49.555  1.00  0.00     0.202 A 
HETATM    9  C13 UNL     1      20.854   2.066  49.806  1.00  0.00     0.216 A 
HETATM   10  O1  UNL     1      21.694   1.621  50.665  1.00  0.00    -0.342 OA
HETATM   11  N3  UNL     1      20.017   1.276  50.638  1.00  0.00    -0.360 N 
HETATM   12  C14 UNL     1      19.643   0.416  51.703  1.00  0.00     0.105 C 
HETATM   13  C15 UNL     1      20.390  -0.111  52.645  1.00  0.00     0.133 C 
HETATM   14  N4  UNL     1      21.778   0.084  52.789  1.00  0.00    -0.270 NA
HETATM   15  C16 UNL     1      22.465  -0.456  53.724  1.00  0.00     0.142 C 
HETATM   16  H6  UNL     1      19.326   1.635  49.942  1.00  0.00     0.162 HD
ENDROOT
BRANCH   4  17
HETATM   17  N2  UNL     1      26.050   0.671  53.252  1.00  0.00    -0.322 N 
HETATM   18  C4  UNL     1      26.455   2.027  53.478  1.00  0.00     0.109 C 
HETATM   19  C5  UNL     1      27.681   2.333  53.797  1.00  0.00    -0.007 C 
HETATM   20  C6  UNL     1      28.623   1.447  53.622  1.00  0.00     0.034 C 
HETATM   21  C7  UNL     1      28.316   0.045  53.401  1.00  0.00     0.027 C 
HETATM   22 BR1  UNL     1      29.633  -1.329  53.350  1.00  0.00    -0.050 Br
HETATM   23  C8  UNL     1      27.061  -0.339  53.219  1.00  0.00     0.116 C 
ENDBRANCH   4  17
TORSDOF 1
ENDMDL
MODEL 4
REMARK VINA RESULT:      -7.8      3.069      4.029
REMARK  1 active torsions:
REMARK  status: ('A' for Active; 'I' for Inactive)
REMARK    1  A    between atoms: C3_4  and  N2_5 
ROOT
HETATM    1  N1  UNL     1      26.547   4.806  49.069  1.00  0.00    -0.191 NA
HETATM    2  C1  UNL     1      26.237   4.001  49.838  1.00  0.00     0.104 C 
HETATM    3  C2  UNL     1      25.879   3.001  50.796  1.00  0.00     0.098 C 
HETATM    4  C3  UNL     1      24.579   2.801  50.862  1.00  0.00     0.115 C 
HETATM    5  C9  UNL     1      23.943   1.909  51.686  1.00  0.00    -0.046 C 
HETATM    6  C10 UNL     1      23.430   1.155  52.375  1.00  0.00    -0.090 C 
HETATM    7  C11 UNL     1      22.829   0.235  53.221  1.00  0.00     0.118 C 
HETATM    8  C12 UNL     1      23.463  -0.552  54.064  1.00  0.00     0.202 A 
HETATM    9  C13 UNL     1      24.765  -0.931  54.576  1.00  0.00     0.216 A 
HETATM   10  O1  UNL     1      24.843  -0.017  53.681  1.00  0.00    -0.342 OA
HETATM   11  N3  UNL     1      26.167  -0.717  54.510  1.00  0.00    -0.360 N 
HETATM   12  C14 UNL     1      27.402  -0.159  54.088  1.00  0.00     0.105 C 
HETATM   13  C15 UNL     1      27.627   0.772  53.191  1.00  0.00     0.133 C 
HETATM   14  N4  UNL     1      26.639   1.432  52.435  1.00  0.00    -0.270 NA
HETATM   15  C16 UNL     1      26.910   2.332  51.566  1.00  0.00     0.142 C 
HETATM   16  H6  UNL     1      26.113  -1.461  55.241  1.00  0.00     0.162 HD
ENDROOT
BRANCH   4  17
HETATM   17  N2  UNL     1      23.612   3.475  50.095  1.00  0.00    -0.322 N 
HETATM   18  C4  UNL     1      23.287   2.840  48.851  1.00  0.00     0.109 C 
HETATM   19  C5  UNL     1      22.306   3.259  48.102  1.00  0.00    -0.007 C 
HETATM   20  C6  UNL     1      21.800   4.441  48.322  1.00  0.00     0.034 C 
HETATM   21  C7  UNL     1      22.058   5.161  49.557  1.00  0.00     0.027 C 
HETATM   22 BR1  UNL     1      21.187   6.785  50.034  1.00  0.00    -0.050 Br
HETATM   23  C8  UNL     1      22.942   4.693  50.426  1.00  0.00     0.116 C 
ENDBRANCH   4  17
TORSDOF 1
ENDMDL
MODEL 5
REMARK VINA RESULT:      -7.7      5.124      6.634
REMARK  1 active torsions:
REMARK  status: ('A' for Active; 'I' for Inactive)
REMARK    1  A    between atoms: C3_4  and  N2_5 
ROOT
HETATM    1  N1  UNL     1      21.615   6.070  51.476  1.00  0.00    -0.191 NA
HETATM    2  C1  UNL     1      22.680   6.171  51.042  1.00  0.00     0.104 C 
HETATM    3  C2  UNL     1      24.000   6.321  50.510  1.00  0.00     0.098 C 
HETATM    4  C3  UNL     1      24.492   5.194  50.042  1.00  0.00     0.115 C 
HETATM    5  C9  UNL     1      25.730   5.029  49.474  1.00  0.00    -0.046 C 
HETATM    6  C10 UNL     1      26.762   4.913  48.999  1.00  0.00    -0.090 C 
HETATM    7  C11 UNL     1      28.019   4.794  48.426  1.00  0.00     0.118 C 
HETATM    8  C12 UNL     1      28.884   5.775  48.275  1.00  0.00     0.202 A 
HETATM    9  C13 UNL     1      29.118   7.189  48.498  1.00  0.00     0.216 A 
HETATM   10  O1  UNL     1      27.964   6.817  48.913  1.00  0.00    -0.342 OA
HETATM   11  N3  UNL     1      28.592   8.407  49.004  1.00  0.00    -0.360 N 
HETATM   12  C14 UNL     1      27.669   9.300  49.608  1.00  0.00     0.105 C 
HETATM   13  C15 UNL     1      26.466   9.058  50.074  1.00  0.00     0.133 C 
HETATM   14  N4  UNL     1      25.824   7.805  50.065  1.00  0.00    -0.270 NA
HETATM   15  C16 UNL     1      24.645   7.621  50.528  1.00  0.00     0.142 C 
HETATM   16  H6  UNL     1      29.531   8.718  48.669  1.00  0.00     0.162 HD
ENDROOT
BRANCH   4  17
HETATM   17  N2  UNL     1      23.830   3.953  50.045  1.00  0.00    -0.322 N 
HETATM   18  C4  UNL     1      23.184   3.617  48.810  1.00  0.00     0.109 C 
HETATM   19  C5  UNL     1      22.658   2.442  48.607  1.00  0.00    -0.007 C 
HETATM   20  C6  UNL     1      22.446   1.657  49.628  1.00  0.00     0.034 C 
HETATM   21  C7  UNL     1      23.066   1.903  50.918  1.00  0.00     0.027 C 
HETATM   22 BR1  UNL     1      22.974   0.691  52.383  1.00  0.00    -0.050 Br
HETATM   23  C8  UNL     1      23.743   3.023  51.126  1.00  0.00     0.116 C 
ENDBRANCH   4  17
TORSDOF 1
ENDMDL
MODEL 6
REMARK VINA RESULT:      -7.5      2.954      4.943
REMARK  1 active torsions:
REMARK  status: ('A' for Active; 'I' for Inactive)
REMARK    1  A    between atoms: C3_4  and  N2_5 
ROOT
HETATM    1  N1  UNL     1      26.882   3.245  50.135  1.00  0.00    -0.191 NA
HETATM    2  C1  UNL     1      26.116   2.688  50.796  1.00  0.00     0.104 C 
HETATM    3  C2  UNL     1      25.186   1.987  51.627  1.00  0.00     0.098 C 
HETATM    4  C3  UNL     1      23.934   2.301  51.368  1.00  0.00     0.115 C 
HETATM    5  C9  UNL     1      22.828   1.792  52.001  1.00  0.00    -0.046 C 
HETATM    6  C10 UNL     1      21.919   1.353  52.536  1.00  0.00    -0.090 C 
HETATM    7  C11 UNL     1      20.830   0.807  53.198  1.00  0.00     0.118 C 
HETATM    8  C12 UNL     1      20.894  -0.084  54.165  1.00  0.00     0.202 A 
HETATM    9  C13 UNL     1      21.791  -0.882  54.979  1.00  0.00     0.216 A 
HETATM   10  O1  UNL     1      22.422  -0.148  54.139  1.00  0.00    -0.342 OA
HETATM   11  N3  UNL     1      23.140  -1.221  55.263  1.00  0.00    -0.360 N 
HETATM   12  C14 UNL     1      24.555  -1.213  55.164  1.00  0.00     0.105 C 
HETATM   13  C15 UNL     1      25.325  -0.519  54.359  1.00  0.00     0.133 C 
HETATM   14  N4  UNL     1      24.875   0.397  53.388  1.00  0.00    -0.270 NA
HETATM   15  C16 UNL     1      25.668   1.047  52.622  1.00  0.00     0.142 C 
HETATM   16  H6  UNL     1      22.633  -1.822  55.951  1.00  0.00     0.162 HD
ENDROOT
BRANCH   4  17
HETATM   17  N2  UNL     1      23.510   3.220  50.392  1.00  0.00    -0.322 N 
HETATM   18  C4  UNL     1      23.602   4.596  50.786  1.00  0.00     0.109 C 
HETATM   19  C5  UNL     1      23.390   5.567  49.943  1.00  0.00    -0.007 C 
HETATM   20  C6  UNL     1      22.797   5.306  48.810  1.00  0.00     0.034 C 
HETATM   21  C7  UNL     1      22.666   3.947  48.316  1.00  0.00     0.027 C 
HETATM   22 BR1  UNL     1      22.008   3.511  46.584  1.00  0.00    -0.050 Br
HETATM   23  C8  UNL     1      23.013   2.924  49.085  1.00  0.00     0.116 C 
ENDBRANCH   4  17
TORSDOF 1
ENDMDL
MODEL 7
REMARK VINA RESULT:      -7.5      3.764      5.934
REMARK  1 active torsions:
REMARK  status: ('A' for Active; 'I' for Inactive)
REMARK    1  A    between atoms: C3_4  and  N2_5 
ROOT
HETATM    1  N1  UNL     1      22.800   4.674  47.929  1.00  0.00    -0.191 NA
HETATM    2  C1  UNL     1      23.128   4.001  48.809  1.00  0.00     0.104 C 
HETATM    3  C2  UNL     1      23.511   3.155  49.897  1.00  0.00     0.098 C 
HETATM    4  C3  UNL     1      24.695   3.458  50.387  1.00  0.00     0.115 C 
HETATM    5  C9  UNL     1      25.323   2.824  51.428  1.00  0.00    -0.046 C 
HETATM    6  C10 UNL     1      25.828   2.287  52.301  1.00  0.00    -0.090 C 
HETATM    7  C11 UNL     1      26.422   1.621  53.362  1.00  0.00     0.118 C 
HETATM    8  C12 UNL     1      25.897   0.606  54.015  1.00  0.00     0.202 A 
HETATM    9  C13 UNL     1      24.746  -0.270  54.109  1.00  0.00     0.216 A 
HETATM   10  O1  UNL     1      24.623   0.594  53.170  1.00  0.00    -0.342 OA
HETATM   11  N3  UNL     1      23.470  -0.603  53.582  1.00  0.00    -0.360 N 
HETATM   12  C14 UNL     1      22.325  -0.536  52.747  1.00  0.00     0.105 C 
HETATM   13  C15 UNL     1      22.068   0.288  51.758  1.00  0.00     0.133 C 
HETATM   14  N4  UNL     1      22.920   1.317  51.311  1.00  0.00    -0.270 NA
HETATM   15  C16 UNL     1      22.621   2.100  50.344  1.00  0.00     0.142 C 
HETATM   16  H6  UNL     1      23.563  -1.311  54.345  1.00  0.00     0.162 HD
ENDROOT
BRANCH   4  17
HETATM   17  N2  UNL     1      25.527   4.492  49.922  1.00  0.00    -0.322 N 
HETATM   18  C4  UNL     1      26.691   4.050  49.211  1.00  0.00     0.109 C 
HETATM   19  C5  UNL     1      27.477   4.886  48.593  1.00  0.00    -0.007 C 
HETATM   20  C6  UNL     1      27.386   6.160  48.862  1.00  0.00     0.034 C 
HETATM   21  C7  UNL     1      26.240   6.709  49.565  1.00  0.00     0.027 C 
HETATM   22 BR1  UNL     1      25.941   8.574  49.802  1.00  0.00    -0.050 Br
HETATM   23  C8  UNL     1      25.329   5.899  50.084  1.00  0.00     0.116 C 
ENDBRANCH   4  17
TORSDOF 1
ENDMDL
MODEL 8
REMARK VINA RESULT:      -7.4      8.522     10.731
REMARK  1 active torsions:
REMARK  status: ('A' for Active; 'I' for Inactive)
REMARK    1  A    between atoms: C3_4  and  N2_5 
ROOT
HETATM    1  N1  UNL     1      33.126   9.277  47.637  1.00  0.00    -0.191 NA
HETATM    2  C1  UNL     1      32.105   8.809  47.909  1.00  0.00     0.104 C 
HETATM    3  C2  UNL     1      30.833   8.252  48.254  1.00  0.00     0.098 C 
HETATM    4  C3  UNL     1      30.729   6.980  47.932  1.00  0.00     0.115 C 
HETATM    5  C9  UNL     1      29.631   6.184  48.140  1.00  0.00    -0.046 C 
HETATM    6  C10 UNL     1      28.710   5.535  48.326  1.00  0.00    -0.090 C 
HETATM    7  C11 UNL     1      27.581   4.765  48.561  1.00  0.00     0.118 C 
HETATM    8  C12 UNL     1      26.471   5.193  49.127  1.00  0.00     0.202 A 
HETATM    9  C13 UNL     1      25.812   6.342  49.716  1.00  0.00     0.216 A 
HETATM   10  O1  UNL     1      27.000   6.615  49.318  1.00  0.00    -0.342 OA
HETATM   11  N3  UNL     1      25.920   7.715  50.063  1.00  0.00    -0.360 N 
HETATM   12  C14 UNL     1      26.496   9.004  50.197  1.00  0.00     0.105 C 
HETATM   13  C15 UNL     1      27.688   9.420  49.838  1.00  0.00     0.133 C 
HETATM   14  N4  UNL     1      28.676   8.630  49.219  1.00  0.00    -0.270 NA
HETATM   15  C16 UNL     1      29.828   9.082  48.892  1.00  0.00     0.142 C 
HETATM   16  H6  UNL     1      24.950   7.501  50.390  1.00  0.00     0.162 HD
ENDROOT
BRANCH   4  17
HETATM   17  N2  UNL     1      31.731   6.212  47.314  1.00  0.00    -0.322 N 
HETATM   18  C4  UNL     1      31.848   6.410  45.898  1.00  0.00     0.109 C 
HETATM   19  C5  UNL     1      32.823   5.886  45.210  1.00  0.00    -0.007 C 
HETATM   20  C6  UNL     1      33.534   4.930  45.743  1.00  0.00     0.034 C 
HETATM   21  C7  UNL     1      33.497   4.659  47.169  1.00  0.00     0.027 C 
HETATM   22 BR1  UNL     1      34.659   3.430  48.042  1.00  0.00    -0.050 Br
HETATM   23  C8  UNL     1      32.618   5.283  47.941  1.00  0.00     0.116 C 
ENDBRANCH   4  17
TORSDOF 1
ENDMDL
MODEL 9
REMARK VINA RESULT:      -7.4      2.663      4.437
REMARK  1 active torsions:
REMARK  status: ('A' for Active; 'I' for Inactive)
REMARK    1  A    between atoms: C3_4  and  N2_5 
ROOT
HETATM    1  N1  UNL     1      18.949   0.275  51.495  1.00  0.00    -0.191 NA
HETATM    2  C1  UNL     1      20.030   0.293  51.902  1.00  0.00     0.104 C 
HETATM    3  C2  UNL     1      21.362   0.298  52.424  1.00  0.00     0.098 C 
HETATM    4  C3  UNL     1      22.171   1.087  51.750  1.00  0.00     0.115 C 
HETATM    5  C9  UNL     1      23.501   1.295  52.015  1.00  0.00    -0.046 C 
HETATM    6  C10 UNL     1      24.606   1.459  52.255  1.00  0.00    -0.090 C 
HETATM    7  C11 UNL     1      25.945   1.644  52.563  1.00  0.00     0.118 C 
HETATM    8  C12 UNL     1      26.586   1.062  53.555  1.00  0.00     0.202 A 
HETATM    9  C13 UNL     1      26.456   0.139  54.666  1.00  0.00     0.216 A 
HETATM   10  O1  UNL     1      25.354   0.291  54.030  1.00  0.00    -0.342 OA
HETATM   11  N3  UNL     1      25.587  -0.716  55.395  1.00  0.00    -0.360 N 
HETATM   12  C14 UNL     1      24.392  -1.388  55.760  1.00  0.00     0.105 C 
HETATM   13  C15 UNL     1      23.205  -1.327  55.205  1.00  0.00     0.133 C 
HETATM   14  N4  UNL     1      22.868  -0.544  54.083  1.00  0.00    -0.270 NA
HETATM   15  C16 UNL     1      21.691  -0.515  53.581  1.00  0.00     0.142 C 
HETATM   16  H6  UNL     1      26.482  -0.846  55.918  1.00  0.00     0.162 HD
ENDROOT
BRANCH   4  17
HETATM   17  N2  UNL     1      21.810   1.859  50.631  1.00  0.00    -0.322 N 
HETATM   18  C4  UNL     1      21.927   1.181  49.374  1.00  0.00     0.109 C 
HETATM   19  C5  UNL     1      21.490   1.710  48.265  1.00  0.00    -0.007 C 
HETATM   20  C6  UNL     1      21.213   2.985  48.236  1.00  0.00     0.034 C 
HETATM   21  C7  UNL     1      21.060   3.758  49.456  1.00  0.00     0.027 C 
HETATM   22 BR1  UNL     1      20.451   5.561  49.494  1.00  0.00    -0.050 Br
HETATM   23  C8  UNL     1      21.350   3.213  50.628  1.00  0.00     0.116 C 
ENDBRANCH   4  17
TORSDOF 1
ENDMDL
