MODEL 1
REMARK VINA RESULT:      -7.2      0.000      0.000
REMARK  8 active torsions:
REMARK  status: ('A' for Active; 'I' for Inactive)
REMARK    1  A    between atoms: O1_2  and  C2_3 
REMARK    2  A    between atoms: C2_3  and  C3_4 
REMARK    3  A    between atoms: C5_6  and  C8_10 
REMARK    4  A    between atoms: C6_7  and  C7_8 
REMARK    5  A    between atoms: C8_10  and  N1_11 
REMARK    6  A    between atoms: N1_11  and  C9_12 
REMARK    7  A    between atoms: C13_17  and  C14_18 
REMARK    8  A    between atoms: C15_19  and  C16_20 
ROOT
HETATM    1  C9  UNL     1      27.596  -0.012  53.738  1.00  0.00     0.041 A 
HETATM    2  C10 UNL     1      28.940  -0.420  53.842  1.00  0.00     0.049 A 
HETATM    3  C11 UNL     1      29.490  -1.629  53.512  1.00  0.00     0.118 A 
HETATM    4  N2  UNL     1      28.608  -2.509  53.028  1.00  0.00    -0.272 NA
HETATM    5  C12 UNL     1      27.314  -2.211  52.895  1.00  0.00     0.130 A 
HETATM    6  C13 UNL     1      26.773  -0.996  53.232  1.00  0.00     0.008 A 
ENDROOT
BRANCH   1   7
HETATM    7  N1  UNL     1      27.101   1.249  54.131  1.00  0.00    -0.389 N 
HETATM    8  H11 UNL     1      26.961   1.333  55.162  1.00  0.00     0.159 HD
BRANCH   7   9
HETATM    9  C8  UNL     1      26.730   2.487  53.490  1.00  0.00     0.126 C 
BRANCH   9  10
HETATM   10  C5  UNL     1      25.193   2.621  53.450  1.00  0.00    -0.022 A 
HETATM   11  C4  UNL     1      24.018   2.796  52.942  1.00  0.00     0.042 A 
HETATM   12  C3  UNL     1      23.366   2.963  51.699  1.00  0.00     0.030 A 
HETATM   13  C6  UNL     1      25.097   2.753  51.868  1.00  0.00     0.097 A 
BRANCH  12  14
HETATM   14  C2  UNL     1      22.209   3.049  52.377  1.00  0.00     0.155 C 
BRANCH  14  15
HETATM   15  O1  UNL     1      20.861   3.466  52.344  1.00  0.00    -0.388 OA
HETATM   16  C1  UNL     1      20.463   4.318  51.274  1.00  0.00     0.202 C 
ENDBRANCH  14  15
ENDBRANCH  12  14
BRANCH  13  17
HETATM   17  C7  UNL     1      26.073   2.706  50.888  1.00  0.00     0.361 C 
HETATM   18  F1  UNL     1      26.788   2.582  49.753  1.00  0.00    -0.461 F 
ENDBRANCH  13  17
ENDBRANCH   9  10
ENDBRANCH   7   9
ENDBRANCH   1   7
BRANCH   6  19
HETATM   19  C14 UNL     1      25.333  -0.794  52.997  1.00  0.00     0.016 C 
HETATM   20  C15 UNL     1      24.471  -0.868  54.003  1.00  0.00     0.012 C 
BRANCH  20  21
HETATM   21  C16 UNL     1      23.010  -0.673  53.810  1.00  0.00    -0.036 A 
HETATM   22  C17 UNL     1      22.116  -0.527  52.819  1.00  0.00     0.011 A 
HETATM   23  C18 UNL     1      21.036  -0.415  53.782  1.00  0.00     0.002 A 
HETATM   24  C19 UNL     1      21.897  -0.553  54.769  1.00  0.00     0.011 A 
ENDBRANCH  20  21
ENDBRANCH   6  19
TORSDOF 8
ENDMDL
MODEL 2
REMARK VINA RESULT:      -7.0      2.125      2.675
REMARK  8 active torsions:
REMARK  status: ('A' for Active; 'I' for Inactive)
REMARK    1  A    between atoms: O1_2  and  C2_3 
REMARK    2  A    between atoms: C2_3  and  C3_4 
REMARK    3  A    between atoms: C5_6  and  C8_10 
REMARK    4  A    between atoms: C6_7  and  C7_8 
REMARK    5  A    between atoms: C8_10  and  N1_11 
REMARK    6  A    between atoms: N1_11  and  C9_12 
REMARK    7  A    between atoms: C13_17  and  C14_18 
REMARK    8  A    between atoms: C15_19  and  C16_20 
ROOT
HETATM    1  C9  UNL     1      27.152   1.353  52.735  1.00  0.00     0.041 A 
HETATM    2  C10 UNL     1      28.402   1.892  53.099  1.00  0.00     0.049 A 
HETATM    3  C11 UNL     1      29.151   1.628  54.213  1.00  0.00     0.118 A 
HETATM    4  N2  UNL     1      28.594   0.736  55.038  1.00  0.00    -0.272 NA
HETATM    5  C12 UNL     1      27.413   0.173  54.776  1.00  0.00     0.130 A 
HETATM    6  C13 UNL     1      26.670   0.448  53.657  1.00  0.00     0.008 A 
ENDROOT
BRANCH   1   7
HETATM    7  N1  UNL     1      26.428   1.702  51.577  1.00  0.00    -0.389 N 
HETATM    8  H11 UNL     1      26.648   1.096  50.756  1.00  0.00     0.159 HD
BRANCH   7   9
HETATM    9  C8  UNL     1      25.441   2.685  51.201  1.00  0.00     0.126 C 
BRANCH   9  10
HETATM   10  C5  UNL     1      24.091   1.995  50.914  1.00  0.00    -0.022 A 
HETATM   11  C4  UNL     1      22.836   1.714  51.046  1.00  0.00     0.042 A 
HETATM   12  C3  UNL     1      21.687   2.104  51.771  1.00  0.00     0.030 A 
HETATM   13  C6  UNL     1      23.262   2.844  51.974  1.00  0.00     0.097 A 
BRANCH  12  14
HETATM   14  C2  UNL     1      21.008   1.158  51.101  1.00  0.00     0.155 C 
BRANCH  14  15
HETATM   15  O1  UNL     1      19.737   0.689  50.707  1.00  0.00    -0.388 OA
HETATM   16  C1  UNL     1      18.881   0.175  51.723  1.00  0.00     0.202 C 
ENDBRANCH  14  15
ENDBRANCH  12  14
BRANCH  13  17
HETATM   17  C7  UNL     1      23.643   3.877  52.812  1.00  0.00     0.361 C 
HETATM   18  F1  UNL     1      23.720   4.966  53.601  1.00  0.00    -0.461 F 
ENDBRANCH  13  17
ENDBRANCH   9  10
ENDBRANCH   7   9
ENDBRANCH   1   7
BRANCH   6  19
HETATM   19  C14 UNL     1      25.399  -0.276  53.479  1.00  0.00     0.016 C 
HETATM   20  C15 UNL     1      24.323   0.075  54.173  1.00  0.00     0.012 C 
BRANCH  20  21
HETATM   21  C16 UNL     1      23.022  -0.629  54.026  1.00  0.00    -0.036 A 
HETATM   22  C17 UNL     1      22.364  -1.395  53.143  1.00  0.00     0.011 A 
HETATM   23  C18 UNL     1      21.228  -1.490  54.040  1.00  0.00     0.002 A 
HETATM   24  C19 UNL     1      21.855  -0.737  54.920  1.00  0.00     0.011 A 
ENDBRANCH  20  21
ENDBRANCH   6  19
TORSDOF 8
ENDMDL
MODEL 3
REMARK VINA RESULT:      -6.9      2.186      2.678
REMARK  8 active torsions:
REMARK  status: ('A' for Active; 'I' for Inactive)
REMARK    1  A    between atoms: O1_2  and  C2_3 
REMARK    2  A    between atoms: C2_3  and  C3_4 
REMARK    3  A    between atoms: C5_6  and  C8_10 
REMARK    4  A    between atoms: C6_7  and  C7_8 
REMARK    5  A    between atoms: C8_10  and  N1_11 
REMARK    6  A    between atoms: N1_11  and  C9_12 
REMARK    7  A    between atoms: C13_17  and  C14_18 
REMARK    8  A    between atoms: C15_19  and  C16_20 
ROOT
HETATM    1  C9  UNL     1      27.213   1.739  53.027  1.00  0.00     0.041 A 
HETATM    2  C10 UNL     1      28.569   1.647  53.400  1.00  0.00     0.049 A 
HETATM    3  C11 UNL     1      29.150   0.784  54.288  1.00  0.00     0.118 A 
HETATM    4  N2  UNL     1      28.290  -0.070  54.853  1.00  0.00    -0.272 NA
HETATM    5  C12 UNL     1      26.988  -0.056  54.561  1.00  0.00     0.130 A 
HETATM    6  C13 UNL     1      26.416   0.817  53.671  1.00  0.00     0.008 A 
ENDROOT
BRANCH   1   7
HETATM    7  N1  UNL     1      26.687   2.683  52.121  1.00  0.00    -0.389 N 
HETATM    8  H11 UNL     1      26.266   3.514  52.592  1.00  0.00     0.159 HD
BRANCH   7   9
HETATM    9  C8  UNL     1      26.567   2.825  50.691  1.00  0.00     0.126 C 
BRANCH   9  10
HETATM   10  C5  UNL     1      25.246   3.540  50.339  1.00  0.00    -0.022 A 
HETATM   11  C4  UNL     1      24.463   4.408  49.789  1.00  0.00     0.042 A 
HETATM   12  C3  UNL     1      24.476   5.481  48.867  1.00  0.00     0.030 A 
HETATM   13  C6  UNL     1      25.900   4.561  49.310  1.00  0.00     0.097 A 
BRANCH  12  14
HETATM   14  C2  UNL     1      23.156   5.611  49.080  1.00  0.00     0.155 C 
BRANCH  14  15
HETATM   15  O1  UNL     1      22.149   5.958  50.006  1.00  0.00    -0.388 OA
HETATM   16  C1  UNL     1      22.237   7.238  50.623  1.00  0.00     0.202 C 
ENDBRANCH  14  15
ENDBRANCH  12  14
BRANCH  13  17
HETATM   17  C7  UNL     1      27.204   4.698  48.865  1.00  0.00     0.361 C 
HETATM   18  F1  UNL     1      28.366   4.687  48.183  1.00  0.00    -0.461 F 
ENDBRANCH  13  17
ENDBRANCH   9  10
ENDBRANCH   7   9
ENDBRANCH   1   7
BRANCH   6  19
HETATM   19  C14 UNL     1      24.969   0.694  53.419  1.00  0.00     0.016 C 
HETATM   20  C15 UNL     1      24.285  -0.326  53.922  1.00  0.00     0.012 C 
BRANCH  20  21
HETATM   21  C16 UNL     1      22.825  -0.490  53.691  1.00  0.00    -0.036 A 
HETATM   22  C17 UNL     1      21.912  -0.308  52.724  1.00  0.00     0.011 A 
HETATM   23  C18 UNL     1      20.859  -0.786  53.600  1.00  0.00     0.002 A 
HETATM   24  C19 UNL     1      21.738  -0.969  54.564  1.00  0.00     0.011 A 
ENDBRANCH  20  21
ENDBRANCH   6  19
TORSDOF 8
ENDMDL
MODEL 4
REMARK VINA RESULT:      -6.8      3.662      6.162
REMARK  8 active torsions:
REMARK  status: ('A' for Active; 'I' for Inactive)
REMARK    1  A    between atoms: O1_2  and  C2_3 
REMARK    2  A    between atoms: C2_3  and  C3_4 
REMARK    3  A    between atoms: C5_6  and  C8_10 
REMARK    4  A    between atoms: C6_7  and  C7_8 
REMARK    5  A    between atoms: C8_10  and  N1_11 
REMARK    6  A    between atoms: N1_11  and  C9_12 
REMARK    7  A    between atoms: C13_17  and  C14_18 
REMARK    8  A    between atoms: C15_19  and  C16_20 
ROOT
HETATM    1  C9  UNL     1      23.893   1.488  51.641  1.00  0.00     0.041 A 
HETATM    2  C10 UNL     1      22.513   1.424  51.367  1.00  0.00     0.049 A 
HETATM    3  C11 UNL     1      21.574   0.589  51.910  1.00  0.00     0.118 A 
HETATM    4  N2  UNL     1      22.068  -0.260  52.817  1.00  0.00    -0.272 NA
HETATM    5  C12 UNL     1      23.363  -0.272  53.140  1.00  0.00     0.130 A 
HETATM    6  C13 UNL     1      24.295   0.568  52.586  1.00  0.00     0.008 A 
ENDROOT
BRANCH   1   7
HETATM    7  N1  UNL     1      24.802   2.363  51.012  1.00  0.00    -0.389 N 
HETATM    8  H11 UNL     1      25.759   2.329  51.428  1.00  0.00     0.159 HD
BRANCH   7   9
HETATM    9  C8  UNL     1      24.780   3.312  49.926  1.00  0.00     0.126 C 
BRANCH   9  10
HETATM   10  C5  UNL     1      26.220   3.657  49.495  1.00  0.00    -0.022 A 
HETATM   11  C4  UNL     1      27.193   4.362  49.019  1.00  0.00     0.042 A 
HETATM   12  C3  UNL     1      27.483   5.658  48.532  1.00  0.00     0.030 A 
HETATM   13  C6  UNL     1      25.899   5.162  49.094  1.00  0.00     0.097 A 
BRANCH  12  14
HETATM   14  C2  UNL     1      28.746   5.244  48.337  1.00  0.00     0.155 C 
BRANCH  14  15
HETATM   15  O1  UNL     1      30.113   5.515  48.558  1.00  0.00    -0.388 OA
HETATM   16  C1  UNL     1      30.510   6.881  48.623  1.00  0.00     0.202 C 
ENDBRANCH  14  15
ENDBRANCH  12  14
BRANCH  13  17
HETATM   17  C7  UNL     1      24.728   5.895  49.169  1.00  0.00     0.361 C 
HETATM   18  F1  UNL     1      23.545   6.448  49.500  1.00  0.00    -0.461 F 
ENDBRANCH  13  17
ENDBRANCH   9  10
ENDBRANCH   7   9
ENDBRANCH   1   7
BRANCH   6  19
HETATM   19  C14 UNL     1      25.684   0.467  53.065  1.00  0.00     0.016 C 
HETATM   20  C15 UNL     1      26.481  -0.496  52.618  1.00  0.00     0.012 C 
BRANCH  20  21
HETATM   21  C16 UNL     1      27.888  -0.636  53.077  1.00  0.00    -0.036 A 
HETATM   22  C17 UNL     1      28.844  -1.572  53.186  1.00  0.00     0.011 A 
HETATM   23  C18 UNL     1      29.764  -0.598  53.741  1.00  0.00     0.002 A 
HETATM   24  C19 UNL     1      28.839   0.336  53.646  1.00  0.00     0.011 A 
ENDBRANCH  20  21
ENDBRANCH   6  19
TORSDOF 8
ENDMDL
MODEL 5
REMARK VINA RESULT:      -6.8      2.424      4.639
REMARK  8 active torsions:
REMARK  status: ('A' for Active; 'I' for Inactive)
REMARK    1  A    between atoms: O1_2  and  C2_3 
REMARK    2  A    between atoms: C2_3  and  C3_4 
REMARK    3  A    between atoms: C5_6  and  C8_10 
REMARK    4  A    between atoms: C6_7  and  C7_8 
REMARK    5  A    between atoms: C8_10  and  N1_11 
REMARK    6  A    between atoms: N1_11  and  C9_12 
REMARK    7  A    between atoms: C13_17  and  C14_18 
REMARK    8  A    between atoms: C15_19  and  C16_20 
ROOT
HETATM    1  C9  UNL     1      26.827   0.309  53.248  1.00  0.00     0.041 A 
HETATM    2  C10 UNL     1      27.779  -0.391  54.014  1.00  0.00     0.049 A 
HETATM    3  C11 UNL     1      29.003   0.037  54.449  1.00  0.00     0.118 A 
HETATM    4  N2  UNL     1      29.297   1.290  54.085  1.00  0.00    -0.272 NA
HETATM    5  C12 UNL     1      28.457   2.029  53.359  1.00  0.00     0.130 A 
HETATM    6  C13 UNL     1      27.233   1.587  52.925  1.00  0.00     0.008 A 
ENDROOT
BRANCH   1   7
HETATM    7  N1  UNL     1      25.593  -0.218  52.812  1.00  0.00    -0.389 N 
HETATM    8  H11 UNL     1      25.600  -0.502  51.808  1.00  0.00     0.159 HD
BRANCH   7   9
HETATM    9  C8  UNL     1      24.295  -0.483  53.382  1.00  0.00     0.126 C 
BRANCH   9  10
HETATM   10  C5  UNL     1      23.300   0.620  52.966  1.00  0.00    -0.022 A 
HETATM   11  C4  UNL     1      22.167   1.231  52.849  1.00  0.00     0.042 A 
HETATM   12  C3  UNL     1      20.814   1.135  53.249  1.00  0.00     0.030 A 
HETATM   13  C6  UNL     1      22.046  -0.028  53.697  1.00  0.00     0.097 A 
BRANCH  12  14
HETATM   14  C2  UNL     1      20.586   2.268  52.565  1.00  0.00     0.155 C 
BRANCH  14  15
HETATM   15  O1  UNL     1      19.752   3.397  52.414  1.00  0.00    -0.388 OA
HETATM   16  C1  UNL     1      19.791   4.080  51.165  1.00  0.00     0.202 C 
ENDBRANCH  14  15
ENDBRANCH  12  14
BRANCH  13  17
HETATM   17  C7  UNL     1      21.933  -1.166  54.476  1.00  0.00     0.361 C 
HETATM   18  F1  UNL     1      21.896  -2.418  54.974  1.00  0.00    -0.461 F 
ENDBRANCH  13  17
ENDBRANCH   9  10
ENDBRANCH   7   9
ENDBRANCH   1   7
BRANCH   6  19
HETATM   19  C14 UNL     1      26.393   2.526  52.162  1.00  0.00     0.016 C 
HETATM   20  C15 UNL     1      26.510   2.612  50.842  1.00  0.00     0.012 C 
BRANCH  20  21
HETATM   21  C16 UNL     1      25.684   3.547  50.033  1.00  0.00    -0.036 A 
HETATM   22  C17 UNL     1      24.426   3.678  49.583  1.00  0.00     0.011 A 
HETATM   23  C18 UNL     1      24.769   4.927  48.929  1.00  0.00     0.002 A 
HETATM   24  C19 UNL     1      26.010   4.816  49.359  1.00  0.00     0.011 A 
ENDBRANCH  20  21
ENDBRANCH   6  19
TORSDOF 8
ENDMDL
MODEL 6
REMARK VINA RESULT:      -6.8      3.102      4.249
REMARK  8 active torsions:
REMARK  status: ('A' for Active; 'I' for Inactive)
REMARK    1  A    between atoms: O1_2  and  C2_3 
REMARK    2  A    between atoms: C2_3  and  C3_4 
REMARK    3  A    between atoms: C5_6  and  C8_10 
REMARK    4  A    between atoms: C6_7  and  C7_8 
REMARK    5  A    between atoms: C8_10  and  N1_11 
REMARK    6  A    between atoms: N1_11  and  C9_12 
REMARK    7  A    between atoms: C13_17  and  C14_18 
REMARK    8  A    between atoms: C15_19  and  C16_20 
ROOT
HETATM    1  C9  UNL     1      26.663   0.824  52.644  1.00  0.00     0.041 A 
HETATM    2  C10 UNL     1      28.011   0.850  53.051  1.00  0.00     0.049 A 
HETATM    3  C11 UNL     1      28.553   0.409  54.228  1.00  0.00     0.118 A 
HETATM    4  N2  UNL     1      27.657  -0.112  55.073  1.00  0.00    -0.272 NA
HETATM    5  C12 UNL     1      26.359  -0.177  54.772  1.00  0.00     0.130 A 
HETATM    6  C13 UNL     1      25.827   0.272  53.590  1.00  0.00     0.008 A 
ENDROOT
BRANCH   1   7
HETATM    7  N1  UNL     1      26.178   1.330  51.420  1.00  0.00    -0.389 N 
HETATM    8  H11 UNL     1      26.260   0.649  50.632  1.00  0.00     0.159 HD
BRANCH   7   9
HETATM    9  C8  UNL     1      25.584   2.554  50.941  1.00  0.00     0.126 C 
BRANCH   9  10
HETATM   10  C5  UNL     1      26.629   3.378  50.159  1.00  0.00    -0.022 A 
HETATM   11  C4  UNL     1      27.093   4.323  49.410  1.00  0.00     0.042 A 
HETATM   12  C3  UNL     1      26.695   5.512  48.757  1.00  0.00     0.030 A 
HETATM   13  C6  UNL     1      25.614   4.518  49.712  1.00  0.00     0.097 A 
BRANCH  12  14
HETATM   14  C2  UNL     1      27.957   5.628  48.312  1.00  0.00     0.155 C 
BRANCH  14  15
HETATM   15  O1  UNL     1      29.228   5.021  48.227  1.00  0.00    -0.388 OA
HETATM   16  C1  UNL     1      30.368   5.874  48.263  1.00  0.00     0.202 C 
ENDBRANCH  14  15
ENDBRANCH  12  14
BRANCH  13  17
HETATM   17  C7  UNL     1      24.271   4.704  49.992  1.00  0.00     0.361 C 
HETATM   18  F1  UNL     1      22.924   4.705  50.018  1.00  0.00    -0.461 F 
ENDBRANCH  13  17
ENDBRANCH   9  10
ENDBRANCH   7   9
ENDBRANCH   1   7
BRANCH   6  19
HETATM   19  C14 UNL     1      24.378   0.101  53.379  1.00  0.00     0.016 C 
HETATM   20  C15 UNL     1      23.651  -0.594  54.245  1.00  0.00     0.012 C 
BRANCH  20  21
HETATM   21  C16 UNL     1      22.187  -0.792  54.069  1.00  0.00    -0.036 A 
HETATM   22  C17 UNL     1      21.251  -1.737  54.247  1.00  0.00     0.011 A 
HETATM   23  C18 UNL     1      20.223  -0.839  53.756  1.00  0.00     0.002 A 
HETATM   24  C19 UNL     1      21.126   0.102  53.571  1.00  0.00     0.011 A 
ENDBRANCH  20  21
ENDBRANCH   6  19
TORSDOF 8
ENDMDL
MODEL 7
REMARK VINA RESULT:      -6.5      3.830      6.277
REMARK  8 active torsions:
REMARK  status: ('A' for Active; 'I' for Inactive)
REMARK    1  A    between atoms: O1_2  and  C2_3 
REMARK    2  A    between atoms: C2_3  and  C3_4 
REMARK    3  A    between atoms: C5_6  and  C8_10 
REMARK    4  A    between atoms: C6_7  and  C7_8 
REMARK    5  A    between atoms: C8_10  and  N1_11 
REMARK    6  A    between atoms: N1_11  and  C9_12 
REMARK    7  A    between atoms: C13_17  and  C14_18 
REMARK    8  A    between atoms: C15_19  and  C16_20 
ROOT
HETATM    1  C9  UNL     1      22.485   2.241  50.530  1.00  0.00     0.041 A 
HETATM    2  C10 UNL     1      23.145   2.969  49.521  1.00  0.00     0.049 A 
HETATM    3  C11 UNL     1      23.050   2.821  48.164  1.00  0.00     0.118 A 
HETATM    4  N2  UNL     1      22.211   1.853  47.784  1.00  0.00    -0.272 NA
HETATM    5  C12 UNL     1      21.543   1.111  48.669  1.00  0.00     0.130 A 
HETATM    6  C13 UNL     1      21.648   1.267  50.028  1.00  0.00     0.008 A 
ENDROOT
BRANCH   1   7
HETATM    7  N1  UNL     1      22.661   2.437  51.915  1.00  0.00    -0.389 N 
HETATM    8  H11 UNL     1      22.376   3.390  52.235  1.00  0.00     0.159 HD
BRANCH   7   9
HETATM    9  C8  UNL     1      23.133   1.670  53.042  1.00  0.00     0.126 C 
BRANCH   9  10
HETATM   10  C5  UNL     1      24.576   1.189  52.786  1.00  0.00    -0.022 A 
HETATM   11  C4  UNL     1      25.595   0.394  52.801  1.00  0.00     0.042 A 
HETATM   12  C3  UNL     1      25.965  -0.922  53.162  1.00  0.00     0.030 A 
HETATM   13  C6  UNL     1      24.347  -0.277  53.359  1.00  0.00     0.097 A 
BRANCH  12  14
HETATM   14  C2  UNL     1      27.207  -0.632  52.742  1.00  0.00     0.155 C 
BRANCH  14  15
HETATM   15  O1  UNL     1      28.558  -0.463  53.114  1.00  0.00    -0.388 OA
HETATM   16  C1  UNL     1      28.829  -0.130  54.472  1.00  0.00     0.202 C 
ENDBRANCH  14  15
ENDBRANCH  12  14
BRANCH  13  17
HETATM   17  C7  UNL     1      23.214  -0.894  53.858  1.00  0.00     0.361 C 
HETATM   18  F1  UNL     1      22.028  -1.505  54.049  1.00  0.00    -0.461 F 
ENDBRANCH  13  17
ENDBRANCH   9  10
ENDBRANCH   7   9
ENDBRANCH   1   7
BRANCH   6  19
HETATM   19  C14 UNL     1      20.822   0.400  50.887  1.00  0.00     0.016 C 
HETATM   20  C15 UNL     1      19.533   0.660  51.061  1.00  0.00     0.012 C 
BRANCH  20  21
HETATM   21  C16 UNL     1      18.663  -0.187  51.920  1.00  0.00    -0.036 A 
HETATM   22  C17 UNL     1      17.422  -0.699  51.935  1.00  0.00     0.011 A 
HETATM   23  C18 UNL     1      17.678  -1.332  53.216  1.00  0.00     0.002 A 
HETATM   24  C19 UNL     1      18.898  -0.836  53.222  1.00  0.00     0.011 A 
ENDBRANCH  20  21
ENDBRANCH   6  19
TORSDOF 8
ENDMDL
MODEL 8
REMARK VINA RESULT:      -6.4      3.069      5.507
REMARK  8 active torsions:
REMARK  status: ('A' for Active; 'I' for Inactive)
REMARK    1  A    between atoms: O1_2  and  C2_3 
REMARK    2  A    between atoms: C2_3  and  C3_4 
REMARK    3  A    between atoms: C5_6  and  C8_10 
REMARK    4  A    between atoms: C6_7  and  C7_8 
REMARK    5  A    between atoms: C8_10  and  N1_11 
REMARK    6  A    between atoms: N1_11  and  C9_12 
REMARK    7  A    between atoms: C13_17  and  C14_18 
REMARK    8  A    between atoms: C15_19  and  C16_20 
ROOT
HETATM    1  C9  UNL     1      25.109   4.922  50.043  1.00  0.00     0.041 A 
HETATM    2  C10 UNL     1      25.464   6.127  49.406  1.00  0.00     0.049 A 
HETATM    3  C11 UNL     1      26.584   6.402  48.669  1.00  0.00     0.118 A 
HETATM    4  N2  UNL     1      27.425   5.369  48.559  1.00  0.00    -0.272 NA
HETATM    5  C12 UNL     1      27.172   4.190  49.129  1.00  0.00     0.130 A 
HETATM    6  C13 UNL     1      26.047   3.926  49.868  1.00  0.00     0.008 A 
ENDROOT
BRANCH   1   7
HETATM    7  N1  UNL     1      23.944   4.728  50.813  1.00  0.00    -0.389 N 
HETATM    8  H11 UNL     1      24.037   5.075  51.793  1.00  0.00     0.159 HD
BRANCH   7   9
HETATM    9  C8  UNL     1      22.627   4.173  50.619  1.00  0.00     0.126 C 
BRANCH   9  10
HETATM   10  C5  UNL     1      22.406   2.986  51.579  1.00  0.00    -0.022 A 
HETATM   11  C4  UNL     1      22.175   1.769  51.947  1.00  0.00     0.042 A 
HETATM   12  C3  UNL     1      21.998   0.469  51.419  1.00  0.00     0.030 A 
HETATM   13  C6  UNL     1      22.302   1.887  50.435  1.00  0.00     0.097 A 
BRANCH  12  14
HETATM   14  C2  UNL     1      21.832   0.036  52.679  1.00  0.00     0.155 C 
BRANCH  14  15
HETATM   15  O1  UNL     1      20.985  -0.643  53.582  1.00  0.00    -0.388 OA
HETATM   16  C1  UNL     1      19.581  -0.501  53.398  1.00  0.00     0.202 C 
ENDBRANCH  14  15
ENDBRANCH  12  14
BRANCH  13  17
HETATM   17  C7  UNL     1      22.426   1.988  49.060  1.00  0.00     0.361 C 
HETATM   18  F1  UNL     1      22.586   1.782  47.738  1.00  0.00    -0.461 F 
ENDBRANCH  13  17
ENDBRANCH   9  10
ENDBRANCH   7   9
ENDBRANCH   1   7
BRANCH   6  19
HETATM   19  C14 UNL     1      25.881   2.566  50.409  1.00  0.00     0.016 C 
HETATM   20  C15 UNL     1      26.402   2.243  51.586  1.00  0.00     0.012 C 
BRANCH  20  21
HETATM   21  C16 UNL     1      26.260   0.882  52.168  1.00  0.00    -0.036 A 
HETATM   22  C17 UNL     1      26.765  -0.354  52.025  1.00  0.00     0.011 A 
HETATM   23  C18 UNL     1      25.910  -0.849  53.087  1.00  0.00     0.002 A 
HETATM   24  C19 UNL     1      25.399   0.356  53.243  1.00  0.00     0.011 A 
ENDBRANCH  20  21
ENDBRANCH   6  19
TORSDOF 8
ENDMDL
MODEL 9
REMARK VINA RESULT:      -6.4      2.898      5.212
REMARK  8 active torsions:
REMARK  status: ('A' for Active; 'I' for Inactive)
REMARK    1  A    between atoms: O1_2  and  C2_3 
REMARK    2  A    between atoms: C2_3  and  C3_4 
REMARK    3  A    between atoms: C5_6  and  C8_10 
REMARK    4  A    between atoms: C6_7  and  C7_8 
REMARK    5  A    between atoms: C8_10  and  N1_11 
REMARK    6  A    between atoms: N1_11  and  C9_12 
REMARK    7  A    between atoms: C13_17  and  C14_18 
REMARK    8  A    between atoms: C15_19  and  C16_20 
ROOT
HETATM    1  C9  UNL     1      23.036   0.250  52.998  1.00  0.00     0.041 A 
HETATM    2  C10 UNL     1      21.738   0.236  53.546  1.00  0.00     0.049 A 
HETATM    3  C11 UNL     1      21.297  -0.403  54.673  1.00  0.00     0.118 A 
HETATM    4  N2  UNL     1      22.250  -1.089  55.312  1.00  0.00    -0.272 NA
HETATM    5  C12 UNL     1      23.507  -1.133  54.866  1.00  0.00     0.130 A 
HETATM    6  C13 UNL     1      23.937  -0.491  53.733  1.00  0.00     0.008 A 
ENDROOT
BRANCH   1   7
HETATM    7  N1  UNL     1      23.404   0.913  51.809  1.00  0.00    -0.389 N 
HETATM    8  H11 UNL     1      24.336   0.617  51.445  1.00  0.00     0.159 HD
BRANCH   7   9
HETATM    9  C8  UNL     1      22.836   1.908  50.932  1.00  0.00     0.126 C 
BRANCH   9  10
HETATM   10  C5  UNL     1      23.717   3.175  50.929  1.00  0.00    -0.022 A 
HETATM   11  C4  UNL     1      24.384   4.170  50.444  1.00  0.00     0.042 A 
HETATM   12  C3  UNL     1      24.675   4.813  49.219  1.00  0.00     0.030 A 
HETATM   13  C6  UNL     1      23.650   3.398  49.356  1.00  0.00     0.097 A 
BRANCH  12  14
HETATM   14  C2  UNL     1      25.427   5.682  49.914  1.00  0.00     0.155 C 
BRANCH  14  15
HETATM   15  O1  UNL     1      25.476   6.944  50.544  1.00  0.00    -0.388 OA
HETATM   16  C1  UNL     1      24.507   7.911  50.154  1.00  0.00     0.202 C 
ENDBRANCH  14  15
ENDBRANCH  12  14
BRANCH  13  17
HETATM   17  C7  UNL     1      22.977   2.705  48.365  1.00  0.00     0.361 C 
HETATM   18  F1  UNL     1      22.403   2.270  47.226  1.00  0.00    -0.461 F 
ENDBRANCH  13  17
ENDBRANCH   9  10
ENDBRANCH   7   9
ENDBRANCH   1   7
BRANCH   6  19
HETATM   19  C14 UNL     1      25.363  -0.597  53.380  1.00  0.00     0.016 C 
HETATM   20  C15 UNL     1      26.299  -0.231  54.247  1.00  0.00     0.012 C 
BRANCH  20  21
HETATM   21  C16 UNL     1      27.749  -0.320  53.932  1.00  0.00    -0.036 A 
HETATM   22  C17 UNL     1      28.596  -1.059  53.198  1.00  0.00     0.011 A 
HETATM   23  C18 UNL     1      29.719  -0.258  53.651  1.00  0.00     0.002 A 
HETATM   24  C19 UNL     1      28.905   0.478  54.380  1.00  0.00     0.011 A 
ENDBRANCH  20  21
ENDBRANCH   6  19
TORSDOF 8
ENDMDL
