MODEL 1
REMARK VINA RESULT:      -9.2      0.000      0.000
REMARK  7 active torsions:
REMARK  status: ('A' for Active; 'I' for Inactive)
REMARK    1  A    between atoms: N1_1  and  C1_2 
REMARK    2  A    between atoms: C1_2  and  N2_3 
REMARK    3  A    between atoms: N2_3  and  C2_4 
REMARK    4  A    between atoms: C6_8  and  C7_9 
REMARK    5  A    between atoms: C11_16  and  C12_17 
REMARK    6  A    between atoms: C12_17  and  C13_18 
REMARK    7  A    between atoms: C13_18  and  C14_19 
ROOT
HETATM    1  C1  UNL     1      20.247   0.292  53.039  1.00  0.00     0.113 C 
HETATM    2  C9  UNL     1      21.559   0.109  53.148  1.00  0.00     0.058 A 
HETATM    3  C10 UNL     1      22.589   0.898  52.460  1.00  0.00     0.044 A 
HETATM    4  C11 UNL     1      23.803   0.449  52.792  1.00  0.00     0.012 A 
HETATM    5  N3  UNL     1      23.703  -0.645  53.703  1.00  0.00    -0.342 N 
HETATM    6  C20 UNL     1      22.303  -0.873  53.937  1.00  0.00     0.174 A 
HETATM    7  N4  UNL     1      21.637  -1.720  54.660  1.00  0.00    -0.068 NA
HETATM    8  F4  UNL     1      22.233  -2.644  55.408  1.00  0.00    -0.072 F 
HETATM    9  H18 UNL     1      24.381  -1.246  54.180  1.00  0.00     0.167 HD
ENDROOT
BRANCH   1  10
HETATM   10  N1  UNL     1      19.834   1.347  52.178  1.00  0.00    -0.385 N 
HETATM   11  H1  UNL     1      19.317   1.864  52.922  1.00  0.00     0.157 HD
HETATM   12  H2  UNL     1      20.265   1.037  51.285  1.00  0.00     0.157 HD
ENDBRANCH   1  10
BRANCH   1  13
HETATM   13  N2  UNL     1      19.388  -0.559  53.771  1.00  0.00    -0.342 N 
HETATM   14  H3  UNL     1      19.764  -0.659  54.738  1.00  0.00     0.167 HD
BRANCH  13  15
HETATM   15  C2  UNL     1      18.204  -1.185  53.292  1.00  0.00     0.034 A 
HETATM   16  C3  UNL     1      17.330  -0.404  52.565  1.00  0.00     0.029 A 
HETATM   17  C4  UNL     1      16.195  -1.095  52.132  1.00  0.00     0.003 A 
HETATM   18  C5  UNL     1      15.957  -2.441  52.404  1.00  0.00     0.016 A 
HETATM   19  C6  UNL     1      16.890  -3.135  53.139  1.00  0.00     0.050 A 
HETATM   20  C8  UNL     1      18.052  -2.516  53.608  1.00  0.00     0.045 A 
BRANCH  19  21
HETATM   21  C7  UNL     1      16.717  -4.572  53.475  1.00  0.00     0.417 C 
HETATM   22  F1  UNL     1      17.854  -5.270  53.095  1.00  0.00    -0.166 F 
HETATM   23  F2  UNL     1      16.585  -4.769  54.846  1.00  0.00    -0.166 F 
HETATM   24  F3  UNL     1      15.658  -5.108  52.771  1.00  0.00    -0.166 F 
ENDBRANCH  19  21
ENDBRANCH  13  15
ENDBRANCH   1  13
BRANCH   4  25
HETATM   25  C12 UNL     1      25.118   0.966  52.321  1.00  0.00     0.062 C 
BRANCH  25  26
HETATM   26  C13 UNL     1      26.004   1.281  53.504  1.00  0.00     0.044 C 
BRANCH  26  27
HETATM   27  C14 UNL     1      27.231   0.428  53.434  1.00  0.00    -0.058 A 
HETATM   28  C15 UNL     1      27.214  -0.913  53.079  1.00  0.00     0.007 A 
HETATM   29  C16 UNL     1      28.405  -1.617  53.043  1.00  0.00     0.001 A 
HETATM   30  C17 UNL     1      29.614  -1.031  53.350  1.00  0.00     0.000 A 
HETATM   31  C18 UNL     1      29.672   0.288  53.704  1.00  0.00     0.001 A 
HETATM   32  C19 UNL     1      28.464   0.974  53.732  1.00  0.00     0.007 A 
ENDBRANCH  26  27
ENDBRANCH  25  26
ENDBRANCH   4  25
TORSDOF 7
ENDMDL
MODEL 2
REMARK VINA RESULT:      -9.0      5.277      7.341
REMARK  7 active torsions:
REMARK  status: ('A' for Active; 'I' for Inactive)
REMARK    1  A    between atoms: N1_1  and  C1_2 
REMARK    2  A    between atoms: C1_2  and  N2_3 
REMARK    3  A    between atoms: N2_3  and  C2_4 
REMARK    4  A    between atoms: C6_8  and  C7_9 
REMARK    5  A    between atoms: C11_16  and  C12_17 
REMARK    6  A    between atoms: C12_17  and  C13_18 
REMARK    7  A    between atoms: C13_18  and  C14_19 
ROOT
HETATM    1  C1  UNL     1      22.631   2.495  50.573  1.00  0.00     0.113 C 
HETATM    2  C9  UNL     1      23.528   3.473  50.519  1.00  0.00     0.058 A 
HETATM    3  C10 UNL     1      24.313   3.846  49.335  1.00  0.00     0.044 A 
HETATM    4  C11 UNL     1      25.120   4.870  49.627  1.00  0.00     0.012 A 
HETATM    5  N3  UNL     1      24.956   5.267  50.988  1.00  0.00    -0.342 N 
HETATM    6  C20 UNL     1      23.962   4.403  51.563  1.00  0.00     0.174 A 
HETATM    7  N4  UNL     1      23.426   4.305  52.741  1.00  0.00    -0.068 NA
HETATM    8  F4  UNL     1      23.761   5.108  53.747  1.00  0.00    -0.072 F 
HETATM    9  H18 UNL     1      25.376   5.989  51.580  1.00  0.00     0.167 HD
ENDROOT
BRANCH   1  10
HETATM   10  N1  UNL     1      22.434   1.763  49.368  1.00  0.00    -0.385 N 
HETATM   11  H1  UNL     1      21.655   2.369  49.030  1.00  0.00     0.157 HD
HETATM   12  H2  UNL     1      23.162   1.031  49.475  1.00  0.00     0.157 HD
ENDBRANCH   1  10
BRANCH   1  13
HETATM   13  N2  UNL     1      21.960   2.267  51.796  1.00  0.00    -0.342 N 
HETATM   14  H3  UNL     1      21.273   3.035  51.948  1.00  0.00     0.167 HD
BRANCH  13  15
HETATM   15  C2  UNL     1      22.171   1.179  52.688  1.00  0.00     0.034 A 
HETATM   16  C3  UNL     1      21.049   0.552  53.190  1.00  0.00     0.029 A 
HETATM   17  C4  UNL     1      21.344  -0.505  54.057  1.00  0.00     0.003 A 
HETATM   18  C5  UNL     1      22.639  -0.896  54.389  1.00  0.00     0.016 A 
HETATM   19  C6  UNL     1      23.693  -0.206  53.836  1.00  0.00     0.050 A 
HETATM   20  C8  UNL     1      23.482   0.863  52.960  1.00  0.00     0.045 A 
BRANCH  19  21
HETATM   21  C7  UNL     1      25.106  -0.554  54.134  1.00  0.00     0.417 C 
HETATM   22  F1  UNL     1      25.847   0.611  54.268  1.00  0.00    -0.166 F 
HETATM   23  F2  UNL     1      25.227  -1.228  55.345  1.00  0.00    -0.166 F 
HETATM   24  F3  UNL     1      25.658  -1.267  53.090  1.00  0.00    -0.166 F 
ENDBRANCH  19  21
ENDBRANCH  13  15
ENDBRANCH   1  13
BRANCH   4  25
HETATM   25  C12 UNL     1      26.080   5.554  48.715  1.00  0.00     0.062 C 
BRANCH  25  26
HETATM   26  C13 UNL     1      27.431   4.884  48.791  1.00  0.00     0.044 C 
BRANCH  26  27
HETATM   27  C14 UNL     1      28.461   5.798  48.208  1.00  0.00    -0.058 A 
HETATM   28  C15 UNL     1      29.810   5.482  48.125  1.00  0.00     0.007 A 
HETATM   29  C16 UNL     1      30.685   6.398  47.567  1.00  0.00     0.001 A 
HETATM   30  C17 UNL     1      30.263   7.619  47.087  1.00  0.00     0.000 A 
HETATM   31  C18 UNL     1      28.943   7.966  47.150  1.00  0.00     0.001 A 
HETATM   32  C19 UNL     1      28.083   7.032  47.714  1.00  0.00     0.007 A 
ENDBRANCH  26  27
ENDBRANCH  25  26
ENDBRANCH   4  25
TORSDOF 7
ENDMDL
MODEL 3
REMARK VINA RESULT:      -8.9      6.131      9.051
REMARK  7 active torsions:
REMARK  status: ('A' for Active; 'I' for Inactive)
REMARK    1  A    between atoms: N1_1  and  C1_2 
REMARK    2  A    between atoms: C1_2  and  N2_3 
REMARK    3  A    between atoms: N2_3  and  C2_4 
REMARK    4  A    between atoms: C6_8  and  C7_9 
REMARK    5  A    between atoms: C11_16  and  C12_17 
REMARK    6  A    between atoms: C12_17  and  C13_18 
REMARK    7  A    between atoms: C13_18  and  C14_19 
ROOT
HETATM    1  C1  UNL     1      23.541   4.750  52.268  1.00  0.00     0.113 C 
HETATM    2  C9  UNL     1      23.806   3.448  52.226  1.00  0.00     0.058 A 
HETATM    3  C10 UNL     1      24.425   2.669  53.306  1.00  0.00     0.044 A 
HETATM    4  C11 UNL     1      24.548   1.392  52.933  1.00  0.00     0.012 A 
HETATM    5  N3  UNL     1      24.038   1.202  51.613  1.00  0.00    -0.342 N 
HETATM    6  C20 UNL     1      23.569   2.480  51.154  1.00  0.00     0.174 A 
HETATM    7  N4  UNL     1      23.021   2.897  50.054  1.00  0.00    -0.068 NA
HETATM    8  F4  UNL     1      22.769   2.086  49.030  1.00  0.00    -0.072 F 
HETATM    9  H18 UNL     1      23.952   0.397  50.987  1.00  0.00     0.167 HD
ENDROOT
BRANCH   1  10
HETATM   10  N1  UNL     1      23.897   5.419  53.472  1.00  0.00    -0.385 N 
HETATM   11  H1  UNL     1      23.181   6.171  53.365  1.00  0.00     0.157 HD
HETATM   12  H2  UNL     1      24.667   4.807  53.805  1.00  0.00     0.157 HD
ENDBRANCH   1  10
BRANCH   1  13
HETATM   13  N2  UNL     1      22.940   5.349  51.138  1.00  0.00    -0.342 N 
HETATM   14  H3  UNL     1      22.032   4.873  50.952  1.00  0.00     0.167 HD
BRANCH  13  15
HETATM   15  C2  UNL     1      23.466   6.422  50.367  1.00  0.00     0.034 A 
HETATM   16  C3  UNL     1      22.697   7.564  50.273  1.00  0.00     0.029 A 
HETATM   17  C4  UNL     1      23.286   8.568  49.499  1.00  0.00     0.003 A 
HETATM   18  C5  UNL     1      24.527   8.439  48.877  1.00  0.00     0.016 A 
HETATM   19  C6  UNL     1      25.217   7.259  49.030  1.00  0.00     0.050 A 
HETATM   20  C8  UNL     1      24.696   6.207  49.789  1.00  0.00     0.045 A 
BRANCH  19  21
HETATM   21  C7  UNL     1      26.545   7.036  48.403  1.00  0.00     0.417 C 
HETATM   22  F1  UNL     1      26.789   5.673  48.321  1.00  0.00    -0.166 F 
HETATM   23  F2  UNL     1      26.586   7.513  47.097  1.00  0.00    -0.166 F 
HETATM   24  F3  UNL     1      27.544   7.580  49.184  1.00  0.00    -0.166 F 
ENDBRANCH  19  21
ENDBRANCH  13  15
ENDBRANCH   1  13
BRANCH   4  25
HETATM   25  C12 UNL     1      25.122   0.269  53.727  1.00  0.00     0.062 C 
BRANCH  25  26
HETATM   26  C13 UNL     1      25.833  -0.700  52.812  1.00  0.00     0.044 C 
BRANCH  26  27
HETATM   27  C14 UNL     1      27.301  -0.650  53.095  1.00  0.00    -0.058 A 
HETATM   28  C15 UNL     1      27.983   0.516  53.411  1.00  0.00     0.007 A 
HETATM   29  C16 UNL     1      29.343   0.458  53.658  1.00  0.00     0.001 A 
HETATM   30  C17 UNL     1      30.050  -0.723  53.599  1.00  0.00     0.000 A 
HETATM   31  C18 UNL     1      29.414  -1.893  53.291  1.00  0.00     0.001 A 
HETATM   32  C19 UNL     1      28.049  -1.810  53.049  1.00  0.00     0.007 A 
ENDBRANCH  26  27
ENDBRANCH  25  26
ENDBRANCH   4  25
TORSDOF 7
ENDMDL
MODEL 4
REMARK VINA RESULT:      -8.9      5.199      6.745
REMARK  7 active torsions:
REMARK  status: ('A' for Active; 'I' for Inactive)
REMARK    1  A    between atoms: N1_1  and  C1_2 
REMARK    2  A    between atoms: C1_2  and  N2_3 
REMARK    3  A    between atoms: N2_3  and  C2_4 
REMARK    4  A    between atoms: C6_8  and  C7_9 
REMARK    5  A    between atoms: C11_16  and  C12_17 
REMARK    6  A    between atoms: C12_17  and  C13_18 
REMARK    7  A    between atoms: C13_18  and  C14_19 
ROOT
HETATM    1  C1  UNL     1      25.254   1.074  52.474  1.00  0.00     0.113 C 
HETATM    2  C9  UNL     1      25.434   2.175  51.751  1.00  0.00     0.058 A 
HETATM    3  C10 UNL     1      26.390   2.320  50.645  1.00  0.00     0.044 A 
HETATM    4  C11 UNL     1      26.313   3.554  50.137  1.00  0.00     0.012 A 
HETATM    5  N3  UNL     1      25.331   4.324  50.831  1.00  0.00    -0.342 N 
HETATM    6  C20 UNL     1      24.770   3.475  51.846  1.00  0.00     0.174 A 
HETATM    7  N4  UNL     1      23.859   3.640  52.755  1.00  0.00    -0.068 NA
HETATM    8  F4  UNL     1      23.206   4.788  52.912  1.00  0.00    -0.072 F 
HETATM    9  H18 UNL     1      24.983   5.283  50.748  1.00  0.00     0.167 HD
ENDROOT
BRANCH   1  10
HETATM   10  N1  UNL     1      26.067  -0.040  52.126  1.00  0.00    -0.385 N 
HETATM   11  H1  UNL     1      26.967   0.481  52.222  1.00  0.00     0.157 HD
HETATM   12  H2  UNL     1      25.337  -0.761  51.966  1.00  0.00     0.157 HD
ENDBRANCH   1  10
BRANCH   1  13
HETATM   13  N2  UNL     1      24.289   1.101  53.507  1.00  0.00    -0.342 N 
HETATM   14  H3  UNL     1      24.565   1.829  54.200  1.00  0.00     0.167 HD
BRANCH  13  15
HETATM   15  C2  UNL     1      23.129   0.284  53.605  1.00  0.00     0.034 A 
HETATM   16  C3  UNL     1      23.185  -0.784  54.477  1.00  0.00     0.029 A 
HETATM   17  C4  UNL     1      22.006  -1.534  54.513  1.00  0.00     0.003 A 
HETATM   18  C5  UNL     1      20.878  -1.242  53.748  1.00  0.00     0.016 A 
HETATM   19  C6  UNL     1      20.922  -0.154  52.907  1.00  0.00     0.050 A 
HETATM   20  C8  UNL     1      22.064   0.647  52.813  1.00  0.00     0.045 A 
BRANCH  19  21
HETATM   21  C7  UNL     1      19.766   0.230  52.055  1.00  0.00     0.417 C 
HETATM   22  F1  UNL     1      20.161   0.244  50.726  1.00  0.00    -0.166 F 
HETATM   23  F2  UNL     1      18.732  -0.697  52.140  1.00  0.00    -0.166 F 
HETATM   24  F3  UNL     1      19.342   1.506  52.365  1.00  0.00    -0.166 F 
ENDBRANCH  19  21
ENDBRANCH  13  15
ENDBRANCH   1  13
BRANCH   4  25
HETATM   25  C12 UNL     1      27.105   4.118  49.008  1.00  0.00     0.062 C 
BRANCH  25  26
HETATM   26  C13 UNL     1      26.827   5.596  48.869  1.00  0.00     0.044 C 
BRANCH  26  27
HETATM   27  C14 UNL     1      27.985   6.246  48.180  1.00  0.00    -0.058 A 
HETATM   28  C15 UNL     1      29.282   5.757  48.232  1.00  0.00     0.007 A 
HETATM   29  C16 UNL     1      30.286   6.431  47.560  1.00  0.00     0.001 A 
HETATM   30  C17 UNL     1      30.043   7.579  46.837  1.00  0.00     0.000 A 
HETATM   31  C18 UNL     1      28.778   8.092  46.762  1.00  0.00     0.001 A 
HETATM   32  C19 UNL     1      27.787   7.398  47.444  1.00  0.00     0.007 A 
ENDBRANCH  26  27
ENDBRANCH  25  26
ENDBRANCH   4  25
TORSDOF 7
ENDMDL
MODEL 5
REMARK VINA RESULT:      -8.8      6.160      9.050
REMARK  7 active torsions:
REMARK  status: ('A' for Active; 'I' for Inactive)
REMARK    1  A    between atoms: N1_1  and  C1_2 
REMARK    2  A    between atoms: C1_2  and  N2_3 
REMARK    3  A    between atoms: N2_3  and  C2_4 
REMARK    4  A    between atoms: C6_8  and  C7_9 
REMARK    5  A    between atoms: C11_16  and  C12_17 
REMARK    6  A    between atoms: C12_17  and  C13_18 
REMARK    7  A    between atoms: C13_18  and  C14_19 
ROOT
HETATM    1  C1  UNL     1      23.596   4.916  51.710  1.00  0.00     0.113 C 
HETATM    2  C9  UNL     1      23.842   3.615  51.824  1.00  0.00     0.058 A 
HETATM    3  C10 UNL     1      24.520   2.972  52.958  1.00  0.00     0.044 A 
HETATM    4  C11 UNL     1      24.603   1.654  52.750  1.00  0.00     0.012 A 
HETATM    5  N3  UNL     1      24.008   1.303  51.501  1.00  0.00    -0.342 N 
HETATM    6  C20 UNL     1      23.526   2.519  50.907  1.00  0.00     0.174 A 
HETATM    7  N4  UNL     1      22.914   2.798  49.797  1.00  0.00    -0.068 NA
HETATM    8  F4  UNL     1      22.588   1.866  48.907  1.00  0.00    -0.072 F 
HETATM    9  H18 UNL     1      23.872   0.424  50.993  1.00  0.00     0.167 HD
ENDROOT
BRANCH   1  10
HETATM   10  N1  UNL     1      24.036   5.730  52.791  1.00  0.00    -0.385 N 
HETATM   11  H1  UNL     1      24.787   6.201  52.240  1.00  0.00     0.157 HD
HETATM   12  H2  UNL     1      23.383   5.420  53.536  1.00  0.00     0.157 HD
ENDBRANCH   1  10
BRANCH   1  13
HETATM   13  N2  UNL     1      22.931   5.373  50.550  1.00  0.00    -0.342 N 
HETATM   14  H3  UNL     1      21.926   5.108  50.616  1.00  0.00     0.167 HD
BRANCH  13  15
HETATM   15  C2  UNL     1      23.514   6.078  49.462  1.00  0.00     0.034 A 
HETATM   16  C3  UNL     1      22.653   6.689  48.574  1.00  0.00     0.029 A 
HETATM   17  C4  UNL     1      23.307   7.360  47.536  1.00  0.00     0.003 A 
HETATM   18  C5  UNL     1      24.692   7.411  47.400  1.00  0.00     0.016 A 
HETATM   19  C6  UNL     1      25.467   6.768  48.337  1.00  0.00     0.050 A 
HETATM   20  C8  UNL     1      24.889   6.076  49.405  1.00  0.00     0.045 A 
BRANCH  19  21
HETATM   21  C7  UNL     1      26.951   6.772  48.269  1.00  0.00     0.417 C 
HETATM   22  F1  UNL     1      27.354   7.405  47.103  1.00  0.00    -0.166 F 
HETATM   23  F2  UNL     1      27.514   7.497  49.314  1.00  0.00    -0.166 F 
HETATM   24  F3  UNL     1      27.435   5.480  48.217  1.00  0.00    -0.166 F 
ENDBRANCH  19  21
ENDBRANCH  13  15
ENDBRANCH   1  13
BRANCH   4  25
HETATM   25  C12 UNL     1      25.214   0.634  53.648  1.00  0.00     0.062 C 
BRANCH  25  26
HETATM   26  C13 UNL     1      25.759  -0.514  52.832  1.00  0.00     0.044 C 
BRANCH  26  27
HETATM   27  C14 UNL     1      27.226  -0.641  53.089  1.00  0.00    -0.058 A 
HETATM   28  C15 UNL     1      27.925  -1.835  52.981  1.00  0.00     0.007 A 
HETATM   29  C16 UNL     1      29.284  -1.849  53.240  1.00  0.00     0.001 A 
HETATM   30  C17 UNL     1      29.973  -0.713  53.605  1.00  0.00     0.000 A 
HETATM   31  C18 UNL     1      29.321   0.482  53.722  1.00  0.00     0.001 A 
HETATM   32  C19 UNL     1      27.958   0.472  53.457  1.00  0.00     0.007 A 
ENDBRANCH  26  27
ENDBRANCH  25  26
ENDBRANCH   4  25
TORSDOF 7
ENDMDL
MODEL 6
REMARK VINA RESULT:      -8.8      3.968      9.731
REMARK  7 active torsions:
REMARK  status: ('A' for Active; 'I' for Inactive)
REMARK    1  A    between atoms: N1_1  and  C1_2 
REMARK    2  A    between atoms: C1_2  and  N2_3 
REMARK    3  A    between atoms: N2_3  and  C2_4 
REMARK    4  A    between atoms: C6_8  and  C7_9 
REMARK    5  A    between atoms: C11_16  and  C12_17 
REMARK    6  A    between atoms: C12_17  and  C13_18 
REMARK    7  A    between atoms: C13_18  and  C14_19 
ROOT
HETATM    1  C1  UNL     1      24.067   0.310  52.930  1.00  0.00     0.113 C 
HETATM    2  C9  UNL     1      22.867   0.491  52.388  1.00  0.00     0.058 A 
HETATM    3  C10 UNL     1      21.612  -0.093  52.881  1.00  0.00     0.044 A 
HETATM    4  C11 UNL     1      20.595   0.291  52.104  1.00  0.00     0.012 A 
HETATM    5  N3  UNL     1      21.057   1.141  51.054  1.00  0.00    -0.342 N 
HETATM    6  C20 UNL     1      22.479   1.277  51.216  1.00  0.00     0.174 A 
HETATM    7  N4  UNL     1      23.403   1.916  50.566  1.00  0.00    -0.068 NA
HETATM    8  F4  UNL     1      23.139   2.654  49.492  1.00  0.00    -0.072 F 
HETATM    9  H18 UNL     1      20.606   1.629  50.275  1.00  0.00     0.167 HD
ENDROOT
BRANCH   1  10
HETATM   10  N1  UNL     1      24.110  -0.523  54.083  1.00  0.00    -0.385 N 
HETATM   11  H1  UNL     1      23.075  -0.539  54.213  1.00  0.00     0.157 HD
HETATM   12  H2  UNL     1      25.135  -0.665  54.172  1.00  0.00     0.157 HD
ENDBRANCH   1  10
BRANCH   1  13
HETATM   13  N2  UNL     1      25.176   0.947  52.329  1.00  0.00    -0.342 N 
HETATM   14  H3  UNL     1      24.875   1.351  51.418  1.00  0.00     0.167 HD
BRANCH  13  15
HETATM   15  C2  UNL     1      26.493   1.034  52.860  1.00  0.00     0.034 A 
HETATM   16  C3  UNL     1      26.911   2.272  53.302  1.00  0.00     0.029 A 
HETATM   17  C4  UNL     1      28.215   2.271  53.808  1.00  0.00     0.003 A 
HETATM   18  C5  UNL     1      29.022   1.136  53.864  1.00  0.00     0.016 A 
HETATM   19  C6  UNL     1      28.513  -0.054  53.397  1.00  0.00     0.050 A 
HETATM   20  C8  UNL     1      27.219  -0.135  52.876  1.00  0.00     0.045 A 
BRANCH  19  21
HETATM   21  C7  UNL     1      29.304  -1.311  53.419  1.00  0.00     0.417 C 
HETATM   22  F1  UNL     1      30.267  -1.264  52.422  1.00  0.00    -0.166 F 
HETATM   23  F2  UNL     1      29.997  -1.465  54.615  1.00  0.00    -0.166 F 
HETATM   24  F3  UNL     1      28.493  -2.395  53.148  1.00  0.00    -0.166 F 
ENDBRANCH  19  21
ENDBRANCH  13  15
ENDBRANCH   1  13
BRANCH   4  25
HETATM   25  C12 UNL     1      19.158  -0.072  52.250  1.00  0.00     0.062 C 
BRANCH  25  26
HETATM   26  C13 UNL     1      18.969  -0.957  53.461  1.00  0.00     0.044 C 
BRANCH  26  27
HETATM   27  C14 UNL     1      17.802  -1.862  53.225  1.00  0.00    -0.058 A 
HETATM   28  C15 UNL     1      16.669  -1.486  52.518  1.00  0.00     0.007 A 
HETATM   29  C16 UNL     1      15.641  -2.397  52.353  1.00  0.00     0.001 A 
HETATM   30  C17 UNL     1      15.703  -3.674  52.869  1.00  0.00     0.000 A 
HETATM   31  C18 UNL     1      16.802  -4.083  53.571  1.00  0.00     0.001 A 
HETATM   32  C19 UNL     1      17.821  -3.150  53.722  1.00  0.00     0.007 A 
ENDBRANCH  26  27
ENDBRANCH  25  26
ENDBRANCH   4  25
TORSDOF 7
ENDMDL
MODEL 7
REMARK VINA RESULT:      -8.7      5.571      7.566
REMARK  7 active torsions:
REMARK  status: ('A' for Active; 'I' for Inactive)
REMARK    1  A    between atoms: N1_1  and  C1_2 
REMARK    2  A    between atoms: C1_2  and  N2_3 
REMARK    3  A    between atoms: N2_3  and  C2_4 
REMARK    4  A    between atoms: C6_8  and  C7_9 
REMARK    5  A    between atoms: C11_16  and  C12_17 
REMARK    6  A    between atoms: C12_17  and  C13_18 
REMARK    7  A    between atoms: C13_18  and  C14_19 
ROOT
HETATM    1  C1  UNL     1      23.542   4.303  52.102  1.00  0.00     0.113 C 
HETATM    2  C9  UNL     1      23.912   4.880  50.964  1.00  0.00     0.058 A 
HETATM    3  C10 UNL     1      24.552   6.197  50.845  1.00  0.00     0.044 A 
HETATM    4  C11 UNL     1      24.791   6.472  49.559  1.00  0.00     0.012 A 
HETATM    5  N3  UNL     1      24.349   5.402  48.725  1.00  0.00    -0.342 N 
HETATM    6  C20 UNL     1      23.795   4.395  49.588  1.00  0.00     0.174 A 
HETATM    7  N4  UNL     1      23.255   3.232  49.386  1.00  0.00    -0.068 NA
HETATM    8  F4  UNL     1      23.110   2.715  48.169  1.00  0.00    -0.072 F 
HETATM    9  H18 UNL     1      24.351   5.232  47.715  1.00  0.00     0.167 HD
ENDROOT
BRANCH   1  10
HETATM   10  N1  UNL     1      23.798   5.045  53.289  1.00  0.00    -0.385 N 
HETATM   11  H1  UNL     1      24.112   5.903  52.784  1.00  0.00     0.157 HD
HETATM   12  H2  UNL     1      23.538   4.342  54.008  1.00  0.00     0.157 HD
ENDBRANCH   1  10
BRANCH   1  13
HETATM   13  N2  UNL     1      22.936   3.027  52.041  1.00  0.00    -0.342 N 
HETATM   14  H3  UNL     1      22.012   3.120  51.569  1.00  0.00     0.167 HD
BRANCH  13  15
HETATM   15  C2  UNL     1      23.477   1.808  52.533  1.00  0.00     0.034 A 
HETATM   16  C3  UNL     1      24.796   1.538  52.229  1.00  0.00     0.029 A 
HETATM   17  C4  UNL     1      25.249   0.322  52.751  1.00  0.00     0.003 A 
HETATM   18  C5  UNL     1      24.455  -0.542  53.503  1.00  0.00     0.016 A 
HETATM   19  C6  UNL     1      23.150  -0.183  53.751  1.00  0.00     0.050 A 
HETATM   20  C8  UNL     1      22.622   1.017  53.265  1.00  0.00     0.045 A 
BRANCH  19  21
HETATM   21  C7  UNL     1      22.234  -1.043  54.543  1.00  0.00     0.417 C 
HETATM   22  F1  UNL     1      22.939  -1.624  55.586  1.00  0.00    -0.166 F 
HETATM   23  F2  UNL     1      21.214  -0.304  55.134  1.00  0.00    -0.166 F 
HETATM   24  F3  UNL     1      21.743  -2.071  53.764  1.00  0.00    -0.166 F 
ENDBRANCH  19  21
ENDBRANCH  13  15
ENDBRANCH   1  13
BRANCH   4  25
HETATM   25  C12 UNL     1      25.424   7.699  49.000  1.00  0.00     0.062 C 
BRANCH  25  26
HETATM   26  C13 UNL     1      25.924   7.431  47.600  1.00  0.00     0.044 C 
BRANCH  26  27
HETATM   27  C14 UNL     1      27.376   7.076  47.661  1.00  0.00    -0.058 A 
HETATM   28  C15 UNL     1      27.863   5.939  48.289  1.00  0.00     0.007 A 
HETATM   29  C16 UNL     1      29.225   5.699  48.291  1.00  0.00     0.001 A 
HETATM   30  C17 UNL     1      30.122   6.554  47.688  1.00  0.00     0.000 A 
HETATM   31  C18 UNL     1      29.682   7.684  47.058  1.00  0.00     0.001 A 
HETATM   32  C19 UNL     1      28.310   7.904  47.069  1.00  0.00     0.007 A 
ENDBRANCH  26  27
ENDBRANCH  25  26
ENDBRANCH   4  25
TORSDOF 7
ENDMDL
MODEL 8
REMARK VINA RESULT:      -8.6      5.879      8.240
REMARK  7 active torsions:
REMARK  status: ('A' for Active; 'I' for Inactive)
REMARK    1  A    between atoms: N1_1  and  C1_2 
REMARK    2  A    between atoms: C1_2  and  N2_3 
REMARK    3  A    between atoms: N2_3  and  C2_4 
REMARK    4  A    between atoms: C6_8  and  C7_9 
REMARK    5  A    between atoms: C11_16  and  C12_17 
REMARK    6  A    between atoms: C12_17  and  C13_18 
REMARK    7  A    between atoms: C13_18  and  C14_19 
ROOT
HETATM    1  C1  UNL     1      23.496   4.405  52.182  1.00  0.00     0.113 C 
HETATM    2  C9  UNL     1      23.952   4.956  51.061  1.00  0.00     0.058 A 
HETATM    3  C10 UNL     1      24.719   6.206  50.977  1.00  0.00     0.044 A 
HETATM    4  C11 UNL     1      25.018   6.470  49.701  1.00  0.00     0.012 A 
HETATM    5  N3  UNL     1      24.498   5.456  48.842  1.00  0.00    -0.342 N 
HETATM    6  C20 UNL     1      23.826   4.499  49.677  1.00  0.00     0.174 A 
HETATM    7  N4  UNL     1      23.182   3.396  49.445  1.00  0.00    -0.068 NA
HETATM    8  F4  UNL     1      23.021   2.908  48.218  1.00  0.00    -0.072 F 
HETATM    9  H18 UNL     1      24.512   5.297  47.830  1.00  0.00     0.167 HD
ENDROOT
BRANCH   1  10
HETATM   10  N1  UNL     1      23.790   5.106  53.385  1.00  0.00    -0.385 N 
HETATM   11  H1  UNL     1      24.823   5.090  53.240  1.00  0.00     0.157 HD
HETATM   12  H2  UNL     1      22.831   5.254  53.753  1.00  0.00     0.157 HD
ENDBRANCH   1  10
BRANCH   1  13
HETATM   13  N2  UNL     1      22.772   3.195  52.088  1.00  0.00    -0.342 N 
HETATM   14  H3  UNL     1      21.862   3.387  51.619  1.00  0.00     0.167 HD
BRANCH  13  15
HETATM   15  C2  UNL     1      23.194   1.917  52.547  1.00  0.00     0.034 A 
HETATM   16  C3  UNL     1      22.247   1.128  53.168  1.00  0.00     0.029 A 
HETATM   17  C4  UNL     1      22.744  -0.110  53.588  1.00  0.00     0.003 A 
HETATM   18  C5  UNL     1      24.064  -0.517  53.405  1.00  0.00     0.016 A 
HETATM   19  C6  UNL     1      24.934   0.343  52.775  1.00  0.00     0.050 A 
HETATM   20  C8  UNL     1      24.514   1.599  52.325  1.00  0.00     0.045 A 
BRANCH  19  21
HETATM   21  C7  UNL     1      26.357  -0.009  52.539  1.00  0.00     0.417 C 
HETATM   22  F1  UNL     1      26.447  -1.353  52.210  1.00  0.00    -0.166 F 
HETATM   23  F2  UNL     1      26.889   0.688  51.458  1.00  0.00    -0.166 F 
HETATM   24  F3  UNL     1      27.098   0.177  53.688  1.00  0.00    -0.166 F 
ENDBRANCH  19  21
ENDBRANCH  13  15
ENDBRANCH   1  13
BRANCH   4  25
HETATM   25  C12 UNL     1      25.782   7.636  49.175  1.00  0.00     0.062 C 
BRANCH  25  26
HETATM   26  C13 UNL     1      26.221   7.368  47.755  1.00  0.00     0.044 C 
BRANCH  26  27
HETATM   27  C14 UNL     1      27.670   6.995  47.755  1.00  0.00    -0.058 A 
HETATM   28  C15 UNL     1      28.152   5.786  48.237  1.00  0.00     0.007 A 
HETATM   29  C16 UNL     1      29.512   5.536  48.194  1.00  0.00     0.001 A 
HETATM   30  C17 UNL     1      30.411   6.448  47.686  1.00  0.00     0.000 A 
HETATM   31  C18 UNL     1      29.975   7.650  47.201  1.00  0.00     0.001 A 
HETATM   32  C19 UNL     1      28.606   7.879  47.255  1.00  0.00     0.007 A 
ENDBRANCH  26  27
ENDBRANCH  25  26
ENDBRANCH   4  25
TORSDOF 7
ENDMDL
MODEL 9
REMARK VINA RESULT:      -8.6      7.131     11.113
REMARK  7 active torsions:
REMARK  status: ('A' for Active; 'I' for Inactive)
REMARK    1  A    between atoms: N1_1  and  C1_2 
REMARK    2  A    between atoms: C1_2  and  N2_3 
REMARK    3  A    between atoms: N2_3  and  C2_4 
REMARK    4  A    between atoms: C6_8  and  C7_9 
REMARK    5  A    between atoms: C11_16  and  C12_17 
REMARK    6  A    between atoms: C12_17  and  C13_18 
REMARK    7  A    between atoms: C13_18  and  C14_19 
ROOT
HETATM    1  C1  UNL     1      24.029   6.163  50.734  1.00  0.00     0.113 C 
HETATM    2  C9  UNL     1      23.058   5.255  50.749  1.00  0.00     0.058 A 
HETATM    3  C10 UNL     1      22.331   4.806  51.943  1.00  0.00     0.044 A 
HETATM    4  C11 UNL     1      21.422   3.887  51.603  1.00  0.00     0.012 A 
HETATM    5  N3  UNL     1      21.453   3.644  50.197  1.00  0.00    -0.342 N 
HETATM    6  C20 UNL     1      22.473   4.494  49.645  1.00  0.00     0.174 A 
HETATM    7  N4  UNL     1      22.931   4.690  48.447  1.00  0.00    -0.068 NA
HETATM    8  F4  UNL     1      22.457   4.041  47.387  1.00  0.00    -0.072 F 
HETATM    9  H18 UNL     1      20.932   3.033  49.563  1.00  0.00     0.167 HD
ENDROOT
BRANCH   1  10
HETATM   10  N1  UNL     1      24.373   6.729  51.993  1.00  0.00    -0.385 N 
HETATM   11  H1  UNL     1      23.474   6.461  52.452  1.00  0.00     0.157 HD
HETATM   12  H2  UNL     1      25.319   7.098  51.780  1.00  0.00     0.157 HD
ENDBRANCH   1  10
BRANCH   1  13
HETATM   13  N2  UNL     1      24.628   6.483  49.494  1.00  0.00    -0.342 N 
HETATM   14  H3  UNL     1      23.925   6.975  48.903  1.00  0.00     0.167 HD
BRANCH  13  15
HETATM   15  C2  UNL     1      25.962   6.194  49.097  1.00  0.00     0.034 A 
HETATM   16  C3  UNL     1      26.343   4.868  49.091  1.00  0.00     0.029 A 
HETATM   17  C4  UNL     1      27.667   4.671  48.689  1.00  0.00     0.003 A 
HETATM   18  C5  UNL     1      28.529   5.705  48.329  1.00  0.00     0.016 A 
HETATM   19  C6  UNL     1      28.055   6.996  48.368  1.00  0.00     0.050 A 
HETATM   20  C8  UNL     1      26.742   7.276  48.759  1.00  0.00     0.045 A 
BRANCH  19  21
HETATM   21  C7  UNL     1      28.904   8.159  48.001  1.00  0.00     0.417 C 
HETATM   22  F1  UNL     1      30.061   7.704  47.386  1.00  0.00    -0.166 F 
HETATM   23  F2  UNL     1      28.276   8.985  47.075  1.00  0.00    -0.166 F 
HETATM   24  F3  UNL     1      29.291   8.850  49.131  1.00  0.00    -0.166 F 
ENDBRANCH  19  21
ENDBRANCH  13  15
ENDBRANCH   1  13
BRANCH   4  25
HETATM   25  C12 UNL     1      20.475   3.174  52.506  1.00  0.00     0.062 C 
BRANCH  25  26
HETATM   26  C13 UNL     1      20.286   1.751  52.038  1.00  0.00     0.044 C 
BRANCH  26  27
HETATM   27  C14 UNL     1      21.188   0.855  52.825  1.00  0.00    -0.058 A 
HETATM   28  C15 UNL     1      22.485   0.543  52.442  1.00  0.00     0.007 A 
HETATM   29  C16 UNL     1      23.242  -0.296  53.240  1.00  0.00     0.001 A 
HETATM   30  C17 UNL     1      22.751  -0.838  54.409  1.00  0.00     0.000 A 
HETATM   31  C18 UNL     1      21.479  -0.554  54.820  1.00  0.00     0.001 A 
HETATM   32  C19 UNL     1      20.739   0.291  54.003  1.00  0.00     0.007 A 
ENDBRANCH  26  27
ENDBRANCH  25  26
ENDBRANCH   4  25
TORSDOF 7
ENDMDL
