MODEL 1
REMARK VINA RESULT:      -8.3      0.000      0.000
REMARK  2 active torsions:
REMARK  status: ('A' for Active; 'I' for Inactive)
REMARK    1  A    between atoms: O1_2  and  C2_3 
REMARK    2  A    between atoms: C22_27  and  O2_28 
ROOT
HETATM    1  C2  UNL     1      19.910  -0.777  53.463  1.00  0.00     0.095 A 
HETATM    2  C3  UNL     1      20.748  -1.154  54.490  1.00  0.00     0.041 A 
HETATM    3  C4  UNL     1      22.121  -0.896  54.404  1.00  0.00     0.032 A 
HETATM    4  C5  UNL     1      22.574  -0.260  53.266  1.00  0.00     0.031 A 
HETATM    5  C6  UNL     1      21.736   0.118  52.236  1.00  0.00     0.062 A 
HETATM    6  C7  UNL     1      20.383  -0.143  52.334  1.00  0.00     0.084 A 
HETATM    7  N1  UNL     1      19.549   0.251  51.273  1.00  0.00    -0.185 N 
HETATM    8  C8  UNL     1      19.670   1.432  50.498  1.00  0.00     0.727 A 
HETATM    9  N2  UNL     1      19.180   1.486  49.247  1.00  0.00    -0.075 NA
HETATM   10  C9  UNL     1      19.322   2.625  48.562  1.00  0.00     0.139 A 
HETATM   11  C10 UNL     1      19.957   3.706  49.144  1.00  0.00     0.053 A 
HETATM   12  C11 UNL     1      20.436   3.586  50.430  1.00  0.00     0.094 A 
HETATM   13  N3  UNL     1      20.304   2.439  51.147  1.00  0.00    -0.061 NA
HETATM   14  C12 UNL     1      21.133   4.536  51.286  1.00  0.00     0.148 C 
HETATM   15  N4  UNL     1      22.265   4.260  51.884  1.00  0.00    -0.271 NA
HETATM   16  C13 UNL     1      22.897   5.230  52.708  1.00  0.00     0.116 C 
HETATM   17  C14 UNL     1      23.928   4.900  53.450  1.00  0.00     0.019 C 
HETATM   18  C15 UNL     1      24.542   3.597  53.545  1.00  0.00     0.001 C 
HETATM   19  C16 UNL     1      24.559   2.339  53.163  1.00  0.00     0.015 C 
HETATM   20  C17 UNL     1      25.055   0.939  53.131  1.00  0.00     0.115 C 
HETATM   21  C18 UNL     1      25.873   0.770  54.390  1.00  0.00     0.011 C 
HETATM   22  C19 UNL     1      26.923  -0.039  54.454  1.00  0.00    -0.024 C 
HETATM   23  C20 UNL     1      27.336  -0.821  53.273  1.00  0.00     0.056 C 
HETATM   24  C21 UNL     1      26.998  -0.121  52.009  1.00  0.00     0.012 C 
HETATM   25  C22 UNL     1      25.949   0.684  51.957  1.00  0.00     0.075 C 
HETATM   26  N5  UNL     1      23.972  -0.011  53.210  1.00  0.00    -0.368 N 
HETATM   27  H7  UNL     1      18.788  -0.438  51.087  1.00  0.00     0.184 HD
HETATM   28  H21 UNL     1      24.453  -0.934  53.240  1.00  0.00     0.161 HD
ENDROOT
BRANCH  25  29
HETATM   29  O2  UNL     1      25.561   1.377  50.817  1.00  0.00    -0.362 OA
HETATM   30  H20 UNL     1      25.139   0.811  50.072  1.00  0.00     0.217 HD
ENDBRANCH  25  29
BRANCH   1  31
HETATM   31  O1  UNL     1      18.551  -1.009  53.502  1.00  0.00    -0.354 OA
HETATM   32  C1  UNL     1      17.995  -2.318  53.458  1.00  0.00     0.210 C 
ENDBRANCH   1  31
TORSDOF 2
ENDMDL
MODEL 2
REMARK VINA RESULT:      -7.9      6.014      9.239
REMARK  2 active torsions:
REMARK  status: ('A' for Active; 'I' for Inactive)
REMARK    1  A    between atoms: O1_2  and  C2_3 
REMARK    2  A    between atoms: C22_27  and  O2_28 
ROOT
HETATM    1  C2  UNL     1      28.715   6.668  48.048  1.00  0.00     0.095 A 
HETATM    2  C3  UNL     1      28.639   5.301  48.208  1.00  0.00     0.041 A 
HETATM    3  C4  UNL     1      27.542   4.733  48.866  1.00  0.00     0.032 A 
HETATM    4  C5  UNL     1      26.570   5.594  49.333  1.00  0.00     0.031 A 
HETATM    5  C6  UNL     1      26.645   6.964  49.174  1.00  0.00     0.062 A 
HETATM    6  C7  UNL     1      27.733   7.511  48.522  1.00  0.00     0.084 A 
HETATM    7  N1  UNL     1      27.787   8.908  48.374  1.00  0.00    -0.185 N 
HETATM    8  C8  UNL     1      26.694   9.773  48.115  1.00  0.00     0.727 A 
HETATM    9  N2  UNL     1      26.742  11.066  48.476  1.00  0.00    -0.075 NA
HETATM   10  C9  UNL     1      25.682  11.837  48.207  1.00  0.00     0.139 A 
HETATM   11  C10 UNL     1      24.579  11.296  47.574  1.00  0.00     0.053 A 
HETATM   12  C11 UNL     1      24.593   9.963  47.231  1.00  0.00     0.094 A 
HETATM   13  N3  UNL     1      25.657   9.159  47.493  1.00  0.00    -0.061 NA
HETATM   14  C12 UNL     1      23.596   9.133  46.569  1.00  0.00     0.148 C 
HETATM   15  N4  UNL     1      23.176   7.993  47.060  1.00  0.00    -0.271 NA
HETATM   16  C13 UNL     1      22.201   7.228  46.366  1.00  0.00     0.116 C 
HETATM   17  C14 UNL     1      21.913   6.009  46.757  1.00  0.00     0.019 C 
HETATM   18  C15 UNL     1      22.495   5.298  47.871  1.00  0.00     0.001 C 
HETATM   19  C16 UNL     1      23.344   5.298  48.875  1.00  0.00     0.015 C 
HETATM   20  C17 UNL     1      24.051   4.729  50.051  1.00  0.00     0.115 C 
HETATM   21  C18 UNL     1      23.876   3.232  49.944  1.00  0.00     0.011 C 
HETATM   22  C19 UNL     1      23.806   2.445  51.010  1.00  0.00    -0.024 C 
HETATM   23  C20 UNL     1      23.899   3.016  52.368  1.00  0.00     0.056 C 
HETATM   24  C21 UNL     1      23.369   4.401  52.414  1.00  0.00     0.012 C 
HETATM   25  C22 UNL     1      23.444   5.177  51.344  1.00  0.00     0.075 C 
HETATM   26  N5  UNL     1      25.469   4.986  49.995  1.00  0.00    -0.368 N 
HETATM   27  H7  UNL     1      28.755   9.282  48.477  1.00  0.00     0.184 HD
HETATM   28  H21 UNL     1      25.845   4.490  50.830  1.00  0.00     0.161 HD
ENDROOT
BRANCH  25  29
HETATM   29  O2  UNL     1      22.974   6.484  51.302  1.00  0.00    -0.362 OA
HETATM   30  H20 UNL     1      21.978   6.593  51.081  1.00  0.00     0.217 HD
ENDBRANCH  25  29
BRANCH   1  31
HETATM   31  O1  UNL     1      29.775   7.274  47.407  1.00  0.00    -0.354 OA
HETATM   32  C1  UNL     1      31.084   7.316  47.961  1.00  0.00     0.210 C 
ENDBRANCH   1  31
TORSDOF 2
ENDMDL
MODEL 3
REMARK VINA RESULT:      -7.8      5.169      8.156
REMARK  2 active torsions:
REMARK  status: ('A' for Active; 'I' for Inactive)
REMARK    1  A    between atoms: O1_2  and  C2_3 
REMARK    2  A    between atoms: C22_27  and  O2_28 
ROOT
HETATM    1  C2  UNL     1      27.745   6.752  47.763  1.00  0.00     0.095 A 
HETATM    2  C3  UNL     1      28.313   5.597  48.258  1.00  0.00     0.041 A 
HETATM    3  C4  UNL     1      27.588   4.780  49.133  1.00  0.00     0.032 A 
HETATM    4  C5  UNL     1      26.310   5.184  49.461  1.00  0.00     0.031 A 
HETATM    5  C6  UNL     1      25.740   6.340  48.967  1.00  0.00     0.062 A 
HETATM    6  C7  UNL     1      26.467   7.137  48.104  1.00  0.00     0.084 A 
HETATM    7  N1  UNL     1      25.866   8.310  47.614  1.00  0.00    -0.185 N 
HETATM    8  C8  UNL     1      24.505   8.474  47.253  1.00  0.00     0.727 A 
HETATM    9  N2  UNL     1      23.929   9.688  47.281  1.00  0.00    -0.075 NA
HETATM   10  C9  UNL     1      22.641   9.785  46.930  1.00  0.00     0.139 A 
HETATM   11  C10 UNL     1      21.943   8.653  46.552  1.00  0.00     0.053 A 
HETATM   12  C11 UNL     1      22.592   7.439  46.545  1.00  0.00     0.094 A 
HETATM   13  N3  UNL     1      23.898   7.315  46.897  1.00  0.00    -0.061 NA
HETATM   14  C12 UNL     1      22.123   6.104  46.200  1.00  0.00     0.148 C 
HETATM   15  N4  UNL     1      22.269   5.069  46.992  1.00  0.00    -0.271 NA
HETATM   16  C13 UNL     1      21.791   3.791  46.598  1.00  0.00     0.116 C 
HETATM   17  C14 UNL     1      22.094   2.725  47.300  1.00  0.00     0.019 C 
HETATM   18  C15 UNL     1      22.902   2.677  48.496  1.00  0.00     0.001 C 
HETATM   19  C16 UNL     1      23.616   3.328  49.387  1.00  0.00     0.015 C 
HETATM   20  C17 UNL     1      24.466   3.475  50.597  1.00  0.00     0.115 C 
HETATM   21  C18 UNL     1      25.016   2.096  50.875  1.00  0.00     0.011 C 
HETATM   22  C19 UNL     1      25.286   1.671  52.104  1.00  0.00    -0.024 C 
HETATM   23  C20 UNL     1      25.053   2.550  53.266  1.00  0.00     0.056 C 
HETATM   24  C21 UNL     1      23.935   3.494  53.021  1.00  0.00     0.012 C 
HETATM   25  C22 UNL     1      23.676   3.910  51.792  1.00  0.00     0.075 C 
HETATM   26  N5  UNL     1      25.600   4.332  50.350  1.00  0.00    -0.368 N 
HETATM   27  H7  UNL     1      26.542   9.100  47.533  1.00  0.00     0.184 HD
HETATM   28  H21 UNL     1      26.135   4.300  51.243  1.00  0.00     0.161 HD
ENDROOT
BRANCH  25  29
HETATM   29  O2  UNL     1      22.650   4.793  51.474  1.00  0.00    -0.362 OA
HETATM   30  H20 UNL     1      22.932   5.645  50.977  1.00  0.00     0.217 HD
ENDBRANCH  25  29
BRANCH   1  31
HETATM   31  O1  UNL     1      28.420   7.588  46.898  1.00  0.00    -0.354 OA
HETATM   32  C1  UNL     1      29.538   8.369  47.303  1.00  0.00     0.210 C 
ENDBRANCH   1  31
TORSDOF 2
ENDMDL
MODEL 4
REMARK VINA RESULT:      -7.7      4.058      7.085
REMARK  2 active torsions:
REMARK  status: ('A' for Active; 'I' for Inactive)
REMARK    1  A    between atoms: O1_2  and  C2_3 
REMARK    2  A    between atoms: C22_27  and  O2_28 
ROOT
HETATM    1  C2  UNL     1      25.911   7.212  48.185  1.00  0.00     0.095 A 
HETATM    2  C3  UNL     1      26.882   6.235  48.249  1.00  0.00     0.041 A 
HETATM    3  C4  UNL     1      26.744   5.169  49.145  1.00  0.00     0.032 A 
HETATM    4  C5  UNL     1      25.615   5.151  49.938  1.00  0.00     0.031 A 
HETATM    5  C6  UNL     1      24.642   6.129  49.876  1.00  0.00     0.062 A 
HETATM    6  C7  UNL     1      24.790   7.175  48.986  1.00  0.00     0.084 A 
HETATM    7  N1  UNL     1      23.787   8.160  48.942  1.00  0.00    -0.185 N 
HETATM    8  C8  UNL     1      22.392   7.949  49.077  1.00  0.00     0.727 A 
HETATM    9  N2  UNL     1      21.588   8.935  49.513  1.00  0.00    -0.075 NA
HETATM   10  C9  UNL     1      20.279   8.681  49.622  1.00  0.00     0.139 A 
HETATM   11  C10 UNL     1      19.789   7.432  49.289  1.00  0.00     0.053 A 
HETATM   12  C11 UNL     1      20.666   6.466  48.849  1.00  0.00     0.094 A 
HETATM   13  N3  UNL     1      21.999   6.699  48.730  1.00  0.00    -0.061 NA
HETATM   14  C12 UNL     1      20.444   5.088  48.434  1.00  0.00     0.148 C 
HETATM   15  N4  UNL     1      21.113   4.076  48.932  1.00  0.00    -0.271 NA
HETATM   16  C13 UNL     1      20.850   2.753  48.486  1.00  0.00     0.116 C 
HETATM   17  C14 UNL     1      21.637   1.765  48.843  1.00  0.00     0.019 C 
HETATM   18  C15 UNL     1      22.808   1.852  49.683  1.00  0.00     0.001 C 
HETATM   19  C16 UNL     1      23.615   2.603  50.399  1.00  0.00     0.015 C 
HETATM   20  C17 UNL     1      24.782   2.886  51.274  1.00  0.00     0.115 C 
HETATM   21  C18 UNL     1      25.713   1.709  51.100  1.00  0.00     0.011 C 
HETATM   22  C19 UNL     1      26.503   1.276  52.075  1.00  0.00    -0.024 C 
HETATM   23  C20 UNL     1      26.501   1.944  53.391  1.00  0.00     0.056 C 
HETATM   24  C21 UNL     1      25.176   2.538  53.699  1.00  0.00     0.012 C 
HETATM   25  C22 UNL     1      24.397   2.966  52.718  1.00  0.00     0.075 C 
HETATM   26  N5  UNL     1      25.504   4.055  50.836  1.00  0.00    -0.368 N 
HETATM   27  H7  UNL     1      24.174   9.117  48.794  1.00  0.00     0.184 HD
HETATM   28  H21 UNL     1      26.317   4.103  51.485  1.00  0.00     0.161 HD
ENDROOT
BRANCH  25  29
HETATM   29  O2  UNL     1      23.144   3.534  52.918  1.00  0.00    -0.362 OA
HETATM   30  H20 UNL     1      22.760   3.446  53.866  1.00  0.00     0.217 HD
ENDBRANCH  25  29
BRANCH   1  31
HETATM   31  O1  UNL     1      26.002   8.280  47.319  1.00  0.00    -0.354 OA
HETATM   32  C1  UNL     1      27.105   8.463  46.439  1.00  0.00     0.210 C 
ENDBRANCH   1  31
TORSDOF 2
ENDMDL
MODEL 5
REMARK VINA RESULT:      -7.6      8.090     11.414
REMARK  2 active torsions:
REMARK  status: ('A' for Active; 'I' for Inactive)
REMARK    1  A    between atoms: O1_2  and  C2_3 
REMARK    2  A    between atoms: C22_27  and  O2_28 
ROOT
HETATM    1  C2  UNL     1      30.839   6.729  47.949  1.00  0.00     0.095 A 
HETATM    2  C3  UNL     1      30.153   5.543  47.796  1.00  0.00     0.041 A 
HETATM    3  C4  UNL     1      28.819   5.449  48.208  1.00  0.00     0.032 A 
HETATM    4  C5  UNL     1      28.246   6.577  48.760  1.00  0.00     0.031 A 
HETATM    5  C6  UNL     1      28.933   7.765  48.914  1.00  0.00     0.062 A 
HETATM    6  C7  UNL     1      30.249   7.844  48.503  1.00  0.00     0.084 A 
HETATM    7  N1  UNL     1      30.927   9.064  48.671  1.00  0.00    -0.185 N 
HETATM    8  C8  UNL     1      30.382  10.363  48.508  1.00  0.00     0.727 A 
HETATM    9  N2  UNL     1      30.917  11.417  49.148  1.00  0.00    -0.075 NA
HETATM   10  C9  UNL     1      30.363  12.619  48.958  1.00  0.00     0.139 A 
HETATM   11  C10 UNL     1      29.271  12.750  48.121  1.00  0.00     0.053 A 
HETATM   12  C11 UNL     1      28.770  11.630  47.495  1.00  0.00     0.094 A 
HETATM   13  N3  UNL     1      29.315  10.398  47.672  1.00  0.00    -0.061 NA
HETATM   14  C12 UNL     1      27.652  11.465  46.577  1.00  0.00     0.148 C 
HETATM   15  N4  UNL     1      26.699  10.585  46.764  1.00  0.00    -0.271 NA
HETATM   16  C13 UNL     1      25.634  10.471  45.831  1.00  0.00     0.116 C 
HETATM   17  C14 UNL     1      24.782   9.476  45.916  1.00  0.00     0.019 C 
HETATM   18  C15 UNL     1      24.786   8.415  46.895  1.00  0.00     0.001 C 
HETATM   19  C16 UNL     1      25.352   7.870  47.949  1.00  0.00     0.015 C 
HETATM   20  C17 UNL     1      25.516   6.867  49.032  1.00  0.00     0.115 C 
HETATM   21  C18 UNL     1      24.735   5.655  48.582  1.00  0.00     0.011 C 
HETATM   22  C19 UNL     1      24.139   4.834  49.438  1.00  0.00    -0.024 C 
HETATM   23  C20 UNL     1      24.219   5.081  50.891  1.00  0.00     0.056 C 
HETATM   24  C21 UNL     1      24.341   6.529  51.191  1.00  0.00     0.012 C 
HETATM   25  C22 UNL     1      24.938   7.338  50.330  1.00  0.00     0.075 C 
HETATM   26  N5  UNL     1      26.890   6.449  49.166  1.00  0.00    -0.368 N 
HETATM   27  H7  UNL     1      31.925   8.931  48.943  1.00  0.00     0.184 HD
HETATM   28  H21 UNL     1      26.856   5.713  49.903  1.00  0.00     0.161 HD
ENDROOT
BRANCH  25  29
HETATM   29  O2  UNL     1      25.095   8.704  50.533  1.00  0.00    -0.362 OA
HETATM   30  H20 UNL     1      26.046   9.068  50.406  1.00  0.00     0.217 HD
ENDBRANCH  25  29
BRANCH   1  31
HETATM   31  O1  UNL     1      32.154   6.871  47.558  1.00  0.00    -0.354 OA
HETATM   32  C1  UNL     1      33.035   5.763  47.414  1.00  0.00     0.210 C 
ENDBRANCH   1  31
TORSDOF 2
ENDMDL
MODEL 6
REMARK VINA RESULT:      -7.6     10.806     13.740
REMARK  2 active torsions:
REMARK  status: ('A' for Active; 'I' for Inactive)
REMARK    1  A    between atoms: O1_2  and  C2_3 
REMARK    2  A    between atoms: C22_27  and  O2_28 
ROOT
HETATM    1  C2  UNL     1      32.219   9.271  43.634  1.00  0.00     0.095 A 
HETATM    2  C3  UNL     1      32.456   8.044  43.051  1.00  0.00     0.041 A 
HETATM    3  C4  UNL     1      32.745   6.933  43.852  1.00  0.00     0.032 A 
HETATM    4  C5  UNL     1      32.777   7.130  45.218  1.00  0.00     0.031 A 
HETATM    5  C6  UNL     1      32.540   8.358  45.803  1.00  0.00     0.062 A 
HETATM    6  C7  UNL     1      32.256   9.445  45.000  1.00  0.00     0.084 A 
HETATM    7  N1  UNL     1      32.019  10.686  45.619  1.00  0.00    -0.185 N 
HETATM    8  C8  UNL     1      31.330  10.903  46.839  1.00  0.00     0.727 A 
HETATM    9  N2  UNL     1      31.576  11.997  47.580  1.00  0.00    -0.075 NA
HETATM   10  C9  UNL     1      30.898  12.151  48.723  1.00  0.00     0.139 A 
HETATM   11  C10 UNL     1      29.974  11.199  49.110  1.00  0.00     0.053 A 
HETATM   12  C11 UNL     1      29.769  10.101  48.305  1.00  0.00     0.094 A 
HETATM   13  N3  UNL     1      30.445   9.921  47.140  1.00  0.00    -0.061 NA
HETATM   14  C12 UNL     1      28.878   8.958  48.451  1.00  0.00     0.148 C 
HETATM   15  N4  UNL     1      29.289   7.717  48.369  1.00  0.00    -0.271 NA
HETATM   16  C13 UNL     1      28.370   6.644  48.520  1.00  0.00     0.116 C 
HETATM   17  C14 UNL     1      28.740   5.413  48.258  1.00  0.00     0.019 C 
HETATM   18  C15 UNL     1      30.041   4.977  47.808  1.00  0.00     0.001 C 
HETATM   19  C16 UNL     1      31.271   5.297  47.471  1.00  0.00     0.015 C 
HETATM   20  C17 UNL     1      32.661   5.040  47.015  1.00  0.00     0.115 C 
HETATM   21  C18 UNL     1      32.626   3.682  46.356  1.00  0.00     0.011 C 
HETATM   22  C19 UNL     1      33.666   2.857  46.368  1.00  0.00    -0.024 C 
HETATM   23  C20 UNL     1      34.921   3.247  47.040  1.00  0.00     0.056 C 
HETATM   24  C21 UNL     1      34.667   4.161  48.181  1.00  0.00     0.012 C 
HETATM   25  C22 UNL     1      33.627   4.978  48.157  1.00  0.00     0.075 C 
HETATM   26  N5  UNL     1      33.072   5.982  46.003  1.00  0.00    -0.368 N 
HETATM   27  H7  UNL     1      32.414  11.484  45.076  1.00  0.00     0.184 HD
HETATM   28  H21 UNL     1      34.023   5.657  45.732  1.00  0.00     0.161 HD
ENDROOT
BRANCH  25  29
HETATM   29  O2  UNL     1      33.317   5.866  49.181  1.00  0.00    -0.362 OA
HETATM   30  H20 UNL     1      33.540   5.547  50.131  1.00  0.00     0.217 HD
ENDBRANCH  25  29
BRANCH   1  31
HETATM   31  O1  UNL     1      31.929  10.393  42.887  1.00  0.00    -0.354 OA
HETATM   32  C1  UNL     1      32.697  10.779  41.753  1.00  0.00     0.210 C 
ENDBRANCH   1  31
TORSDOF 2
ENDMDL
MODEL 7
REMARK VINA RESULT:      -7.5      7.607     10.198
REMARK  2 active torsions:
REMARK  status: ('A' for Active; 'I' for Inactive)
REMARK    1  A    between atoms: O1_2  and  C2_3 
REMARK    2  A    between atoms: C22_27  and  O2_28 
ROOT
HETATM    1  C2  UNL     1      24.941   8.857  44.303  1.00  0.00     0.095 A 
HETATM    2  C3  UNL     1      26.166   8.589  43.730  1.00  0.00     0.041 A 
HETATM    3  C4  UNL     1      27.300   8.447  44.537  1.00  0.00     0.032 A 
HETATM    4  C5  UNL     1      27.128   8.586  45.899  1.00  0.00     0.031 A 
HETATM    5  C6  UNL     1      25.901   8.854  46.475  1.00  0.00     0.062 A 
HETATM    6  C7  UNL     1      24.790   8.992  45.666  1.00  0.00     0.084 A 
HETATM    7  N1  UNL     1      23.553   9.266  46.275  1.00  0.00    -0.185 N 
HETATM    8  C8  UNL     1      23.084   8.744  47.507  1.00  0.00     0.727 A 
HETATM    9  N2  UNL     1      22.168   9.411  48.230  1.00  0.00    -0.075 NA
HETATM   10  C9  UNL     1      21.761   8.872  49.385  1.00  0.00     0.139 A 
HETATM   11  C10 UNL     1      22.282   7.662  49.803  1.00  0.00     0.053 A 
HETATM   12  C11 UNL     1      23.218   7.030  49.015  1.00  0.00     0.094 A 
HETATM   13  N3  UNL     1      23.647   7.556  47.839  1.00  0.00    -0.061 NA
HETATM   14  C12 UNL     1      23.928   5.771  49.194  1.00  0.00     0.148 C 
HETATM   15  N4  UNL     1      25.233   5.671  49.117  1.00  0.00    -0.271 NA
HETATM   16  C13 UNL     1      25.868   4.413  49.301  1.00  0.00     0.116 C 
HETATM   17  C14 UNL     1      27.147   4.273  49.045  1.00  0.00     0.019 C 
HETATM   18  C15 UNL     1      28.052   5.295  48.573  1.00  0.00     0.001 C 
HETATM   19  C16 UNL     1      28.232   6.545  48.206  1.00  0.00     0.015 C 
HETATM   20  C17 UNL     1      29.006   7.717  47.724  1.00  0.00     0.115 C 
HETATM   21  C18 UNL     1      30.248   7.145  47.081  1.00  0.00     0.011 C 
HETATM   22  C19 UNL     1      31.410   7.787  47.081  1.00  0.00    -0.024 C 
HETATM   23  C20 UNL     1      31.532   9.111  47.721  1.00  0.00     0.056 C 
HETATM   24  C21 UNL     1      30.588   9.257  48.856  1.00  0.00     0.012 C 
HETATM   25  C22 UNL     1      29.433   8.612  48.845  1.00  0.00     0.075 C 
HETATM   26  N5  UNL     1      28.298   8.434  46.692  1.00  0.00    -0.368 N 
HETATM   27  H7  UNL     1      22.971   9.925  45.714  1.00  0.00     0.184 HD
HETATM   28  H21 UNL     1      28.966   9.180  46.404  1.00  0.00     0.161 HD
ENDROOT
BRANCH  25  29
HETATM   29  O2  UNL     1      28.492   8.693  49.865  1.00  0.00    -0.362 OA
HETATM   30  H20 UNL     1      27.725   8.011  49.821  1.00  0.00     0.217 HD
ENDBRANCH  25  29
BRANCH   1  31
HETATM   31  O1  UNL     1      23.795   9.005  43.549  1.00  0.00    -0.354 OA
HETATM   32  C1  UNL     1      23.210   7.928  42.826  1.00  0.00     0.210 C 
ENDBRANCH   1  31
TORSDOF 2
ENDMDL
MODEL 8
REMARK VINA RESULT:      -7.4      2.125      2.785
REMARK  2 active torsions:
REMARK  status: ('A' for Active; 'I' for Inactive)
REMARK    1  A    between atoms: O1_2  and  C2_3 
REMARK    2  A    between atoms: C22_27  and  O2_28 
ROOT
HETATM    1  C2  UNL     1      19.562   0.889  50.820  1.00  0.00     0.095 A 
HETATM    2  C3  UNL     1      20.087   0.599  52.061  1.00  0.00     0.041 A 
HETATM    3  C4  UNL     1      21.422   0.907  52.345  1.00  0.00     0.032 A 
HETATM    4  C5  UNL     1      22.162   1.499  51.342  1.00  0.00     0.031 A 
HETATM    5  C6  UNL     1      21.637   1.789  50.098  1.00  0.00     0.062 A 
HETATM    6  C7  UNL     1      20.318   1.481  49.832  1.00  0.00     0.084 A 
HETATM    7  N1  UNL     1      19.806   1.784  48.557  1.00  0.00    -0.185 N 
HETATM    8  C8  UNL     1      20.112   2.927  47.776  1.00  0.00     0.727 A 
HETATM    9  N2  UNL     1      19.992   2.895  46.437  1.00  0.00    -0.075 NA
HETATM   10  C9  UNL     1      20.293   4.002  45.749  1.00  0.00     0.139 A 
HETATM   11  C10 UNL     1      20.714   5.136  46.418  1.00  0.00     0.053 A 
HETATM   12  C11 UNL     1      20.816   5.103  47.791  1.00  0.00     0.094 A 
HETATM   13  N3  UNL     1      20.515   3.992  48.512  1.00  0.00    -0.061 NA
HETATM   14  C12 UNL     1      21.223   6.124  48.746  1.00  0.00     0.148 C 
HETATM   15  N4  UNL     1      22.148   5.925  49.653  1.00  0.00    -0.271 NA
HETATM   16  C13 UNL     1      22.501   6.961  50.558  1.00  0.00     0.116 C 
HETATM   17  C14 UNL     1      23.289   6.711  51.577  1.00  0.00     0.019 C 
HETATM   18  C15 UNL     1      23.883   5.440  51.920  1.00  0.00     0.001 C 
HETATM   19  C16 UNL     1      24.035   4.165  51.636  1.00  0.00     0.015 C 
HETATM   20  C17 UNL     1      24.552   2.787  51.830  1.00  0.00     0.115 C 
HETATM   21  C18 UNL     1      24.988   2.717  53.274  1.00  0.00     0.011 C 
HETATM   22  C19 UNL     1      25.996   1.954  53.678  1.00  0.00    -0.024 C 
HETATM   23  C20 UNL     1      26.743   1.128  52.710  1.00  0.00     0.056 C 
HETATM   24  C21 UNL     1      26.756   1.747  51.361  1.00  0.00     0.012 C 
HETATM   25  C22 UNL     1      25.745   2.506  50.970  1.00  0.00     0.075 C 
HETATM   26  N5  UNL     1      23.513   1.800  51.662  1.00  0.00    -0.368 N 
HETATM   27  H7  UNL     1      19.144   1.057  48.210  1.00  0.00     0.184 HD
HETATM   28  H21 UNL     1      23.988   0.899  51.882  1.00  0.00     0.161 HD
ENDROOT
BRANCH  25  29
HETATM   29  O2  UNL     1      25.677   3.122  49.726  1.00  0.00    -0.362 OA
HETATM   30  H20 UNL     1      25.832   2.511  48.915  1.00  0.00     0.217 HD
ENDBRANCH  25  29
BRANCH   1  31
HETATM   31  O1  UNL     1      18.252   0.605  50.494  1.00  0.00    -0.354 OA
HETATM   32  C1  UNL     1      17.482  -0.368  51.190  1.00  0.00     0.210 C 
ENDBRANCH   1  31
TORSDOF 2
ENDMDL
MODEL 9
REMARK VINA RESULT:      -7.3     11.345     14.141
REMARK  2 active torsions:
REMARK  status: ('A' for Active; 'I' for Inactive)
REMARK    1  A    between atoms: O1_2  and  C2_3 
REMARK    2  A    between atoms: C22_27  and  O2_28 
ROOT
HETATM    1  C2  UNL     1      29.403   6.059  47.845  1.00  0.00     0.095 A 
HETATM    2  C3  UNL     1      28.583   7.068  47.385  1.00  0.00     0.041 A 
HETATM    3  C4  UNL     1      29.130   8.150  46.686  1.00  0.00     0.032 A 
HETATM    4  C5  UNL     1      30.495   8.150  46.489  1.00  0.00     0.031 A 
HETATM    5  C6  UNL     1      31.318   7.141  46.948  1.00  0.00     0.062 A 
HETATM    6  C7  UNL     1      30.765   6.078  47.637  1.00  0.00     0.084 A 
HETATM    7  N1  UNL     1      31.623   5.063  48.096  1.00  0.00    -0.185 N 
HETATM    8  C8  UNL     1      32.760   4.551  47.423  1.00  0.00     0.727 A 
HETATM    9  N2  UNL     1      33.764   3.979  48.110  1.00  0.00    -0.075 NA
HETATM   10  C9  UNL     1      34.814   3.512  47.424  1.00  0.00     0.139 A 
HETATM   11  C10 UNL     1      34.842   3.625  46.047  1.00  0.00     0.053 A 
HETATM   12  C11 UNL     1      33.781   4.221  45.403  1.00  0.00     0.094 A 
HETATM   13  N3  UNL     1      32.704   4.703  46.077  1.00  0.00    -0.061 NA
HETATM   14  C12 UNL     1      33.537   4.474  43.990  1.00  0.00     0.148 C 
HETATM   15  N4  UNL     1      33.218   5.656  43.521  1.00  0.00    -0.271 NA
HETATM   16  C13 UNL     1      32.992   5.839  42.131  1.00  0.00     0.116 C 
HETATM   17  C14 UNL     1      32.497   6.969  41.683  1.00  0.00     0.019 C 
HETATM   18  C15 UNL     1      32.129   8.124  42.469  1.00  0.00     0.001 C 
HETATM   19  C16 UNL     1      32.039   8.686  43.654  1.00  0.00     0.015 C 
HETATM   20  C17 UNL     1      31.718   9.768  44.619  1.00  0.00     0.115 C 
HETATM   21  C18 UNL     1      30.758  10.684  43.896  1.00  0.00     0.011 C 
HETATM   22  C19 UNL     1      30.710  11.990  44.127  1.00  0.00    -0.024 C 
HETATM   23  C20 UNL     1      31.611  12.608  45.119  1.00  0.00     0.056 C 
HETATM   24  C21 UNL     1      32.893  11.868  45.226  1.00  0.00     0.012 C 
HETATM   25  C22 UNL     1      32.929  10.566  44.994  1.00  0.00     0.075 C 
HETATM   26  N5  UNL     1      31.019   9.262  45.774  1.00  0.00    -0.368 N 
HETATM   27  H7  UNL     1      31.339   4.695  49.030  1.00  0.00     0.184 HD
HETATM   28  H21 UNL     1      30.804  10.116  46.329  1.00  0.00     0.161 HD
ENDROOT
BRANCH  25  29
HETATM   29  O2  UNL     1      34.084   9.798  45.073  1.00  0.00    -0.362 OA
HETATM   30  H20 UNL     1      34.910  10.271  45.457  1.00  0.00     0.217 HD
ENDBRANCH  25  29
BRANCH   1  31
HETATM   31  O1  UNL     1      28.911   4.973  48.538  1.00  0.00    -0.354 OA
HETATM   32  C1  UNL     1      27.519   4.751  48.728  1.00  0.00     0.210 C 
ENDBRANCH   1  31
TORSDOF 2
ENDMDL
