MODEL 1
REMARK VINA RESULT:      -8.7      0.000      0.000
REMARK  1 active torsions:
REMARK  status: ('A' for Active; 'I' for Inactive)
REMARK    1  A    between atoms: O1_1  and  C1_2 
ROOT
HETATM    1  C1  UNL     1      20.666   7.177  48.530  1.00  0.00     0.068 A 
HETATM    2  C2  UNL     1      21.151   8.221  49.286  1.00  0.00     0.037 A 
HETATM    3  C3  UNL     1      22.135   7.889  50.218  1.00  0.00     0.014 A 
HETATM    4  C4  UNL     1      22.660   6.637  50.454  1.00  0.00    -0.006 A 
HETATM    5  C5  UNL     1      22.113   5.634  49.646  1.00  0.00     0.088 A 
HETATM    6  C6  UNL     1      21.146   5.901  48.714  1.00  0.00     0.074 A 
HETATM    7  O2  UNL     1      22.516   4.286  49.731  1.00  0.00    -0.289 OA
HETATM    8  C7  UNL     1      22.939   3.579  50.875  1.00  0.00     0.199 C 
HETATM    9  N1  UNL     1      22.541   2.366  50.606  1.00  0.00    -0.216 NA
HETATM   10  C8  UNL     1      22.594   1.098  51.253  1.00  0.00     0.232 C 
HETATM   11  N2  UNL     1      23.419   0.608  52.114  1.00  0.00    -0.250 NA
HETATM   12  C9  UNL     1      24.615   0.952  52.855  1.00  0.00     0.132 C 
HETATM   13  C10 UNL     1      24.721  -0.035  53.970  1.00  0.00     0.086 C 
HETATM   14  C11 UNL     1      26.042  -0.179  54.582  1.00  0.00     0.021 C 
HETATM   15  C12 UNL     1      27.275   0.300  54.485  1.00  0.00     0.134 C 
HETATM   16  F1  UNL     1      28.299  -0.115  55.291  1.00  0.00    -0.205 F 
HETATM   17  C13 UNL     1      27.596   1.332  53.472  1.00  0.00     0.068 C 
HETATM   18 CL1  UNL     1      29.052   2.264  53.834  1.00  0.00    -0.081 Cl
HETATM   19  C14 UNL     1      26.965   1.665  52.336  1.00  0.00     0.005 C 
HETATM   20  C15 UNL     1      25.726   0.980  51.881  1.00  0.00     0.084 C 
HETATM   21  N3  UNL     1      24.553   2.275  53.458  1.00  0.00    -0.369 N 
HETATM   22  C16 UNL     1      24.279   3.607  53.050  1.00  0.00     0.119 C 
HETATM   23  C17 UNL     1      23.637   4.146  52.026  1.00  0.00     0.097 C 
HETATM   24  N4  UNL     1      23.793   5.527  52.319  1.00  0.00    -0.381 N 
HETATM   25  C18 UNL     1      23.679   6.722  51.524  1.00  0.00     0.161 C 
HETATM   26  H12 UNL     1      24.769   2.301  54.500  1.00  0.00     0.161 HD
HETATM   27  H14 UNL     1      24.043   5.691  53.332  1.00  0.00     0.160 HD
ENDROOT
BRANCH   1  28
HETATM   28  O1  UNL     1      19.686   7.457  47.590  1.00  0.00    -0.361 OA
HETATM   29  H1  UNL     1      19.021   6.746  47.332  1.00  0.00     0.217 HD
ENDBRANCH   1  28
TORSDOF 1
ENDMDL
MODEL 2
REMARK VINA RESULT:      -8.3      4.303      7.670
REMARK  1 active torsions:
REMARK  status: ('A' for Active; 'I' for Inactive)
REMARK    1  A    between atoms: O1_1  and  C1_2 
ROOT
HETATM    1  C1  UNL     1      23.968  -0.038  53.524  1.00  0.00     0.068 A 
HETATM    2  C2  UNL     1      25.295  -0.401  53.450  1.00  0.00     0.037 A 
HETATM    3  C3  UNL     1      26.144   0.524  52.843  1.00  0.00     0.014 A 
HETATM    4  C4  UNL     1      25.792   1.748  52.317  1.00  0.00    -0.006 A 
HETATM    5  C5  UNL     1      24.428   2.039  52.431  1.00  0.00     0.088 A 
HETATM    6  C6  UNL     1      23.547   1.171  53.017  1.00  0.00     0.074 A 
HETATM    7  O2  UNL     1      23.866   3.242  51.955  1.00  0.00    -0.289 OA
HETATM    8  C7  UNL     1      24.262   3.998  50.834  1.00  0.00     0.199 C 
HETATM    9  N1  UNL     1      23.132   4.527  50.451  1.00  0.00    -0.216 NA
HETATM   10  C8  UNL     1      22.704   5.401  49.411  1.00  0.00     0.232 C 
HETATM   11  N2  UNL     1      23.325   6.317  48.750  1.00  0.00    -0.250 NA
HETATM   12  C9  UNL     1      24.625   6.950  48.645  1.00  0.00     0.132 C 
HETATM   13  C10 UNL     1      24.643   7.661  47.333  1.00  0.00     0.086 C 
HETATM   14  C11 UNL     1      25.644   8.718  47.185  1.00  0.00     0.021 C 
HETATM   15  C12 UNL     1      26.617   9.310  47.864  1.00  0.00     0.134 C 
HETATM   16  F1  UNL     1      27.375  10.325  47.346  1.00  0.00    -0.205 F 
HETATM   17  C13 UNL     1      26.929   8.882  49.248  1.00  0.00     0.068 C 
HETATM   18 CL1  UNL     1      28.552   9.322  49.786  1.00  0.00    -0.081 Cl
HETATM   19  C14 UNL     1      26.182   8.222  50.146  1.00  0.00     0.005 C 
HETATM   20  C15 UNL     1      24.792   7.779  49.856  1.00  0.00     0.084 C 
HETATM   21  N3  UNL     1      25.725   5.997  48.634  1.00  0.00    -0.369 N 
HETATM   22  C16 UNL     1      26.186   4.910  49.421  1.00  0.00     0.119 C 
HETATM   23  C17 UNL     1      25.618   4.102  50.302  1.00  0.00     0.097 C 
HETATM   24  N4  UNL     1      26.723   3.280  50.650  1.00  0.00    -0.381 N 
HETATM   25  C18 UNL     1      26.994   2.414  51.769  1.00  0.00     0.161 C 
HETATM   26  H12 UNL     1      26.404   6.111  47.822  1.00  0.00     0.161 HD
HETATM   27  H14 UNL     1      27.494   3.326  49.930  1.00  0.00     0.160 HD
ENDROOT
BRANCH   1  28
HETATM   28  O1  UNL     1      23.083  -0.924  54.119  1.00  0.00    -0.361 OA
HETATM   29  H1  UNL     1      23.316  -1.349  55.001  1.00  0.00     0.217 HD
ENDBRANCH   1  28
TORSDOF 1
ENDMDL
MODEL 3
REMARK VINA RESULT:      -8.3      6.323      8.394
REMARK  1 active torsions:
REMARK  status: ('A' for Active; 'I' for Inactive)
REMARK    1  A    between atoms: O1_1  and  C1_2 
ROOT
HETATM    1  C1  UNL     1      22.537   3.867  49.603  1.00  0.00     0.068 A 
HETATM    2  C2  UNL     1      21.870   4.620  50.544  1.00  0.00     0.037 A 
HETATM    3  C3  UNL     1      22.415   5.876  50.814  1.00  0.00     0.014 A 
HETATM    4  C4  UNL     1      23.537   6.429  50.239  1.00  0.00    -0.006 A 
HETATM    5  C5  UNL     1      24.155   5.601  49.295  1.00  0.00     0.088 A 
HETATM    6  C6  UNL     1      23.666   4.360  48.990  1.00  0.00     0.074 A 
HETATM    7  O2  UNL     1      25.318   5.983  48.594  1.00  0.00    -0.289 OA
HETATM    8  C7  UNL     1      26.377   6.793  49.050  1.00  0.00     0.199 C 
HETATM    9  N1  UNL     1      27.394   6.303  48.396  1.00  0.00    -0.216 NA
HETATM   10  C8  UNL     1      28.790   6.573  48.309  1.00  0.00     0.232 C 
HETATM   11  N2  UNL     1      29.467   7.653  48.500  1.00  0.00    -0.250 NA
HETATM   12  C9  UNL     1      29.296   9.046  48.860  1.00  0.00     0.132 C 
HETATM   13  C10 UNL     1      30.642   9.546  49.268  1.00  0.00     0.086 C 
HETATM   14  C11 UNL     1      30.824  10.998  49.251  1.00  0.00     0.021 C 
HETATM   15  C12 UNL     1      30.157  12.111  48.978  1.00  0.00     0.134 C 
HETATM   16  F1  UNL     1      30.713  13.357  49.092  1.00  0.00    -0.205 F 
HETATM   17  C13 UNL     1      28.748  12.046  48.528  1.00  0.00     0.068 C 
HETATM   18 CL1  UNL     1      27.848  13.547  48.767  1.00  0.00    -0.081 Cl
HETATM   19  C14 UNL     1      28.055  11.040  47.974  1.00  0.00     0.005 C 
HETATM   20  C15 UNL     1      28.660   9.709  47.702  1.00  0.00     0.084 C 
HETATM   21  N3  UNL     1      28.404   9.238  49.994  1.00  0.00    -0.369 N 
HETATM   22  C16 UNL     1      27.093   8.853  50.381  1.00  0.00     0.119 C 
HETATM   23  C17 UNL     1      26.271   7.883  50.017  1.00  0.00     0.097 C 
HETATM   24  N4  UNL     1      25.156   8.161  50.853  1.00  0.00    -0.381 N 
HETATM   25  C18 UNL     1      23.769   7.777  50.805  1.00  0.00     0.161 C 
HETATM   26  H12 UNL     1      28.806   9.831  50.781  1.00  0.00     0.161 HD
HETATM   27  H14 UNL     1      25.417   8.776  51.670  1.00  0.00     0.160 HD
ENDROOT
BRANCH   1  28
HETATM   28  O1  UNL     1      22.035   2.611  49.300  1.00  0.00    -0.361 OA
HETATM   29  H1  UNL     1      21.403   2.497  48.525  1.00  0.00     0.217 HD
ENDBRANCH   1  28
TORSDOF 1
ENDMDL
MODEL 4
REMARK VINA RESULT:      -8.2      3.850      7.366
REMARK  1 active torsions:
REMARK  status: ('A' for Active; 'I' for Inactive)
REMARK    1  A    between atoms: O1_1  and  C1_2 
ROOT
HETATM    1  C1  UNL     1      21.733  -0.820  54.338  1.00  0.00     0.068 A 
HETATM    2  C2  UNL     1      23.061  -1.179  54.413  1.00  0.00     0.037 A 
HETATM    3  C3  UNL     1      23.958  -0.316  53.783  1.00  0.00     0.014 A 
HETATM    4  C4  UNL     1      23.652   0.843  53.104  1.00  0.00    -0.006 A 
HETATM    5  C5  UNL     1      22.283   1.134  53.074  1.00  0.00     0.088 A 
HETATM    6  C6  UNL     1      21.357   0.325  53.674  1.00  0.00     0.074 A 
HETATM    7  O2  UNL     1      21.764   2.276  52.429  1.00  0.00    -0.289 OA
HETATM    8  C7  UNL     1      22.252   2.913  51.271  1.00  0.00     0.199 C 
HETATM    9  N1  UNL     1      21.157   3.390  50.743  1.00  0.00    -0.216 NA
HETATM   10  C8  UNL     1      20.817   4.146  49.585  1.00  0.00     0.232 C 
HETATM   11  N2  UNL     1      21.493   4.993  48.885  1.00  0.00    -0.250 NA
HETATM   12  C9  UNL     1      22.797   5.621  48.821  1.00  0.00     0.132 C 
HETATM   13  C10 UNL     1      22.924   6.190  47.447  1.00  0.00     0.086 C 
HETATM   14  C11 UNL     1      23.935   7.233  47.271  1.00  0.00     0.021 C 
HETATM   15  C12 UNL     1      24.849   7.901  47.962  1.00  0.00     0.134 C 
HETATM   16  F1  UNL     1      25.647   8.862  47.404  1.00  0.00    -0.205 F 
HETATM   17  C13 UNL     1      25.045   7.624  49.404  1.00  0.00     0.068 C 
HETATM   18 CL1  UNL     1      26.619   8.131  50.024  1.00  0.00    -0.081 Cl
HETATM   19  C14 UNL     1      24.226   7.056  50.302  1.00  0.00     0.005 C 
HETATM   20  C15 UNL     1      22.864   6.574  49.948  1.00  0.00     0.084 C 
HETATM   21  N3  UNL     1      23.893   4.681  49.000  1.00  0.00    -0.369 N 
HETATM   22  C16 UNL     1      24.287   3.686  49.934  1.00  0.00     0.119 C 
HETATM   23  C17 UNL     1      23.647   2.971  50.845  1.00  0.00     0.097 C 
HETATM   24  N4  UNL     1      24.719   2.199  51.367  1.00  0.00    -0.381 N 
HETATM   25  C18 UNL     1      24.895   1.457  52.589  1.00  0.00     0.161 C 
HETATM   26  H12 UNL     1      24.637   4.714  48.240  1.00  0.00     0.161 HD
HETATM   27  H14 UNL     1      25.547   2.175  50.712  1.00  0.00     0.160 HD
ENDROOT
BRANCH   1  28
HETATM   28  O1  UNL     1      20.801  -1.646  54.948  1.00  0.00    -0.361 OA
HETATM   29  H1  UNL     1      20.344  -2.366  54.414  1.00  0.00     0.217 HD
ENDBRANCH   1  28
TORSDOF 1
ENDMDL
MODEL 5
REMARK VINA RESULT:      -8.2      4.729      8.079
REMARK  1 active torsions:
REMARK  status: ('A' for Active; 'I' for Inactive)
REMARK    1  A    between atoms: O1_1  and  C1_2 
ROOT
HETATM    1  C1  UNL     1      28.021   0.969  53.121  1.00  0.00     0.068 A 
HETATM    2  C2  UNL     1      27.689  -0.120  53.897  1.00  0.00     0.037 A 
HETATM    3  C3  UNL     1      26.338  -0.472  53.903  1.00  0.00     0.014 A 
HETATM    4  C4  UNL     1      25.319   0.154  53.219  1.00  0.00    -0.006 A 
HETATM    5  C5  UNL     1      25.740   1.250  52.457  1.00  0.00     0.088 A 
HETATM    6  C6  UNL     1      27.051   1.641  52.412  1.00  0.00     0.074 A 
HETATM    7  O2  UNL     1      24.850   2.024  51.684  1.00  0.00    -0.289 OA
HETATM    8  C7  UNL     1      23.502   2.325  51.959  1.00  0.00     0.199 C 
HETATM    9  N1  UNL     1      23.369   3.501  51.409  1.00  0.00    -0.216 NA
HETATM   10  C8  UNL     1      22.323   4.456  51.258  1.00  0.00     0.232 C 
HETATM   11  N2  UNL     1      21.041   4.324  51.222  1.00  0.00    -0.250 NA
HETATM   12  C9  UNL     1      20.006   3.312  51.294  1.00  0.00     0.132 C 
HETATM   13  C10 UNL     1      18.730   4.032  51.582  1.00  0.00     0.086 C 
HETATM   14  C11 UNL     1      17.497   3.310  51.271  1.00  0.00     0.021 C 
HETATM   15  C12 UNL     1      17.085   2.147  50.784  1.00  0.00     0.134 C 
HETATM   16  F1  UNL     1      15.762   1.828  50.640  1.00  0.00    -0.205 F 
HETATM   17  C13 UNL     1      18.070   1.122  50.368  1.00  0.00     0.068 C 
HETATM   18 CL1  UNL     1      17.415  -0.518  50.307  1.00  0.00    -0.081 Cl
HETATM   19  C14 UNL     1      19.363   1.239  50.034  1.00  0.00     0.005 C 
HETATM   20  C15 UNL     1      20.071   2.548  50.031  1.00  0.00     0.084 C 
HETATM   21  N3  UNL     1      20.215   2.358  52.373  1.00  0.00    -0.369 N 
HETATM   22  C16 UNL     1      21.248   1.505  52.840  1.00  0.00     0.119 C 
HETATM   23  C17 UNL     1      22.562   1.476  52.686  1.00  0.00     0.097 C 
HETATM   24  N4  UNL     1      22.889   0.328  53.458  1.00  0.00    -0.381 N 
HETATM   25  C18 UNL     1      24.040  -0.535  53.499  1.00  0.00     0.161 C 
HETATM   26  H12 UNL     1      19.380   2.230  53.022  1.00  0.00     0.161 HD
HETATM   27  H14 UNL     1      22.118   0.072  54.132  1.00  0.00     0.160 HD
ENDROOT
BRANCH   1  28
HETATM   28  O1  UNL     1      29.350   1.358  53.083  1.00  0.00    -0.361 OA
HETATM   29  H1  UNL     1      30.077   0.673  53.204  1.00  0.00     0.217 HD
ENDBRANCH   1  28
TORSDOF 1
ENDMDL
MODEL 6
REMARK VINA RESULT:      -8.1      4.938      7.945
REMARK  1 active torsions:
REMARK  status: ('A' for Active; 'I' for Inactive)
REMARK    1  A    between atoms: O1_1  and  C1_2 
ROOT
HETATM    1  C1  UNL     1      27.842   0.334  54.425  1.00  0.00     0.068 A 
HETATM    2  C2  UNL     1      28.444   1.045  53.410  1.00  0.00     0.037 A 
HETATM    3  C3  UNL     1      27.579   1.686  52.522  1.00  0.00     0.014 A 
HETATM    4  C4  UNL     1      26.202   1.678  52.560  1.00  0.00    -0.006 A 
HETATM    5  C5  UNL     1      25.670   0.932  53.619  1.00  0.00     0.088 A 
HETATM    6  C6  UNL     1      26.469   0.283  54.520  1.00  0.00     0.074 A 
HETATM    7  O2  UNL     1      24.283   0.799  53.833  1.00  0.00    -0.289 OA
HETATM    8  C7  UNL     1      23.258   0.757  52.866  1.00  0.00     0.199 C 
HETATM    9  N1  UNL     1      22.373  -0.009  53.443  1.00  0.00    -0.216 NA
HETATM   10  C8  UNL     1      21.085  -0.521  53.117  1.00  0.00     0.232 C 
HETATM   11  N2  UNL     1      20.153  -0.071  52.346  1.00  0.00    -0.250 NA
HETATM   12  C9  UNL     1      19.853   1.041  51.467  1.00  0.00     0.132 C 
HETATM   13  C10 UNL     1      18.704   0.610  50.618  1.00  0.00     0.086 C 
HETATM   14  C11 UNL     1      17.941   1.677  49.972  1.00  0.00     0.021 C 
HETATM   15  C12 UNL     1      17.912   3.000  49.872  1.00  0.00     0.134 C 
HETATM   16  F1  UNL     1      16.981   3.668  49.124  1.00  0.00    -0.205 F 
HETATM   17  C13 UNL     1      18.914   3.824  50.585  1.00  0.00     0.068 C 
HETATM   18 CL1  UNL     1      19.116   5.446  49.916  1.00  0.00    -0.081 Cl
HETATM   19  C14 UNL     1      19.683   3.538  51.647  1.00  0.00     0.005 C 
HETATM   20  C15 UNL     1      19.637   2.220  52.332  1.00  0.00     0.084 C 
HETATM   21  N3  UNL     1      20.950   1.374  50.571  1.00  0.00    -0.369 N 
HETATM   22  C16 UNL     1      22.336   1.668  50.665  1.00  0.00     0.119 C 
HETATM   23  C17 UNL     1      23.271   1.430  51.570  1.00  0.00     0.097 C 
HETATM   24  N4  UNL     1      24.396   2.031  50.945  1.00  0.00    -0.381 N 
HETATM   25  C18 UNL     1      25.672   2.482  51.437  1.00  0.00     0.161 C 
HETATM   26  H12 UNL     1      20.684   1.424  49.541  1.00  0.00     0.161 HD
HETATM   27  H14 UNL     1      24.248   2.167  49.908  1.00  0.00     0.160 HD
ENDROOT
BRANCH   1  28
HETATM   28  O1  UNL     1      28.658  -0.322  55.332  1.00  0.00    -0.361 OA
HETATM   29  H1  UNL     1      28.398  -1.232  55.674  1.00  0.00     0.217 HD
ENDBRANCH   1  28
TORSDOF 1
ENDMDL
MODEL 7
REMARK VINA RESULT:      -8.1      8.836     10.136
REMARK  1 active torsions:
REMARK  status: ('A' for Active; 'I' for Inactive)
REMARK    1  A    between atoms: O1_1  and  C1_2 
ROOT
HETATM    1  C1  UNL     1      25.580   4.026  49.689  1.00  0.00     0.068 A 
HETATM    2  C2  UNL     1      24.813   5.144  49.446  1.00  0.00     0.037 A 
HETATM    3  C3  UNL     1      25.462   6.196  48.798  1.00  0.00     0.014 A 
HETATM    4  C4  UNL     1      26.776   6.226  48.384  1.00  0.00    -0.006 A 
HETATM    5  C5  UNL     1      27.484   5.054  48.670  1.00  0.00     0.088 A 
HETATM    6  C6  UNL     1      26.901   3.990  49.303  1.00  0.00     0.074 A 
HETATM    7  O2  UNL     1      28.842   4.885  48.328  1.00  0.00    -0.289 OA
HETATM    8  C7  UNL     1      29.852   5.866  48.283  1.00  0.00     0.199 C 
HETATM    9  N1  UNL     1      30.915   5.175  48.593  1.00  0.00    -0.216 NA
HETATM   10  C8  UNL     1      32.305   5.440  48.756  1.00  0.00     0.232 C 
HETATM   11  N2  UNL     1      33.073   6.338  48.238  1.00  0.00    -0.250 NA
HETATM   12  C9  UNL     1      33.041   7.460  47.322  1.00  0.00     0.132 C 
HETATM   13  C10 UNL     1      34.285   8.246  47.574  1.00  0.00     0.086 C 
HETATM   14  C11 UNL     1      34.703   9.154  46.505  1.00  0.00     0.021 C 
HETATM   15  C12 UNL     1      34.331   9.553  45.296  1.00  0.00     0.134 C 
HETATM   16  F1  UNL     1      35.032  10.479  44.572  1.00  0.00    -0.205 F 
HETATM   17  C13 UNL     1      33.111   8.996  44.669  1.00  0.00     0.068 C 
HETATM   18 CL1  UNL     1      32.442  10.005  43.383  1.00  0.00    -0.081 Cl
HETATM   19  C14 UNL     1      32.442   7.861  44.919  1.00  0.00     0.005 C 
HETATM   20  C15 UNL     1      32.870   6.897  45.967  1.00  0.00     0.084 C 
HETATM   21  N3  UNL     1      31.915   8.353  47.550  1.00  0.00    -0.369 N 
HETATM   22  C16 UNL     1      30.504   8.260  47.672  1.00  0.00     0.119 C 
HETATM   23  C17 UNL     1      29.665   7.279  47.963  1.00  0.00     0.097 C 
HETATM   24  N4  UNL     1      28.424   7.967  47.889  1.00  0.00    -0.381 N 
HETATM   25  C18 UNL     1      27.061   7.528  47.741  1.00  0.00     0.161 C 
HETATM   26  H12 UNL     1      32.176   9.379  47.663  1.00  0.00     0.161 HD
HETATM   27  H14 UNL     1      28.548   9.013  47.959  1.00  0.00     0.160 HD
ENDROOT
BRANCH   1  28
HETATM   28  O1  UNL     1      24.981   2.954  50.331  1.00  0.00    -0.361 OA
HETATM   29  H1  UNL     1      25.427   2.052  50.324  1.00  0.00     0.217 HD
ENDBRANCH   1  28
TORSDOF 1
ENDMDL
MODEL 8
REMARK VINA RESULT:      -8.1      8.626     10.815
REMARK  1 active torsions:
REMARK  status: ('A' for Active; 'I' for Inactive)
REMARK    1  A    between atoms: O1_1  and  C1_2 
ROOT
HETATM    1  C1  UNL     1      34.857   5.516  43.878  1.00  0.00     0.068 A 
HETATM    2  C2  UNL     1      34.987   4.323  44.554  1.00  0.00     0.037 A 
HETATM    3  C3  UNL     1      33.993   4.047  45.494  1.00  0.00     0.014 A 
HETATM    4  C4  UNL     1      32.910   4.839  45.808  1.00  0.00    -0.006 A 
HETATM    5  C5  UNL     1      32.853   6.032  45.078  1.00  0.00     0.088 A 
HETATM    6  C6  UNL     1      33.798   6.356  44.143  1.00  0.00     0.074 A 
HETATM    7  O2  UNL     1      31.822   6.979  45.250  1.00  0.00    -0.289 OA
HETATM    8  C7  UNL     1      31.126   7.294  46.434  1.00  0.00     0.199 C 
HETATM    9  N1  UNL     1      30.845   8.556  46.255  1.00  0.00    -0.216 NA
HETATM   10  C8  UNL     1      30.171   9.575  46.986  1.00  0.00     0.232 C 
HETATM   11  N2  UNL     1      29.231   9.519  47.868  1.00  0.00    -0.250 NA
HETATM   12  C9  UNL     1      28.395   8.566  48.568  1.00  0.00     0.132 C 
HETATM   13  C10 UNL     1      27.828   9.287  49.746  1.00  0.00     0.086 C 
HETATM   14  C11 UNL     1      26.632   8.698  50.350  1.00  0.00     0.021 C 
HETATM   15  C12 UNL     1      25.812   7.666  50.203  1.00  0.00     0.134 C 
HETATM   16  F1  UNL     1      24.738   7.448  51.022  1.00  0.00    -0.205 F 
HETATM   17  C13 UNL     1      26.036   6.684  49.118  1.00  0.00     0.068 C 
HETATM   18 CL1  UNL     1      25.265   5.119  49.396  1.00  0.00    -0.081 Cl
HETATM   19  C14 UNL     1      26.722   6.793  47.970  1.00  0.00     0.005 C 
HETATM   20  C15 UNL     1      27.429   8.041  47.579  1.00  0.00     0.084 C 
HETATM   21  N3  UNL     1      29.135   7.422  49.079  1.00  0.00    -0.369 N 
HETATM   22  C16 UNL     1      30.039   6.445  48.585  1.00  0.00     0.119 C 
HETATM   23  C17 UNL     1      30.840   6.377  47.534  1.00  0.00     0.097 C 
HETATM   24  N4  UNL     1      31.416   5.093  47.730  1.00  0.00    -0.381 N 
HETATM   25  C18 UNL     1      32.102   4.177  46.856  1.00  0.00     0.161 C 
HETATM   26  H12 UNL     1      28.986   7.222  50.114  1.00  0.00     0.161 HD
HETATM   27  H14 UNL     1      31.308   4.758  48.726  1.00  0.00     0.160 HD
ENDROOT
BRANCH   1  28
HETATM   28  O1  UNL     1      35.819   5.837  42.933  1.00  0.00    -0.361 OA
HETATM   29  H1  UNL     1      36.000   5.208  42.169  1.00  0.00     0.217 HD
ENDBRANCH   1  28
TORSDOF 1
ENDMDL
MODEL 9
REMARK VINA RESULT:      -7.8      2.863      3.359
REMARK  1 active torsions:
REMARK  status: ('A' for Active; 'I' for Inactive)
REMARK    1  A    between atoms: O1_1  and  C1_2 
ROOT
HETATM    1  C1  UNL     1      23.610   7.300  46.822  1.00  0.00     0.068 A 
HETATM    2  C2  UNL     1      24.678   7.791  47.541  1.00  0.00     0.037 A 
HETATM    3  C3  UNL     1      25.026   7.066  48.682  1.00  0.00     0.014 A 
HETATM    4  C4  UNL     1      24.416   5.924  49.152  1.00  0.00    -0.006 A 
HETATM    5  C5  UNL     1      23.341   5.493  48.366  1.00  0.00     0.088 A 
HETATM    6  C6  UNL     1      22.954   6.163  47.237  1.00  0.00     0.074 A 
HETATM    7  O2  UNL     1      22.585   4.344  48.677  1.00  0.00    -0.289 OA
HETATM    8  C7  UNL     1      22.274   3.832  49.952  1.00  0.00     0.199 C 
HETATM    9  N1  UNL     1      21.112   3.275  49.744  1.00  0.00    -0.216 NA
HETATM   10  C8  UNL     1      20.159   2.558  50.523  1.00  0.00     0.232 C 
HETATM   11  N2  UNL     1      20.289   1.830  51.579  1.00  0.00    -0.250 NA
HETATM   12  C9  UNL     1      21.296   1.347  52.502  1.00  0.00     0.132 C 
HETATM   13  C10 UNL     1      20.566   0.877  53.717  1.00  0.00     0.086 C 
HETATM   14  C11 UNL     1      21.292  -0.042  54.592  1.00  0.00     0.021 C 
HETATM   15  C12 UNL     1      22.467  -0.650  54.691  1.00  0.00     0.134 C 
HETATM   16  F1  UNL     1      22.786  -1.487  55.725  1.00  0.00    -0.205 F 
HETATM   17  C13 UNL     1      23.505  -0.440  53.655  1.00  0.00     0.068 C 
HETATM   18 CL1  UNL     1      25.144  -0.815  54.197  1.00  0.00    -0.081 Cl
HETATM   19  C14 UNL     1      23.399  -0.016  52.387  1.00  0.00     0.005 C 
HETATM   20  C15 UNL     1      22.093   0.340  51.772  1.00  0.00     0.084 C 
HETATM   21  N3  UNL     1      22.222   2.384  52.932  1.00  0.00    -0.369 N 
HETATM   22  C16 UNL     1      23.065   3.358  52.335  1.00  0.00     0.119 C 
HETATM   23  C17 UNL     1      23.101   3.946  51.150  1.00  0.00     0.097 C 
HETATM   24  N4  UNL     1      24.229   4.794  51.316  1.00  0.00    -0.381 N 
HETATM   25  C18 UNL     1      25.094   5.476  50.388  1.00  0.00     0.161 C 
HETATM   26  H12 UNL     1      22.331   2.475  53.987  1.00  0.00     0.161 HD
HETATM   27  H14 UNL     1      24.466   4.943  52.334  1.00  0.00     0.160 HD
ENDROOT
BRANCH   1  28
HETATM   28  O1  UNL     1      23.225   7.986  45.680  1.00  0.00    -0.361 OA
HETATM   29  H1  UNL     1      23.211   8.992  45.681  1.00  0.00     0.217 HD
ENDBRANCH   1  28
TORSDOF 1
ENDMDL
