MODEL 1
REMARK VINA RESULT:      -7.5      0.000      0.000
REMARK  4 active torsions:
REMARK  status: ('A' for Active; 'I' for Inactive)
REMARK    1  A    between atoms: C3_6  and  C4_7 
REMARK    2  A    between atoms: C4_7  and  C5_8 
REMARK    3  A    between atoms: C5_8  and  C6_9 
REMARK    4  A    between atoms: C8_12  and  S1_13 
ROOT
HETATM    1  O1  UNL     1      22.019   4.326  52.431  1.00  0.00    -0.270 OA
HETATM    2  C1  UNL     1      22.880   4.244  51.480  1.00  0.00     0.259 C 
HETATM    3  C2  UNL     1      22.733   4.264  49.947  1.00  0.00     0.216 C 
HETATM    4  N1  UNL     1      23.395   2.994  49.497  1.00  0.00    -0.223 NA
HETATM    5  N2  UNL     1      23.680   2.453  50.796  1.00  0.00    -0.262 N 
HETATM    6  C3  UNL     1      22.738   1.584  51.373  1.00  0.00     0.057 C 
HETATM    7  C7  UNL     1      22.857   0.530  52.326  1.00  0.00    -0.028 A 
HETATM    8  C8  UNL     1      23.121  -0.369  53.193  1.00  0.00     0.179 A 
HETATM    9  C9  UNL     1      24.104   0.733  53.112  1.00  0.00     0.058 A 
HETATM   10  C10 UNL     1      25.083   0.479  54.020  1.00  0.00    -0.020 C 
HETATM   11  C11 UNL     1      26.304   0.663  54.798  1.00  0.00    -0.024 C 
HETATM   12  C12 UNL     1      27.358  -0.020  54.476  1.00  0.00    -0.019 C 
HETATM   13  C13 UNL     1      27.786   0.042  53.238  1.00  0.00     0.063 C 
HETATM   14  C14 UNL     1      26.933   0.626  52.222  1.00  0.00     0.116 A 
HETATM   15  C15 UNL     1      27.039   1.934  51.829  1.00  0.00    -0.001 A 
HETATM   16 CL1  UNL     1      28.274   1.714  53.038  1.00  0.00    -0.180 Cl
HETATM   17  C16 UNL     1      26.010   2.114  50.824  1.00  0.00     0.127 C 
HETATM   18  C17 UNL     1      24.909   3.075  51.163  1.00  0.00     0.129 C 
HETATM   19  N3  UNL     1      24.273   4.106  51.594  1.00  0.00    -0.198 NA
HETATM   20  H3  UNL     1      22.762   2.435  48.939  1.00  0.00     0.147 HD
ENDROOT
BRANCH   6  21
HETATM   21  C4  UNL     1      21.462   1.472  51.106  1.00  0.00     0.033 C 
BRANCH  21  22
HETATM   22  C5  UNL     1      20.141   0.986  50.683  1.00  0.00     0.032 C 
BRANCH  22  23
HETATM   23  C6  UNL     1      19.311   0.315  51.505  1.00  0.00     0.188 C 
HETATM   24  F1  UNL     1      18.335  -0.449  51.022  1.00  0.00    -0.219 F 
ENDBRANCH  22  23
ENDBRANCH  21  22
ENDBRANCH   6  21
BRANCH   8  25
HETATM   25  S1  UNL     1      22.006  -1.607  53.908  1.00  0.00    -0.244 SA
HETATM   26  H8  UNL     1      21.635  -1.112  55.199  1.00  0.00     0.082 HD
ENDBRANCH   8  25
TORSDOF 4
ENDMDL
MODEL 2
REMARK VINA RESULT:      -7.5      3.474      5.134
REMARK  4 active torsions:
REMARK  status: ('A' for Active; 'I' for Inactive)
REMARK    1  A    between atoms: C3_6  and  C4_7 
REMARK    2  A    between atoms: C4_7  and  C5_8 
REMARK    3  A    between atoms: C5_8  and  C6_9 
REMARK    4  A    between atoms: C8_12  and  S1_13 
ROOT
HETATM    1  O1  UNL     1      23.269   2.517  48.411  1.00  0.00    -0.270 OA
HETATM    2  C1  UNL     1      22.218   2.991  48.982  1.00  0.00     0.259 C 
HETATM    3  C2  UNL     1      21.651   4.420  49.078  1.00  0.00     0.216 C 
HETATM    4  N1  UNL     1      21.512   4.661  50.553  1.00  0.00    -0.223 NA
HETATM    5  N2  UNL     1      22.105   3.435  51.008  1.00  0.00    -0.262 N 
HETATM    6  C3  UNL     1      23.483   3.429  51.288  1.00  0.00     0.057 C 
HETATM    7  C7  UNL     1      24.284   2.639  52.162  1.00  0.00    -0.028 A 
HETATM    8  C8  UNL     1      24.865   1.844  52.975  1.00  0.00     0.179 A 
HETATM    9  C9  UNL     1      23.569   1.366  52.449  1.00  0.00     0.058 A 
HETATM   10  C10 UNL     1      23.321   0.151  53.006  1.00  0.00    -0.020 C 
HETATM   11  C11 UNL     1      22.631  -1.102  53.298  1.00  0.00    -0.024 C 
HETATM   12  C12 UNL     1      21.979  -1.209  54.413  1.00  0.00    -0.019 C 
HETATM   13  C13 UNL     1      21.075  -0.302  54.696  1.00  0.00     0.063 C 
HETATM   14  C14 UNL     1      21.028   0.919  53.916  1.00  0.00     0.116 A 
HETATM   15  C15 UNL     1      20.184   1.084  52.851  1.00  0.00    -0.001 A 
HETATM   16 CL1  UNL     1      19.854  -0.516  53.457  1.00  0.00    -0.180 Cl
HETATM   17  C16 UNL     1      20.460   2.415  52.349  1.00  0.00     0.127 C 
HETATM   18  C17 UNL     1      21.030   2.499  50.964  1.00  0.00     0.129 C 
HETATM   19  N3  UNL     1      21.248   2.289  49.714  1.00  0.00    -0.198 NA
HETATM   20  H3  UNL     1      22.011   5.497  50.832  1.00  0.00     0.147 HD
ENDROOT
BRANCH   6  21
HETATM   21  C4  UNL     1      24.407   4.243  50.847  1.00  0.00     0.033 C 
BRANCH  21  22
HETATM   22  C5  UNL     1      25.462   4.894  50.057  1.00  0.00     0.032 C 
BRANCH  22  23
HETATM   23  C6  UNL     1      26.447   4.207  49.446  1.00  0.00     0.188 C 
HETATM   24  F1  UNL     1      26.411   2.880  49.363  1.00  0.00    -0.219 F 
ENDBRANCH  22  23
ENDBRANCH  21  22
ENDBRANCH   6  21
BRANCH   8  25
HETATM   25  S1  UNL     1      26.605   1.830  53.489  1.00  0.00    -0.244 SA
HETATM   26  H8  UNL     1      26.822   0.569  54.128  1.00  0.00     0.082 HD
ENDBRANCH   8  25
TORSDOF 4
ENDMDL
MODEL 3
REMARK VINA RESULT:      -7.2      2.412      3.243
REMARK  4 active torsions:
REMARK  status: ('A' for Active; 'I' for Inactive)
REMARK    1  A    between atoms: C3_6  and  C4_7 
REMARK    2  A    between atoms: C4_7  and  C5_8 
REMARK    3  A    between atoms: C5_8  and  C6_9 
REMARK    4  A    between atoms: C8_12  and  S1_13 
ROOT
HETATM    1  O1  UNL     1      18.568   3.180  52.007  1.00  0.00    -0.270 OA
HETATM    2  C1  UNL     1      19.097   3.125  50.836  1.00  0.00     0.259 C 
HETATM    3  C2  UNL     1      18.598   2.537  49.502  1.00  0.00     0.216 C 
HETATM    4  N1  UNL     1      19.680   1.580  49.095  1.00  0.00    -0.223 NA
HETATM    5  N2  UNL     1      20.500   1.702  50.267  1.00  0.00    -0.262 N 
HETATM    6  C3  UNL     1      20.294   0.792  51.318  1.00  0.00     0.057 C 
HETATM    7  C7  UNL     1      21.151   0.293  52.342  1.00  0.00    -0.028 A 
HETATM    8  C8  UNL     1      22.030  -0.047  53.202  1.00  0.00     0.179 A 
HETATM    9  C9  UNL     1      22.272   1.251  52.538  1.00  0.00     0.058 A 
HETATM   10  C10 UNL     1      23.430   1.760  53.037  1.00  0.00    -0.020 C 
HETATM   11  C11 UNL     1      24.537   2.690  53.240  1.00  0.00    -0.024 C 
HETATM   12  C12 UNL     1      25.678   2.431  52.683  1.00  0.00    -0.019 C 
HETATM   13  C13 UNL     1      25.706   2.217  51.389  1.00  0.00     0.063 C 
HETATM   14  C14 UNL     1      24.461   2.000  50.680  1.00  0.00     0.116 A 
HETATM   15  C15 UNL     1      23.796   3.003  50.027  1.00  0.00    -0.001 A 
HETATM   16 CL1  UNL     1      25.222   3.752  50.693  1.00  0.00    -0.180 Cl
HETATM   17  C16 UNL     1      22.611   2.378  49.474  1.00  0.00     0.127 C 
HETATM   18  C17 UNL     1      21.294   2.858  50.009  1.00  0.00     0.129 C 
HETATM   19  N3  UNL     1      20.350   3.618  50.436  1.00  0.00    -0.198 NA
HETATM   20  H3  UNL     1      19.303   0.653  48.941  1.00  0.00     0.147 HD
ENDROOT
BRANCH   6  21
HETATM   21  C4  UNL     1      19.227   0.082  51.584  1.00  0.00     0.033 C 
BRANCH  21  22
HETATM   22  C5  UNL     1      17.906  -0.373  52.040  1.00  0.00     0.032 C 
BRANCH  22  23
HETATM   23  C6  UNL     1      17.739  -1.190  53.098  1.00  0.00     0.188 C 
HETATM   24  F1  UNL     1      18.735  -1.950  53.545  1.00  0.00    -0.219 F 
ENDBRANCH  22  23
ENDBRANCH  21  22
ENDBRANCH   6  21
BRANCH   8  25
HETATM   25  S1  UNL     1      21.899  -1.290  54.517  1.00  0.00    -0.244 SA
HETATM   26  H8  UNL     1      20.511  -1.622  54.616  1.00  0.00     0.082 HD
ENDBRANCH   8  25
TORSDOF 4
ENDMDL
MODEL 4
REMARK VINA RESULT:      -7.2      3.448      4.785
REMARK  4 active torsions:
REMARK  status: ('A' for Active; 'I' for Inactive)
REMARK    1  A    between atoms: C3_6  and  C4_7 
REMARK    2  A    between atoms: C4_7  and  C5_8 
REMARK    3  A    between atoms: C5_8  and  C6_9 
REMARK    4  A    between atoms: C8_12  and  S1_13 
ROOT
HETATM    1  O1  UNL     1      22.394   1.606  47.520  1.00  0.00    -0.270 OA
HETATM    2  C1  UNL     1      21.754   1.702  48.632  1.00  0.00     0.259 C 
HETATM    3  C2  UNL     1      20.433   2.399  49.008  1.00  0.00     0.216 C 
HETATM    4  N1  UNL     1      20.809   3.315  50.136  1.00  0.00    -0.223 NA
HETATM    5  N2  UNL     1      22.224   3.072  50.120  1.00  0.00    -0.262 N 
HETATM    6  C3  UNL     1      23.034   3.927  49.352  1.00  0.00     0.057 C 
HETATM    7  C7  UNL     1      24.403   4.311  49.460  1.00  0.00    -0.028 A 
HETATM    8  C8  UNL     1      25.638   4.545  49.681  1.00  0.00     0.179 A 
HETATM    9  C9  UNL     1      25.130   3.278  50.247  1.00  0.00     0.058 A 
HETATM   10  C10 UNL     1      26.161   2.673  50.894  1.00  0.00    -0.020 C 
HETATM   11  C11 UNL     1      26.888   1.669  51.665  1.00  0.00    -0.024 C 
HETATM   12  C12 UNL     1      27.118   1.895  52.921  1.00  0.00    -0.019 C 
HETATM   13  C13 UNL     1      26.102   2.185  53.698  1.00  0.00     0.063 C 
HETATM   14  C14 UNL     1      24.825   2.518  53.100  1.00  0.00     0.116 A 
HETATM   15  C15 UNL     1      23.826   1.598  52.927  1.00  0.00    -0.001 A 
HETATM   16 CL1  UNL     1      25.129   0.728  53.690  1.00  0.00    -0.180 Cl
HETATM   17  C16 UNL     1      22.745   2.324  52.292  1.00  0.00     0.127 C 
HETATM   18  C17 UNL     1      22.377   1.891  50.903  1.00  0.00     0.129 C 
HETATM   19  N3  UNL     1      22.113   1.162  49.877  1.00  0.00    -0.198 NA
HETATM   20  H3  UNL     1      20.544   4.270  49.930  1.00  0.00     0.147 HD
ENDROOT
BRANCH   6  21
HETATM   21  C4  UNL     1      22.692   4.680  48.338  1.00  0.00     0.033 C 
BRANCH  21  22
HETATM   22  C5  UNL     1      22.533   5.268  47.001  1.00  0.00     0.032 C 
BRANCH  22  23
HETATM   23  C6  UNL     1      21.770   4.708  46.043  1.00  0.00     0.188 C 
HETATM   24  F1  UNL     1      22.239   3.728  45.274  1.00  0.00    -0.219 F 
ENDBRANCH  22  23
ENDBRANCH  21  22
ENDBRANCH   6  21
BRANCH   8  25
HETATM   25  S1  UNL     1      26.734   5.710  48.824  1.00  0.00    -0.244 SA
HETATM   26  H8  UNL     1      27.503   4.930  47.904  1.00  0.00     0.082 HD
ENDBRANCH   8  25
TORSDOF 4
ENDMDL
MODEL 5
REMARK VINA RESULT:      -6.9      2.842      4.019
REMARK  4 active torsions:
REMARK  status: ('A' for Active; 'I' for Inactive)
REMARK    1  A    between atoms: C3_6  and  C4_7 
REMARK    2  A    between atoms: C4_7  and  C5_8 
REMARK    3  A    between atoms: C5_8  and  C6_9 
REMARK    4  A    between atoms: C8_12  and  S1_13 
ROOT
HETATM    1  O1  UNL     1      20.497   1.171  49.631  1.00  0.00    -0.270 OA
HETATM    2  C1  UNL     1      20.549   0.569  50.766  1.00  0.00     0.259 C 
HETATM    3  C2  UNL     1      19.516   0.405  51.897  1.00  0.00     0.216 C 
HETATM    4  N1  UNL     1      20.219   0.931  53.115  1.00  0.00    -0.223 NA
HETATM    5  N2  UNL     1      21.418   1.384  52.467  1.00  0.00    -0.262 N 
HETATM    6  C3  UNL     1      21.475   2.721  52.038  1.00  0.00     0.057 C 
HETATM    7  C7  UNL     1      22.561   3.622  51.833  1.00  0.00    -0.028 A 
HETATM    8  C8  UNL     1      23.632   4.300  51.684  1.00  0.00     0.179 A 
HETATM    9  C9  UNL     1      23.807   2.833  51.632  1.00  0.00     0.058 A 
HETATM   10  C10 UNL     1      25.129   2.581  51.440  1.00  0.00    -0.020 C 
HETATM   11  C11 UNL     1      26.359   1.822  51.242  1.00  0.00    -0.024 C 
HETATM   12  C12 UNL     1      27.167   1.671  52.245  1.00  0.00    -0.019 C 
HETATM   13  C13 UNL     1      26.690   1.174  53.361  1.00  0.00     0.063 C 
HETATM   14  C14 UNL     1      25.255   1.074  53.534  1.00  0.00     0.116 A 
HETATM   15  C15 UNL     1      24.556  -0.074  53.272  1.00  0.00    -0.001 A 
HETATM   16 CL1  UNL     1      26.221  -0.460  52.933  1.00  0.00    -0.180 Cl
HETATM   17  C16 UNL     1      23.171   0.249  53.556  1.00  0.00     0.127 C 
HETATM   18  C17 UNL     1      22.227   0.212  52.390  1.00  0.00     0.129 C 
HETATM   19  N3  UNL     1      21.628  -0.145  51.310  1.00  0.00    -0.198 NA
HETATM   20  H3  UNL     1      19.678   1.665  53.556  1.00  0.00     0.147 HD
ENDROOT
BRANCH   6  21
HETATM   21  C4  UNL     1      20.485   3.537  51.779  1.00  0.00     0.033 C 
BRANCH  21  22
HETATM   22  C5  UNL     1      19.445   4.336  51.117  1.00  0.00     0.032 C 
BRANCH  22  23
HETATM   23  C6  UNL     1      18.156   3.950  51.051  1.00  0.00     0.188 C 
HETATM   24  F1  UNL     1      17.625   3.165  51.985  1.00  0.00    -0.219 F 
ENDBRANCH  22  23
ENDBRANCH  21  22
ENDBRANCH   6  21
BRANCH   8  25
HETATM   25  S1  UNL     1      23.805   6.052  51.248  1.00  0.00    -0.244 SA
HETATM   26  H8  UNL     1      23.939   6.098  49.824  1.00  0.00     0.082 HD
ENDBRANCH   8  25
TORSDOF 4
ENDMDL
MODEL 6
REMARK VINA RESULT:      -6.8      2.771      5.103
REMARK  4 active torsions:
REMARK  status: ('A' for Active; 'I' for Inactive)
REMARK    1  A    between atoms: C3_6  and  C4_7 
REMARK    2  A    between atoms: C4_7  and  C5_8 
REMARK    3  A    between atoms: C5_8  and  C6_9 
REMARK    4  A    between atoms: C8_12  and  S1_13 
ROOT
HETATM    1  O1  UNL     1      26.469  -0.387  51.605  1.00  0.00    -0.270 OA
HETATM    2  C1  UNL     1      26.683   0.821  51.992  1.00  0.00     0.259 C 
HETATM    3  C2  UNL     1      27.096   1.413  53.353  1.00  0.00     0.216 C 
HETATM    4  N1  UNL     1      26.023   2.419  53.656  1.00  0.00    -0.223 NA
HETATM    5  N2  UNL     1      25.177   2.147  52.528  1.00  0.00    -0.262 N 
HETATM    6  C3  UNL     1      24.139   1.212  52.688  1.00  0.00     0.057 C 
HETATM    7  C7  UNL     1      22.881   1.049  52.038  1.00  0.00    -0.028 A 
HETATM    8  C8  UNL     1      21.802   1.026  51.357  1.00  0.00     0.179 A 
HETATM    9  C9  UNL     1      22.936   1.721  50.712  1.00  0.00     0.058 A 
HETATM   10  C10 UNL     1      22.505   2.184  49.509  1.00  0.00    -0.020 C 
HETATM   11  C11 UNL     1      22.543   2.840  48.205  1.00  0.00    -0.024 C 
HETATM   12  C12 UNL     1      22.024   4.022  48.088  1.00  0.00    -0.019 C 
HETATM   13  C13 UNL     1      22.429   4.965  48.904  1.00  0.00     0.063 C 
HETATM   14  C14 UNL     1      23.213   4.605  50.068  1.00  0.00     0.116 A 
HETATM   15  C15 UNL     1      24.581   4.653  50.083  1.00  0.00    -0.001 A 
HETATM   16 CL1  UNL     1      24.118   5.190  48.491  1.00  0.00    -0.180 Cl
HETATM   17  C16 UNL     1      24.964   4.207  51.408  1.00  0.00     0.127 C 
HETATM   18  C17 UNL     1      25.745   2.928  51.479  1.00  0.00     0.129 C 
HETATM   19  N3  UNL     1      26.593   1.995  51.227  1.00  0.00    -0.198 NA
HETATM   20  H3  UNL     1      25.597   2.233  54.555  1.00  0.00     0.147 HD
ENDROOT
BRANCH   6  21
HETATM   21  C4  UNL     1      24.035   0.254  53.574  1.00  0.00     0.033 C 
BRANCH  21  22
HETATM   22  C5  UNL     1      23.540  -0.700  54.576  1.00  0.00     0.032 C 
BRANCH  22  23
HETATM   23  C6  UNL     1      22.229  -0.931  54.782  1.00  0.00     0.188 C 
HETATM   24  F1  UNL     1      21.679  -2.101  54.470  1.00  0.00    -0.219 F 
ENDBRANCH  22  23
ENDBRANCH  21  22
ENDBRANCH   6  21
BRANCH   8  25
HETATM   25  S1  UNL     1      20.364  -0.060  51.561  1.00  0.00    -0.244 SA
HETATM   26  H8  UNL     1      20.639  -1.236  50.794  1.00  0.00     0.082 HD
ENDBRANCH   8  25
TORSDOF 4
ENDMDL
MODEL 7
REMARK VINA RESULT:      -6.8      3.358      4.416
REMARK  4 active torsions:
REMARK  status: ('A' for Active; 'I' for Inactive)
REMARK    1  A    between atoms: C3_6  and  C4_7 
REMARK    2  A    between atoms: C4_7  and  C5_8 
REMARK    3  A    between atoms: C5_8  and  C6_9 
REMARK    4  A    between atoms: C8_12  and  S1_13 
ROOT
HETATM    1  O1  UNL     1      17.715   3.498  51.957  1.00  0.00    -0.270 OA
HETATM    2  C1  UNL     1      18.689   3.391  51.124  1.00  0.00     0.259 C 
HETATM    3  C2  UNL     1      18.738   3.401  49.584  1.00  0.00     0.216 C 
HETATM    4  N1  UNL     1      19.426   2.115  49.230  1.00  0.00    -0.223 NA
HETATM    5  N2  UNL     1      19.533   1.579  50.559  1.00  0.00    -0.262 N 
HETATM    6  C3  UNL     1      18.507   0.733  51.016  1.00  0.00     0.057 C 
HETATM    7  C7  UNL     1      18.482  -0.314  51.983  1.00  0.00    -0.028 A 
HETATM    8  C8  UNL     1      18.616  -1.210  52.882  1.00  0.00     0.179 A 
HETATM    9  C9  UNL     1      19.623  -0.129  52.920  1.00  0.00     0.058 A 
HETATM   10  C10 UNL     1      20.475  -0.394  53.946  1.00  0.00    -0.020 C 
HETATM   11  C11 UNL     1      21.590  -0.227  54.873  1.00  0.00    -0.024 C 
HETATM   12  C12 UNL     1      22.662  -0.932  54.691  1.00  0.00    -0.019 C 
HETATM   13  C13 UNL     1      23.245  -0.890  53.517  1.00  0.00     0.063 C 
HETATM   14  C14 UNL     1      22.540  -0.298  52.398  1.00  0.00     0.116 A 
HETATM   15  C15 UNL     1      22.721   1.004  52.014  1.00  0.00    -0.001 A 
HETATM   16 CL1  UNL     1      23.788   0.771  53.371  1.00  0.00    -0.180 Cl
HETATM   17  C16 UNL     1      21.833   1.196  50.885  1.00  0.00     0.127 C 
HETATM   18  C17 UNL     1      20.717   2.181  51.075  1.00  0.00     0.129 C 
HETATM   19  N3  UNL     1      20.053   3.228  51.415  1.00  0.00    -0.198 NA
HETATM   20  H3  UNL     1      18.858   1.563  48.600  1.00  0.00     0.147 HD
ENDROOT
BRANCH   6  21
HETATM   21  C4  UNL     1      17.273   0.644  50.590  1.00  0.00     0.033 C 
BRANCH  21  22
HETATM   22  C5  UNL     1      15.816   0.486  50.496  1.00  0.00     0.032 C 
BRANCH  22  23
HETATM   23  C6  UNL     1      15.001   0.560  51.566  1.00  0.00     0.188 C 
HETATM   24  F1  UNL     1      15.388   1.170  52.684  1.00  0.00    -0.219 F 
ENDBRANCH  22  23
ENDBRANCH  21  22
ENDBRANCH   6  21
BRANCH   8  25
HETATM   25  S1  UNL     1      17.394  -2.421  53.457  1.00  0.00    -0.244 SA
HETATM   26  H8  UNL     1      16.272  -2.304  52.578  1.00  0.00     0.082 HD
ENDBRANCH   8  25
TORSDOF 4
ENDMDL
MODEL 8
REMARK VINA RESULT:      -6.8      2.821      4.098
REMARK  4 active torsions:
REMARK  status: ('A' for Active; 'I' for Inactive)
REMARK    1  A    between atoms: C3_6  and  C4_7 
REMARK    2  A    between atoms: C4_7  and  C5_8 
REMARK    3  A    between atoms: C5_8  and  C6_9 
REMARK    4  A    between atoms: C8_12  and  S1_13 
ROOT
HETATM    1  O1  UNL     1      22.756   5.147  51.889  1.00  0.00    -0.270 OA
HETATM    2  C1  UNL     1      23.771   4.361  51.814  1.00  0.00     0.259 C 
HETATM    3  C2  UNL     1      24.915   4.245  50.789  1.00  0.00     0.216 C 
HETATM    4  N1  UNL     1      24.859   2.814  50.337  1.00  0.00    -0.223 NA
HETATM    5  N2  UNL     1      23.682   2.427  51.062  1.00  0.00    -0.262 N 
HETATM    6  C3  UNL     1      22.440   2.527  50.410  1.00  0.00     0.057 C 
HETATM    7  C7  UNL     1      21.206   1.832  50.577  1.00  0.00    -0.028 A 
HETATM    8  C8  UNL     1      20.173   1.136  50.855  1.00  0.00     0.179 A 
HETATM    9  C9  UNL     1      21.164   1.251  51.946  1.00  0.00     0.058 A 
HETATM   10  C10 UNL     1      20.695   0.541  53.006  1.00  0.00    -0.020 C 
HETATM   11  C11 UNL     1      20.639  -0.036  54.345  1.00  0.00    -0.024 C 
HETATM   12  C12 UNL     1      20.931  -1.290  54.496  1.00  0.00    -0.019 C 
HETATM   13  C13 UNL     1      22.081  -1.722  54.036  1.00  0.00     0.063 C 
HETATM   14  C14 UNL     1      22.850  -0.877  53.145  1.00  0.00     0.116 A 
HETATM   15  C15 UNL     1      23.862  -0.067  53.585  1.00  0.00    -0.001 A 
HETATM   16 CL1  UNL     1      23.272  -0.880  55.008  1.00  0.00    -0.180 Cl
HETATM   17  C16 UNL     1      24.352   0.609  52.399  1.00  0.00     0.127 C 
HETATM   18  C17 UNL     1      24.172   2.098  52.359  1.00  0.00     0.129 C 
HETATM   19  N3  UNL     1      24.130   3.336  52.704  1.00  0.00    -0.198 NA
HETATM   20  H3  UNL     1      24.770   2.756  49.330  1.00  0.00     0.147 HD
ENDROOT
BRANCH   6  21
HETATM   21  C4  UNL     1      22.116   3.271  49.383  1.00  0.00     0.033 C 
BRANCH  21  22
HETATM   22  C5  UNL     1      21.386   3.993  48.332  1.00  0.00     0.032 C 
BRANCH  22  23
HETATM   23  C6  UNL     1      21.414   3.624  47.037  1.00  0.00     0.188 C 
HETATM   24  F1  UNL     1      22.352   2.799  46.577  1.00  0.00    -0.219 F 
ENDBRANCH  22  23
ENDBRANCH  21  22
ENDBRANCH   6  21
BRANCH   8  25
HETATM   25  S1  UNL     1      18.571   1.108  50.005  1.00  0.00    -0.244 SA
HETATM   26  H8  UNL     1      18.287  -0.268  49.734  1.00  0.00     0.082 HD
ENDBRANCH   8  25
TORSDOF 4
ENDMDL
MODEL 9
REMARK VINA RESULT:      -6.8      3.102      4.749
REMARK  4 active torsions:
REMARK  status: ('A' for Active; 'I' for Inactive)
REMARK    1  A    between atoms: C3_6  and  C4_7 
REMARK    2  A    between atoms: C4_7  and  C5_8 
REMARK    3  A    between atoms: C5_8  and  C6_9 
REMARK    4  A    between atoms: C8_12  and  S1_13 
ROOT
HETATM    1  O1  UNL     1      20.025   2.225  53.072  1.00  0.00    -0.270 OA
HETATM    2  C1  UNL     1      20.019   1.988  51.808  1.00  0.00     0.259 C 
HETATM    3  C2  UNL     1      19.701   0.718  50.995  1.00  0.00     0.216 C 
HETATM    4  N1  UNL     1      20.928   0.501  50.158  1.00  0.00    -0.223 NA
HETATM    5  N2  UNL     1      21.726   1.563  50.703  1.00  0.00    -0.262 N 
HETATM    6  C3  UNL     1      22.585   1.264  51.775  1.00  0.00     0.057 C 
HETATM    7  C7  UNL     1      23.802   1.851  52.227  1.00  0.00    -0.028 A 
HETATM    8  C8  UNL     1      24.868   2.492  52.515  1.00  0.00     0.179 A 
HETATM    9  C9  UNL     1      23.878   3.248  51.719  1.00  0.00     0.058 A 
HETATM   10  C10 UNL     1      24.395   4.483  51.484  1.00  0.00    -0.020 C 
HETATM   11  C11 UNL     1      24.485   5.854  50.992  1.00  0.00    -0.024 C 
HETATM   12  C12 UNL     1      25.201   6.092  49.938  1.00  0.00    -0.019 C 
HETATM   13  C13 UNL     1      24.957   5.404  48.849  1.00  0.00     0.063 C 
HETATM   14  C14 UNL     1      24.111   4.230  48.928  1.00  0.00     0.116 A 
HETATM   15  C15 UNL     1      22.771   4.263  48.646  1.00  0.00    -0.001 A 
HETATM   16 CL1  UNL     1      23.337   5.892  48.391  1.00  0.00    -0.180 Cl
HETATM   17  C16 UNL     1      22.303   2.908  48.859  1.00  0.00     0.127 C 
HETATM   18  C17 UNL     1      21.312   2.712  49.968  1.00  0.00     0.129 C 
HETATM   19  N3  UNL     1      20.318   2.881  50.766  1.00  0.00    -0.198 NA
HETATM   20  H3  UNL     1      21.307  -0.426  50.305  1.00  0.00     0.147 HD
ENDROOT
BRANCH   6  21
HETATM   21  C4  UNL     1      22.513   0.270  52.624  1.00  0.00     0.033 C 
BRANCH  21  22
HETATM   22  C5  UNL     1      22.100  -0.923  53.375  1.00  0.00     0.032 C 
BRANCH  22  23
HETATM   23  C6  UNL     1      21.286  -0.868  54.447  1.00  0.00     0.188 C 
HETATM   24  F1  UNL     1      21.186   0.239  55.178  1.00  0.00    -0.219 F 
ENDBRANCH  22  23
ENDBRANCH  21  22
ENDBRANCH   6  21
BRANCH   8  25
HETATM   25  S1  UNL     1      26.095   2.119  53.798  1.00  0.00    -0.244 SA
HETATM   26  H8  UNL     1      25.923   3.110  54.815  1.00  0.00     0.082 HD
ENDBRANCH   8  25
TORSDOF 4
ENDMDL
