MODEL 1
REMARK VINA RESULT:      -8.0      0.000      0.000
REMARK  4 active torsions:
REMARK  status: ('A' for Active; 'I' for Inactive)
REMARK    1  A    between atoms: C3_3  and  C4_4 
REMARK    2  A    between atoms: C11_11  and  N1_12 
REMARK    3  A    between atoms: N1_12  and  N2_13 
REMARK    4  A    between atoms: N1_12  and  O1_14 
ROOT
HETATM    1  C1  UNL     1      26.552   2.068  51.048  1.00  0.00     0.044 C 
HETATM    2  C2  UNL     1      25.860   1.241  52.085  1.00  0.00    -0.067 A 
HETATM    3  C3  UNL     1      26.511   0.729  53.144  1.00  0.00    -0.047 A 
HETATM    4  C8  UNL     1      25.541  -0.054  53.945  1.00  0.00     0.016 A 
HETATM    5  C9  UNL     1      24.347   0.027  53.326  1.00  0.00    -0.044 A 
HETATM    6  C10 UNL     1      23.110  -0.632  53.817  1.00  0.00     0.067 C 
HETATM    7  C11 UNL     1      21.831  -0.320  53.524  1.00  0.00     0.182 C 
HETATM    8  O2  UNL     1      21.508   0.749  52.655  1.00  0.00    -0.333 OA
HETATM    9  C12 UNL     1      22.182   1.978  52.670  1.00  0.00     0.187 C 
HETATM   10  C13 UNL     1      23.517   2.052  52.068  1.00  0.00    -0.014 C 
HETATM   11  C14 UNL     1      23.380   2.449  50.606  1.00  0.00     0.018 C 
HETATM   12  C15 UNL     1      24.272   3.216  52.734  1.00  0.00     0.018 C 
HETATM   13  C16 UNL     1      24.412   0.860  52.126  1.00  0.00     0.058 A 
ENDROOT
BRANCH   7  14
HETATM   14  N1  UNL     1      20.989  -1.231  54.231  1.00  0.00    -0.165 N 
BRANCH  14  15
HETATM   15  N2  UNL     1      21.773  -2.013  55.109  1.00  0.00    -0.220 NA
HETATM   16  H15 UNL     1      22.770  -1.878  54.823  1.00  0.00     0.145 HD
HETATM   17  H16 UNL     1      21.535  -3.009  54.980  1.00  0.00     0.145 HD
ENDBRANCH  14  15
BRANCH  14  18
HETATM   18  O1  UNL     1      19.669  -1.211  53.972  1.00  0.00    -0.270 OA
HETATM   19  H17 UNL     1      19.413  -2.066  53.525  1.00  0.00     0.246 HD
ENDBRANCH  14  18
ENDBRANCH   7  14
BRANCH   3  20
HETATM   20  C4  UNL     1      27.871   0.721  53.686  1.00  0.00    -0.024 C 
HETATM   21  C5  UNL     1      28.629  -0.383  52.976  1.00  0.00     0.019 C 
HETATM   22  C6  UNL     1      27.778   0.336  55.175  1.00  0.00     0.019 C 
HETATM   23  C7  UNL     1      28.594   2.022  53.659  1.00  0.00     0.019 C 
ENDBRANCH   3  20
TORSDOF 4
ENDMDL
MODEL 2
REMARK VINA RESULT:      -7.6      3.406      5.516
REMARK  4 active torsions:
REMARK  status: ('A' for Active; 'I' for Inactive)
REMARK    1  A    between atoms: C3_3  and  C4_4 
REMARK    2  A    between atoms: C11_11  and  N1_12 
REMARK    3  A    between atoms: N1_12  and  N2_13 
REMARK    4  A    between atoms: N1_12  and  O1_14 
ROOT
HETATM    1  C1  UNL     1      21.863   3.011  52.317  1.00  0.00     0.044 C 
HETATM    2  C2  UNL     1      22.928   2.039  52.716  1.00  0.00    -0.067 A 
HETATM    3  C3  UNL     1      22.642   0.793  53.130  1.00  0.00    -0.047 A 
HETATM    4  C8  UNL     1      23.915   0.117  53.471  1.00  0.00     0.016 A 
HETATM    5  C9  UNL     1      24.912   0.994  53.241  1.00  0.00    -0.044 A 
HETATM    6  C10 UNL     1      26.349   0.697  53.467  1.00  0.00     0.067 C 
HETATM    7  C11 UNL     1      27.420   1.317  52.929  1.00  0.00     0.182 C 
HETATM    8  O2  UNL     1      27.276   2.395  52.025  1.00  0.00    -0.333 OA
HETATM    9  C12 UNL     1      26.302   2.425  51.017  1.00  0.00     0.187 C 
HETATM   10  C13 UNL     1      24.914   2.714  51.393  1.00  0.00    -0.014 C 
HETATM   11  C14 UNL     1      24.677   4.213  51.296  1.00  0.00     0.018 C 
HETATM   12  C15 UNL     1      23.996   2.089  50.328  1.00  0.00     0.018 C 
HETATM   13  C16 UNL     1      24.409   2.266  52.723  1.00  0.00     0.058 A 
ENDROOT
BRANCH   7  14
HETATM   14  N1  UNL     1      28.592   0.683  53.442  1.00  0.00    -0.165 N 
BRANCH  14  15
HETATM   15  N2  UNL     1      28.223  -0.469  54.173  1.00  0.00    -0.220 NA
HETATM   16  H15 UNL     1      27.313  -0.249  54.641  1.00  0.00     0.145 HD
HETATM   17  H16 UNL     1      28.926  -0.643  54.907  1.00  0.00     0.145 HD
ENDBRANCH  14  15
BRANCH  14  18
HETATM   18  O1  UNL     1      29.787   1.238  53.172  1.00  0.00    -0.270 OA
HETATM   19  H17 UNL     1      29.746   1.676  52.276  1.00  0.00     0.246 HD
ENDBRANCH  14  18
ENDBRANCH   7  14
BRANCH   3  20
HETATM   20  C4  UNL     1      21.454  -0.036  53.345  1.00  0.00    -0.024 C 
HETATM   21  C5  UNL     1      20.795   0.450  54.621  1.00  0.00     0.019 C 
HETATM   22  C6  UNL     1      21.932  -1.480  53.590  1.00  0.00     0.019 C 
HETATM   23  C7  UNL     1      20.502  -0.124  52.205  1.00  0.00     0.019 C 
ENDBRANCH   3  20
TORSDOF 4
ENDMDL
MODEL 3
REMARK VINA RESULT:      -7.5      2.781      4.948
REMARK  4 active torsions:
REMARK  status: ('A' for Active; 'I' for Inactive)
REMARK    1  A    between atoms: C3_3  and  C4_4 
REMARK    2  A    between atoms: C11_11  and  N1_12 
REMARK    3  A    between atoms: N1_12  and  N2_13 
REMARK    4  A    between atoms: N1_12  and  O1_14 
ROOT
HETATM    1  C1  UNL     1      20.240   0.993  50.120  1.00  0.00     0.044 C 
HETATM    2  C2  UNL     1      21.549   0.982  50.846  1.00  0.00    -0.067 A 
HETATM    3  C3  UNL     1      22.571   1.779  50.491  1.00  0.00    -0.047 A 
HETATM    4  C8  UNL     1      23.712   1.491  51.391  1.00  0.00     0.016 A 
HETATM    5  C9  UNL     1      23.318   0.531  52.250  1.00  0.00    -0.044 A 
HETATM    6  C10 UNL     1      24.183  -0.039  53.313  1.00  0.00     0.067 C 
HETATM    7  C11 UNL     1      23.803  -0.686  54.435  1.00  0.00     0.182 C 
HETATM    8  O2  UNL     1      22.438  -0.905  54.739  1.00  0.00    -0.333 OA
HETATM    9  C12 UNL     1      21.443   0.059  54.527  1.00  0.00     0.187 C 
HETATM   10  C13 UNL     1      20.974   0.292  53.157  1.00  0.00    -0.014 C 
HETATM   11  C14 UNL     1      19.783  -0.613  52.880  1.00  0.00     0.018 C 
HETATM   12  C15 UNL     1      20.419   1.726  53.086  1.00  0.00     0.018 C 
HETATM   13  C16 UNL     1      21.928   0.135  52.022  1.00  0.00     0.058 A 
ENDROOT
BRANCH   7  14
HETATM   14  N1  UNL     1      24.985  -1.048  55.149  1.00  0.00    -0.165 N 
BRANCH  14  15
HETATM   15  N2  UNL     1      26.098  -0.990  54.280  1.00  0.00    -0.220 NA
HETATM   16  H15 UNL     1      25.727  -0.736  53.334  1.00  0.00     0.145 HD
HETATM   17  H16 UNL     1      26.526  -1.926  54.214  1.00  0.00     0.145 HD
ENDBRANCH  14  15
BRANCH  14  18
HETATM   18  O1  UNL     1      24.870  -1.368  56.450  1.00  0.00    -0.270 OA
HETATM   19  H17 UNL     1      24.925  -0.534  56.995  1.00  0.00     0.246 HD
ENDBRANCH  14  18
ENDBRANCH   7  14
BRANCH   3  20
HETATM   20  C4  UNL     1      22.855   2.800  49.481  1.00  0.00    -0.024 C 
HETATM   21  C5  UNL     1      24.290   3.243  49.685  1.00  0.00     0.019 C 
HETATM   22  C6  UNL     1      21.949   4.011  49.775  1.00  0.00     0.019 C 
HETATM   23  C7  UNL     1      22.565   2.424  48.070  1.00  0.00     0.019 C 
ENDBRANCH   3  20
TORSDOF 4
ENDMDL
MODEL 4
REMARK VINA RESULT:      -7.4      3.409      4.690
REMARK  4 active torsions:
REMARK  status: ('A' for Active; 'I' for Inactive)
REMARK    1  A    between atoms: C3_3  and  C4_4 
REMARK    2  A    between atoms: C11_11  and  N1_12 
REMARK    3  A    between atoms: N1_12  and  N2_13 
REMARK    4  A    between atoms: N1_12  and  O1_14 
ROOT
HETATM    1  C1  UNL     1      23.040  -0.545  53.762  1.00  0.00     0.044 C 
HETATM    2  C2  UNL     1      23.609   0.762  53.307  1.00  0.00    -0.067 A 
HETATM    3  C3  UNL     1      24.926   0.938  53.106  1.00  0.00    -0.047 A 
HETATM    4  C8  UNL     1      25.145   2.344  52.693  1.00  0.00     0.016 A 
HETATM    5  C9  UNL     1      23.941   2.948  52.663  1.00  0.00    -0.044 A 
HETATM    6  C10 UNL     1      23.734   4.373  52.298  1.00  0.00     0.067 C 
HETATM    7  C11 UNL     1      22.601   4.964  51.866  1.00  0.00     0.182 C 
HETATM    8  O2  UNL     1      21.400   4.234  51.702  1.00  0.00    -0.333 OA
HETATM    9  C12 UNL     1      21.358   2.941  51.162  1.00  0.00     0.187 C 
HETATM   10  C13 UNL     1      21.783   1.817  52.002  1.00  0.00    -0.014 C 
HETATM   11  C14 UNL     1      20.572   1.262  52.736  1.00  0.00     0.018 C 
HETATM   12  C15 UNL     1      22.249   0.682  51.073  1.00  0.00     0.018 C 
HETATM   13  C16 UNL     1      22.861   2.026  53.011  1.00  0.00     0.058 A 
ENDROOT
BRANCH   7  14
HETATM   14  N1  UNL     1      22.889   6.344  51.644  1.00  0.00    -0.165 N 
BRANCH  14  15
HETATM   15  N2  UNL     1      24.246   6.598  51.946  1.00  0.00    -0.220 NA
HETATM   16  H15 UNL     1      24.255   7.239  52.773  1.00  0.00     0.145 HD
HETATM   17  H16 UNL     1      24.682   7.093  51.152  1.00  0.00     0.145 HD
ENDBRANCH  14  15
BRANCH  14  18
HETATM   18  O1  UNL     1      21.895   7.141  51.211  1.00  0.00    -0.270 OA
HETATM   19  H17 UNL     1      21.192   6.578  50.782  1.00  0.00     0.246 HD
ENDBRANCH  14  18
ENDBRANCH   7  14
BRANCH   3  20
HETATM   20  C4  UNL     1      26.156   0.150  53.201  1.00  0.00    -0.024 C 
HETATM   21  C5  UNL     1      26.527   0.076  54.669  1.00  0.00     0.019 C 
HETATM   22  C6  UNL     1      27.269   0.934  52.480  1.00  0.00     0.019 C 
HETATM   23  C7  UNL     1      26.129  -1.188  52.548  1.00  0.00     0.019 C 
ENDBRANCH   3  20
TORSDOF 4
ENDMDL
MODEL 5
REMARK VINA RESULT:      -7.1      2.423      3.989
REMARK  4 active torsions:
REMARK  status: ('A' for Active; 'I' for Inactive)
REMARK    1  A    between atoms: C3_3  and  C4_4 
REMARK    2  A    between atoms: C11_11  and  N1_12 
REMARK    3  A    between atoms: N1_12  and  N2_13 
REMARK    4  A    between atoms: N1_12  and  O1_14 
ROOT
HETATM    1  C1  UNL     1      24.676  -0.820  54.633  1.00  0.00     0.044 C 
HETATM    2  C2  UNL     1      24.173   0.270  53.739  1.00  0.00    -0.067 A 
HETATM    3  C3  UNL     1      24.969   0.896  52.857  1.00  0.00    -0.047 A 
HETATM    4  C8  UNL     1      24.165   1.930  52.164  1.00  0.00     0.016 A 
HETATM    5  C9  UNL     1      22.916   1.874  52.666  1.00  0.00    -0.044 A 
HETATM    6  C10 UNL     1      21.806   2.759  52.233  1.00  0.00     0.067 C 
HETATM    7  C11 UNL     1      20.479   2.551  52.364  1.00  0.00     0.182 C 
HETATM    8  O2  UNL     1      19.968   1.380  52.971  1.00  0.00    -0.333 OA
HETATM    9  C12 UNL     1      20.510   0.106  52.755  1.00  0.00     0.187 C 
HETATM   10  C13 UNL     1      21.768  -0.243  53.423  1.00  0.00    -0.014 C 
HETATM   11  C14 UNL     1      21.453  -0.897  54.760  1.00  0.00     0.018 C 
HETATM   12  C15 UNL     1      22.458  -1.337  52.590  1.00  0.00     0.018 C 
HETATM   13  C16 UNL     1      22.782   0.821  53.673  1.00  0.00     0.058 A 
ENDROOT
BRANCH   7  14
HETATM   14  N1  UNL     1      19.805   3.676  51.800  1.00  0.00    -0.165 N 
BRANCH  14  15
HETATM   15  N2  UNL     1      20.751   4.540  51.201  1.00  0.00    -0.220 NA
HETATM   16  H15 UNL     1      21.697   4.172  51.455  1.00  0.00     0.145 HD
HETATM   17  H16 UNL     1      20.654   5.483  51.609  1.00  0.00     0.145 HD
ENDBRANCH  14  15
BRANCH  14  18
HETATM   18  O1  UNL     1      18.467   3.742  51.915  1.00  0.00    -0.270 OA
HETATM   19  H17 UNL     1      18.234   4.426  52.603  1.00  0.00     0.246 HD
ENDBRANCH  14  18
ENDBRANCH   7  14
BRANCH   3  20
HETATM   20  C4  UNL     1      26.368   0.846  52.426  1.00  0.00    -0.024 C 
HETATM   21  C5  UNL     1      27.203   1.417  53.555  1.00  0.00     0.019 C 
HETATM   22  C6  UNL     1      26.518   1.788  51.216  1.00  0.00     0.019 C 
HETATM   23  C7  UNL     1      26.862  -0.478  51.959  1.00  0.00     0.019 C 
ENDBRANCH   3  20
TORSDOF 4
ENDMDL
MODEL 6
REMARK VINA RESULT:      -7.1      1.419      2.001
REMARK  4 active torsions:
REMARK  status: ('A' for Active; 'I' for Inactive)
REMARK    1  A    between atoms: C3_3  and  C4_4 
REMARK    2  A    between atoms: C11_11  and  N1_12 
REMARK    3  A    between atoms: N1_12  and  N2_13 
REMARK    4  A    between atoms: N1_12  and  O1_14 
ROOT
HETATM    1  C1  UNL     1      25.545   2.426  50.931  1.00  0.00     0.044 C 
HETATM    2  C2  UNL     1      24.664   1.554  51.770  1.00  0.00    -0.067 A 
HETATM    3  C3  UNL     1      25.144   0.822  52.790  1.00  0.00    -0.047 A 
HETATM    4  C8  UNL     1      24.018   0.061  53.379  1.00  0.00     0.016 A 
HETATM    5  C9  UNL     1      22.909   0.376  52.683  1.00  0.00    -0.044 A 
HETATM    6  C10 UNL     1      21.563  -0.186  52.963  1.00  0.00     0.067 C 
HETATM    7  C11 UNL     1      20.362   0.321  52.615  1.00  0.00     0.182 C 
HETATM    8  O2  UNL     1      20.250   1.533  51.894  1.00  0.00    -0.333 OA
HETATM    9  C12 UNL     1      21.050   2.654  52.151  1.00  0.00     0.187 C 
HETATM   10  C13 UNL     1      22.440   2.645  51.680  1.00  0.00    -0.014 C 
HETATM   11  C14 UNL     1      22.495   3.256  50.288  1.00  0.00     0.018 C 
HETATM   12  C15 UNL     1      23.248   3.601  52.575  1.00  0.00     0.018 C 
HETATM   13  C16 UNL     1      23.186   1.355  51.632  1.00  0.00     0.058 A 
ENDROOT
BRANCH   7  14
HETATM   14  N1  UNL     1      19.358  -0.569  53.102  1.00  0.00    -0.165 N 
BRANCH  14  15
HETATM   15  N2  UNL     1      18.203  -0.465  52.294  1.00  0.00    -0.220 NA
HETATM   16  H15 UNL     1      18.446   0.179  51.505  1.00  0.00     0.145 HD
HETATM   17  H16 UNL     1      17.445  -0.030  52.841  1.00  0.00     0.145 HD
ENDBRANCH  14  15
BRANCH  14  18
HETATM   18  O1  UNL     1      19.641  -1.319  54.182  1.00  0.00    -0.270 OA
HETATM   19  H17 UNL     1      19.169  -0.937  54.975  1.00  0.00     0.246 HD
ENDBRANCH  14  18
ENDBRANCH   7  14
BRANCH   3  20
HETATM   20  C4  UNL     1      26.433   0.569  53.436  1.00  0.00    -0.024 C 
HETATM   21  C5  UNL     1      26.140  -0.019  54.802  1.00  0.00     0.019 C 
HETATM   22  C6  UNL     1      27.121   1.930  53.655  1.00  0.00     0.019 C 
HETATM   23  C7  UNL     1      27.408  -0.244  52.658  1.00  0.00     0.019 C 
ENDBRANCH   3  20
TORSDOF 4
ENDMDL
MODEL 7
REMARK VINA RESULT:      -6.8      3.932      6.030
REMARK  4 active torsions:
REMARK  status: ('A' for Active; 'I' for Inactive)
REMARK    1  A    between atoms: C3_3  and  C4_4 
REMARK    2  A    between atoms: C11_11  and  N1_12 
REMARK    3  A    between atoms: N1_12  and  N2_13 
REMARK    4  A    between atoms: N1_12  and  O1_14 
ROOT
HETATM    1  C1  UNL     1      24.704  -1.402  53.904  1.00  0.00     0.044 C 
HETATM    2  C2  UNL     1      24.473  -0.175  53.080  1.00  0.00    -0.067 A 
HETATM    3  C3  UNL     1      23.256   0.377  52.943  1.00  0.00    -0.047 A 
HETATM    4  C8  UNL     1      23.380   1.549  52.046  1.00  0.00     0.016 A 
HETATM    5  C9  UNL     1      24.674   1.647  51.686  1.00  0.00    -0.044 A 
HETATM    6  C10 UNL     1      25.209   2.696  50.782  1.00  0.00     0.067 C 
HETATM    7  C11 UNL     1      26.484   3.122  50.665  1.00  0.00     0.182 C 
HETATM    8  O2  UNL     1      27.524   2.573  51.452  1.00  0.00    -0.333 OA
HETATM    9  C12 UNL     1      27.374   2.261  52.810  1.00  0.00     0.187 C 
HETATM   10  C13 UNL     1      26.626   1.052  53.172  1.00  0.00    -0.014 C 
HETATM   11  C14 UNL     1      27.596  -0.115  53.286  1.00  0.00     0.018 C 
HETATM   12  C15 UNL     1      26.064   1.251  54.591  1.00  0.00     0.018 C 
HETATM   13  C16 UNL     1      25.493   0.608  52.311  1.00  0.00     0.058 A 
ENDROOT
BRANCH   7  14
HETATM   14  N1  UNL     1      26.512   4.143  49.669  1.00  0.00    -0.165 N 
BRANCH  14  15
HETATM   15  N2  UNL     1      25.191   4.450  49.271  1.00  0.00    -0.220 NA
HETATM   16  H15 UNL     1      24.587   4.334  50.119  1.00  0.00     0.145 HD
HETATM   17  H16 UNL     1      24.882   3.766  48.563  1.00  0.00     0.145 HD
ENDBRANCH  14  15
BRANCH  14  18
HETATM   18  O1  UNL     1      27.707   4.626  49.284  1.00  0.00    -0.270 OA
HETATM   19  H17 UNL     1      27.648   5.620  49.216  1.00  0.00     0.246 HD
ENDBRANCH  14  18
ENDBRANCH   7  14
BRANCH   3  20
HETATM   20  C4  UNL     1      21.890   0.129  53.409  1.00  0.00    -0.024 C 
HETATM   21  C5  UNL     1      21.301  -0.945  52.515  1.00  0.00     0.019 C 
HETATM   22  C6  UNL     1      21.078   1.418  53.181  1.00  0.00     0.019 C 
HETATM   23  C7  UNL     1      21.738  -0.183  54.857  1.00  0.00     0.019 C 
ENDBRANCH   3  20
TORSDOF 4
ENDMDL
MODEL 8
REMARK VINA RESULT:      -6.8      3.925      5.759
REMARK  4 active torsions:
REMARK  status: ('A' for Active; 'I' for Inactive)
REMARK    1  A    between atoms: C3_3  and  C4_4 
REMARK    2  A    between atoms: C11_11  and  N1_12 
REMARK    3  A    between atoms: N1_12  and  N2_13 
REMARK    4  A    between atoms: N1_12  and  O1_14 
ROOT
HETATM    1  C1  UNL     1      24.146   0.207  53.467  1.00  0.00     0.044 C 
HETATM    2  C2  UNL     1      23.075   0.506  52.465  1.00  0.00    -0.067 A 
HETATM    3  C3  UNL     1      21.792   0.159  52.665  1.00  0.00    -0.047 A 
HETATM    4  C8  UNL     1      21.013   0.574  51.475  1.00  0.00     0.016 A 
HETATM    5  C9  UNL     1      21.870   1.156  50.613  1.00  0.00    -0.044 A 
HETATM    6  C10 UNL     1      21.476   1.704  49.291  1.00  0.00     0.067 C 
HETATM    7  C11 UNL     1      22.128   2.619  48.544  1.00  0.00     0.182 C 
HETATM    8  O2  UNL     1      23.345   3.197  48.974  1.00  0.00    -0.333 OA
HETATM    9  C12 UNL     1      23.584   3.583  50.300  1.00  0.00     0.187 C 
HETATM   10  C13 UNL     1      23.868   2.541  51.292  1.00  0.00    -0.014 C 
HETATM   11  C14 UNL     1      25.373   2.325  51.366  1.00  0.00     0.018 C 
HETATM   12  C15 UNL     1      23.469   3.084  52.676  1.00  0.00     0.018 C 
HETATM   13  C16 UNL     1      23.231   1.201  51.147  1.00  0.00     0.058 A 
ENDROOT
BRANCH   7  14
HETATM   14  N1  UNL     1      21.366   2.831  47.355  1.00  0.00    -0.165 N 
BRANCH  14  15
HETATM   15  N2  UNL     1      20.011   2.514  47.600  1.00  0.00    -0.220 NA
HETATM   16  H15 UNL     1      20.007   1.654  48.197  1.00  0.00     0.145 HD
HETATM   17  H16 UNL     1      19.550   2.284  46.706  1.00  0.00     0.145 HD
ENDBRANCH  14  15
BRANCH  14  18
HETATM   18  O1  UNL     1      22.008   3.269  46.257  1.00  0.00    -0.270 OA
HETATM   19  H17 UNL     1      22.718   2.612  46.012  1.00  0.00     0.246 HD
ENDBRANCH  14  18
ENDBRANCH   7  14
BRANCH   3  20
HETATM   20  C4  UNL     1      20.993  -0.509  53.693  1.00  0.00    -0.024 C 
HETATM   21  C5  UNL     1      19.584  -0.641  53.148  1.00  0.00     0.019 C 
HETATM   22  C6  UNL     1      20.931   0.424  54.917  1.00  0.00     0.019 C 
HETATM   23  C7  UNL     1      21.532  -1.798  54.207  1.00  0.00     0.019 C 
ENDBRANCH   3  20
TORSDOF 4
ENDMDL
MODEL 9
REMARK VINA RESULT:      -6.8      3.569      5.186
REMARK  4 active torsions:
REMARK  status: ('A' for Active; 'I' for Inactive)
REMARK    1  A    between atoms: C3_3  and  C4_4 
REMARK    2  A    between atoms: C11_11  and  N1_12 
REMARK    3  A    between atoms: N1_12  and  N2_13 
REMARK    4  A    between atoms: N1_12  and  O1_14 
ROOT
HETATM    1  C1  UNL     1      25.480  -0.351  53.869  1.00  0.00     0.044 C 
HETATM    2  C2  UNL     1      24.382   0.191  53.009  1.00  0.00    -0.067 A 
HETATM    3  C3  UNL     1      23.086  -0.051  53.267  1.00  0.00    -0.047 A 
HETATM    4  C8  UNL     1      22.276   0.604  52.213  1.00  0.00     0.016 A 
HETATM    5  C9  UNL     1      23.131   1.213  51.368  1.00  0.00    -0.044 A 
HETATM    6  C10 UNL     1      22.709   1.980  50.169  1.00  0.00     0.067 C 
HETATM    7  C11 UNL     1      23.404   2.923  49.499  1.00  0.00     0.182 C 
HETATM    8  O2  UNL     1      24.704   3.310  49.899  1.00  0.00    -0.333 OA
HETATM    9  C12 UNL     1      25.074   3.479  51.240  1.00  0.00     0.187 C 
HETATM   10  C13 UNL     1      25.311   2.284  52.057  1.00  0.00    -0.014 C 
HETATM   11  C14 UNL     1      26.784   1.912  51.975  1.00  0.00     0.018 C 
HETATM   12  C15 UNL     1      25.070   2.662  53.529  1.00  0.00     0.018 C 
HETATM   13  C16 UNL     1      24.522   1.047  51.788  1.00  0.00     0.058 A 
ENDROOT
BRANCH   7  14
HETATM   14  N1  UNL     1      22.590   3.375  48.417  1.00  0.00    -0.165 N 
BRANCH  14  15
HETATM   15  N2  UNL     1      21.970   2.266  47.797  1.00  0.00    -0.220 NA
HETATM   16  H15 UNL     1      22.316   2.242  46.809  1.00  0.00     0.145 HD
HETATM   17  H16 UNL     1      20.950   2.417  47.775  1.00  0.00     0.145 HD
ENDBRANCH  14  15
BRANCH  14  18
HETATM   18  O1  UNL     1      22.539   4.696  48.166  1.00  0.00    -0.270 OA
HETATM   19  H17 UNL     1      23.377   4.970  47.700  1.00  0.00     0.246 HD
ENDBRANCH  14  18
ENDBRANCH   7  14
BRANCH   3  20
HETATM   20  C4  UNL     1      22.291  -0.776  54.260  1.00  0.00    -0.024 C 
HETATM   21  C5  UNL     1      21.612  -1.923  53.537  1.00  0.00     0.019 C 
HETATM   22  C6  UNL     1      21.187   0.175  54.759  1.00  0.00     0.019 C 
HETATM   23  C7  UNL     1      23.015  -1.217  55.484  1.00  0.00     0.019 C 
ENDBRANCH   3  20
TORSDOF 4
ENDMDL
