MODEL 1
REMARK VINA RESULT:      -7.9      0.000      0.000
REMARK  0 active torsions:
REMARK  status: ('A' for Active; 'I' for Inactive)
ROOT
HETATM    1  C1  UNL     1      20.538   0.235  50.825  1.00  0.00     0.053 C 
HETATM    2  C2  UNL     1      21.609   0.971  51.076  1.00  0.00     0.095 C 
HETATM    3  O1  UNL     1      22.536   0.847  52.085  1.00  0.00    -0.349 OA
HETATM    4  C3  UNL     1      22.749  -0.261  52.904  1.00  0.00     0.180 C 
HETATM    5  C4  UNL     1      23.879  -0.057  53.888  1.00  0.00     0.071 C 
HETATM    6  C5  UNL     1      25.168   0.214  53.187  1.00  0.00     0.009 A 
HETATM    7  C6  UNL     1      25.824   1.386  53.106  1.00  0.00     0.041 A 
HETATM    8  C7  UNL     1      26.881   0.735  52.297  1.00  0.00     0.072 A 
HETATM    9  C8  UNL     1      26.226  -0.435  52.379  1.00  0.00     0.127 A 
HETATM   10  F1  UNL     1      26.444  -1.706  51.906  1.00  0.00    -0.205 F 
HETATM   11  N1  UNL     1      25.611   2.710  53.590  1.00  0.00    -0.374 N 
HETATM   12  C9  UNL     1      24.472   3.476  53.206  1.00  0.00     0.229 C 
HETATM   13  N2  UNL     1      24.364   3.702  51.794  1.00  0.00    -0.406 NA
HETATM   14  C10 UNL     1      23.276   4.116  51.234  1.00  0.00     0.438 C 
HETATM   15  N3  UNL     1      22.544   4.180  52.448  1.00  0.00    -0.256 NA
HETATM   16  C11 UNL     1      21.325   3.785  52.361  1.00  0.00     0.085 C 
HETATM   17  C12 UNL     1      20.725   4.041  51.215  1.00  0.00     0.073 C 
HETATM   18  C13 UNL     1      21.350   3.286  50.133  1.00  0.00     0.107 C 
HETATM   19  C14 UNL     1      21.712   2.013  50.086  1.00  0.00     0.134 C 
HETATM   20  O2  UNL     1      22.282   1.572  48.917  1.00  0.00    -0.344 OA
HETATM   21  C15 UNL     1      22.272   2.260  47.680  1.00  0.00     0.202 C 
HETATM   22  C16 UNL     1      22.472   3.729  47.976  1.00  0.00     0.202 C 
HETATM   23  O3  UNL     1      21.571   4.071  49.012  1.00  0.00    -0.346 OA
HETATM   24  H8  UNL     1      26.324   3.134  54.255  1.00  0.00     0.161 HD
ENDROOT
TORSDOF 0
ENDMDL
MODEL 2
REMARK VINA RESULT:      -7.1      9.566     11.688
REMARK  0 active torsions:
REMARK  status: ('A' for Active; 'I' for Inactive)
ROOT
HETATM    1  C1  UNL     1      32.999   6.209  44.369  1.00  0.00     0.053 C 
HETATM    2  C2  UNL     1      32.549   6.319  45.610  1.00  0.00     0.095 C 
HETATM    3  O1  UNL     1      31.840   7.343  46.192  1.00  0.00    -0.349 OA
HETATM    4  C3  UNL     1      31.156   8.372  45.545  1.00  0.00     0.180 C 
HETATM    5  C4  UNL     1      30.456   9.309  46.505  1.00  0.00     0.071 C 
HETATM    6  C5  UNL     1      29.453   8.583  47.338  1.00  0.00     0.009 A 
HETATM    7  C6  UNL     1      29.545   8.274  48.645  1.00  0.00     0.041 A 
HETATM    8  C7  UNL     1      28.213   7.626  48.582  1.00  0.00     0.072 A 
HETATM    9  C8  UNL     1      28.123   7.935  47.278  1.00  0.00     0.127 A 
HETATM   10  F1  UNL     1      27.185   7.732  46.294  1.00  0.00    -0.205 F 
HETATM   11  N1  UNL     1      30.508   8.477  49.676  1.00  0.00    -0.374 N 
HETATM   12  C9  UNL     1      31.822   7.933  49.594  1.00  0.00     0.229 C 
HETATM   13  N2  UNL     1      31.861   6.502  49.489  1.00  0.00    -0.406 NA
HETATM   14  C10 UNL     1      32.918   5.858  49.123  1.00  0.00     0.438 C 
HETATM   15  N3  UNL     1      33.709   7.024  48.958  1.00  0.00    -0.256 NA
HETATM   16  C11 UNL     1      34.488   7.005  47.938  1.00  0.00     0.085 C 
HETATM   17  C12 UNL     1      34.983   5.823  47.623  1.00  0.00     0.073 C 
HETATM   18  C13 UNL     1      33.918   4.924  47.188  1.00  0.00     0.107 C 
HETATM   19  C14 UNL     1      32.914   5.140  46.353  1.00  0.00     0.134 C 
HETATM   20  O2  UNL     1      32.056   4.091  46.128  1.00  0.00    -0.344 OA
HETATM   21  C15 UNL     1      32.288   2.741  46.481  1.00  0.00     0.202 C 
HETATM   22  C16 UNL     1      32.967   2.735  47.832  1.00  0.00     0.202 C 
HETATM   23  O3  UNL     1      34.027   3.670  47.769  1.00  0.00    -0.346 OA
HETATM   24  H8  UNL     1      30.234   9.051  50.528  1.00  0.00     0.161 HD
ENDROOT
TORSDOF 0
ENDMDL
MODEL 3
REMARK VINA RESULT:      -6.7     10.188     12.144
REMARK  0 active torsions:
REMARK  status: ('A' for Active; 'I' for Inactive)
ROOT
HETATM    1  C1  UNL     1      34.474   8.977  46.379  1.00  0.00     0.053 C 
HETATM    2  C2  UNL     1      33.451   8.182  46.653  1.00  0.00     0.095 C 
HETATM    3  O1  UNL     1      32.371   8.403  47.475  1.00  0.00    -0.349 OA
HETATM    4  C3  UNL     1      31.929   9.626  47.979  1.00  0.00     0.180 C 
HETATM    5  C4  UNL     1      30.684   9.498  48.827  1.00  0.00     0.071 C 
HETATM    6  C5  UNL     1      29.551   8.920  48.046  1.00  0.00     0.009 A 
HETATM    7  C6  UNL     1      29.029   7.684  48.156  1.00  0.00     0.041 A 
HETATM    8  C7  UNL     1      28.055   8.004  47.086  1.00  0.00     0.072 A 
HETATM    9  C8  UNL     1      28.576   9.238  46.978  1.00  0.00     0.127 A 
HETATM   10  F1  UNL     1      28.315  10.339  46.198  1.00  0.00    -0.205 F 
HETATM   11  N1  UNL     1      29.289   6.534  48.957  1.00  0.00    -0.374 N 
HETATM   12  C9  UNL     1      30.540   5.855  48.914  1.00  0.00     0.229 C 
HETATM   13  N2  UNL     1      30.889   5.344  47.620  1.00  0.00    -0.406 NA
HETATM   14  C10 UNL     1      32.084   4.960  47.319  1.00  0.00     0.438 C 
HETATM   15  N3  UNL     1      32.621   5.254  48.599  1.00  0.00    -0.256 NA
HETATM   16  C11 UNL     1      33.795   5.773  48.583  1.00  0.00     0.085 C 
HETATM   17  C12 UNL     1      34.589   5.353  47.616  1.00  0.00     0.073 C 
HETATM   18  C13 UNL     1      34.072   5.771  46.316  1.00  0.00     0.107 C 
HETATM   19  C14 UNL     1      33.603   6.947  45.928  1.00  0.00     0.134 C 
HETATM   20  O2  UNL     1      33.184   7.049  44.624  1.00  0.00    -0.344 OA
HETATM   21  C15 UNL     1      33.451   6.116  43.593  1.00  0.00     0.202 C 
HETATM   22  C16 UNL     1      33.347   4.733  44.194  1.00  0.00     0.202 C 
HETATM   23  O3  UNL     1      34.103   4.741  45.389  1.00  0.00    -0.346 OA
HETATM   24  H8  UNL     1      28.523   6.177  49.604  1.00  0.00     0.161 HD
ENDROOT
TORSDOF 0
ENDMDL
MODEL 4
REMARK VINA RESULT:      -6.6      2.772      4.330
REMARK  0 active torsions:
REMARK  status: ('A' for Active; 'I' for Inactive)
ROOT
HETATM    1  C1  UNL     1      26.290   5.620  48.634  1.00  0.00     0.053 C 
HETATM    2  C2  UNL     1      25.456   4.964  49.425  1.00  0.00     0.095 C 
HETATM    3  O1  UNL     1      25.582   3.710  49.976  1.00  0.00    -0.349 OA
HETATM    4  C3  UNL     1      26.746   2.950  50.090  1.00  0.00     0.180 C 
HETATM    5  C4  UNL     1      26.518   1.625  50.784  1.00  0.00     0.071 C 
HETATM    6  C5  UNL     1      25.995   1.820  52.168  1.00  0.00     0.009 A 
HETATM    7  C6  UNL     1      24.745   1.585  52.609  1.00  0.00     0.041 A 
HETATM    8  C7  UNL     1      25.145   2.027  53.966  1.00  0.00     0.072 A 
HETATM    9  C8  UNL     1      26.393   2.261  53.524  1.00  0.00     0.127 A 
HETATM   10  F1  UNL     1      27.556   2.720  54.094  1.00  0.00    -0.205 F 
HETATM   11  N1  UNL     1      23.531   1.110  52.032  1.00  0.00    -0.374 N 
HETATM   12  C9  UNL     1      22.881   1.805  50.973  1.00  0.00     0.229 C 
HETATM   13  N2  UNL     1      22.497   3.149  51.297  1.00  0.00    -0.406 NA
HETATM   14  C10 UNL     1      22.163   4.016  50.401  1.00  0.00     0.438 C 
HETATM   15  N3  UNL     1      22.348   3.126  49.311  1.00  0.00    -0.256 NA
HETATM   16  C11 UNL     1      22.886   3.654  48.272  1.00  0.00     0.085 C 
HETATM   17  C12 UNL     1      22.571   4.916  48.048  1.00  0.00     0.073 C 
HETATM   18  C13 UNL     1      23.097   5.769  49.109  1.00  0.00     0.107 C 
HETATM   19  C14 UNL     1      24.295   5.780  49.672  1.00  0.00     0.134 C 
HETATM   20  O2  UNL     1      24.509   6.711  50.659  1.00  0.00    -0.344 OA
HETATM   21  C15 UNL     1      23.680   7.823  50.942  1.00  0.00     0.202 C 
HETATM   22  C16 UNL     1      22.246   7.371  50.787  1.00  0.00     0.202 C 
HETATM   23  O3  UNL     1      22.157   6.686  49.552  1.00  0.00    -0.346 OA
HETATM   24  H8  UNL     1      23.103   0.212  52.407  1.00  0.00     0.161 HD
ENDROOT
TORSDOF 0
ENDMDL
MODEL 5
REMARK VINA RESULT:      -6.6      3.293      4.891
REMARK  0 active torsions:
REMARK  status: ('A' for Active; 'I' for Inactive)
ROOT
HETATM    1  C1  UNL     1      22.579   2.095  47.769  1.00  0.00     0.053 C 
HETATM    2  C2  UNL     1      22.482   2.879  48.832  1.00  0.00     0.095 C 
HETATM    3  O1  UNL     1      23.449   3.644  49.441  1.00  0.00    -0.349 OA
HETATM    4  C3  UNL     1      24.683   4.023  48.915  1.00  0.00     0.180 C 
HETATM    5  C4  UNL     1      25.481   4.897  49.856  1.00  0.00     0.071 C 
HETATM    6  C5  UNL     1      24.748   6.155  50.183  1.00  0.00     0.009 A 
HETATM    7  C6  UNL     1      24.153   6.476  51.348  1.00  0.00     0.041 A 
HETATM    8  C7  UNL     1      23.738   7.777  50.773  1.00  0.00     0.072 A 
HETATM    9  C8  UNL     1      24.332   7.456  49.612  1.00  0.00     0.127 A 
HETATM   10  F1  UNL     1      24.488   8.077  48.396  1.00  0.00    -0.205 F 
HETATM   11  N1  UNL     1      23.984   5.844  52.614  1.00  0.00    -0.374 N 
HETATM   12  C9  UNL     1      23.282   4.612  52.751  1.00  0.00     0.229 C 
HETATM   13  N2  UNL     1      21.919   4.657  52.307  1.00  0.00    -0.406 NA
HETATM   14  C10 UNL     1      21.221   3.595  52.086  1.00  0.00     0.438 C 
HETATM   15  N3  UNL     1      22.266   2.700  52.434  1.00  0.00    -0.256 NA
HETATM   16  C11 UNL     1      22.353   1.660  51.686  1.00  0.00     0.085 C 
HETATM   17  C12 UNL     1      21.208   1.190  51.229  1.00  0.00     0.073 C 
HETATM   18  C13 UNL     1      20.592   2.148  50.317  1.00  0.00     0.107 C 
HETATM   19  C14 UNL     1      21.129   2.843  49.326  1.00  0.00     0.134 C 
HETATM   20  O2  UNL     1      20.293   3.678  48.626  1.00  0.00    -0.344 OA
HETATM   21  C15 UNL     1      18.879   3.667  48.680  1.00  0.00     0.202 C 
HETATM   22  C16 UNL     1      18.480   3.418  50.117  1.00  0.00     0.202 C 
HETATM   23  O3  UNL     1      19.240   2.315  50.574  1.00  0.00    -0.346 OA
HETATM   24  H8  UNL     1      24.393   6.310  53.478  1.00  0.00     0.161 HD
ENDROOT
TORSDOF 0
ENDMDL
MODEL 6
REMARK VINA RESULT:      -6.5      3.317      5.862
REMARK  0 active torsions:
REMARK  status: ('A' for Active; 'I' for Inactive)
ROOT
HETATM    1  C1  UNL     1      22.019   1.692  48.253  1.00  0.00     0.053 C 
HETATM    2  C2  UNL     1      22.132   2.641  49.169  1.00  0.00     0.095 C 
HETATM    3  O1  UNL     1      22.538   3.947  49.025  1.00  0.00    -0.349 OA
HETATM    4  C3  UNL     1      22.636   4.676  47.840  1.00  0.00     0.180 C 
HETATM    5  C4  UNL     1      23.088   6.102  48.062  1.00  0.00     0.071 C 
HETATM    6  C5  UNL     1      22.140   6.842  48.945  1.00  0.00     0.009 A 
HETATM    7  C6  UNL     1      22.335   7.213  50.225  1.00  0.00     0.041 A 
HETATM    8  C7  UNL     1      20.984   7.823  50.250  1.00  0.00     0.072 A 
HETATM    9  C8  UNL     1      20.791   7.453  48.973  1.00  0.00     0.127 A 
HETATM   10  F1  UNL     1      19.766   7.583  48.067  1.00  0.00    -0.205 F 
HETATM   11  N1  UNL     1      23.390   7.085  51.175  1.00  0.00    -0.374 N 
HETATM   12  C9  UNL     1      23.853   5.812  51.616  1.00  0.00     0.229 C 
HETATM   13  N2  UNL     1      22.847   5.005  52.244  1.00  0.00    -0.406 NA
HETATM   14  C10 UNL     1      22.994   3.739  52.447  1.00  0.00     0.438 C 
HETATM   15  N3  UNL     1      24.290   3.683  51.872  1.00  0.00    -0.256 NA
HETATM   16  C11 UNL     1      24.518   2.640  51.159  1.00  0.00     0.085 C 
HETATM   17  C12 UNL     1      23.931   1.532  51.569  1.00  0.00     0.073 C 
HETATM   18  C13 UNL     1      22.481   1.650  51.451  1.00  0.00     0.107 C 
HETATM   19  C14 UNL     1      21.745   2.111  50.451  1.00  0.00     0.134 C 
HETATM   20  O2  UNL     1      20.382   2.098  50.624  1.00  0.00    -0.344 OA
HETATM   21  C15 UNL     1      19.683   1.399  51.637  1.00  0.00     0.202 C 
HETATM   22  C16 UNL     1      20.490   1.518  52.911  1.00  0.00     0.202 C 
HETATM   23  O3  UNL     1      21.829   1.195  52.587  1.00  0.00    -0.346 OA
HETATM   24  H8  UNL     1      23.840   7.967  51.563  1.00  0.00     0.161 HD
ENDROOT
TORSDOF 0
ENDMDL
MODEL 7
REMARK VINA RESULT:      -6.5     10.886     12.839
REMARK  0 active torsions:
REMARK  status: ('A' for Active; 'I' for Inactive)
ROOT
HETATM    1  C1  UNL     1      35.381   6.894  48.495  1.00  0.00     0.053 C 
HETATM    2  C2  UNL     1      34.219   7.158  47.917  1.00  0.00     0.095 C 
HETATM    3  O1  UNL     1      33.716   8.362  47.481  1.00  0.00    -0.349 OA
HETATM    4  C3  UNL     1      34.424   9.542  47.258  1.00  0.00     0.180 C 
HETATM    5  C4  UNL     1      33.551  10.665  46.745  1.00  0.00     0.071 C 
HETATM    6  C5  UNL     1      32.902  10.302  45.451  1.00  0.00     0.009 A 
HETATM    7  C6  UNL     1      31.606  10.001  45.243  1.00  0.00     0.041 A 
HETATM    8  C7  UNL     1      31.889   9.799  43.801  1.00  0.00     0.072 A 
HETATM    9  C8  UNL     1      33.182  10.100  44.012  1.00  0.00     0.127 A 
HETATM   10  F1  UNL     1      34.301  10.184  43.219  1.00  0.00    -0.205 F 
HETATM   11  N1  UNL     1      30.437   9.910  46.052  1.00  0.00    -0.374 N 
HETATM   12  C9  UNL     1      30.338   8.982  47.128  1.00  0.00     0.229 C 
HETATM   13  N2  UNL     1      30.482   7.609  46.737  1.00  0.00    -0.406 NA
HETATM   14  C10 UNL     1      30.706   6.662  47.585  1.00  0.00     0.438 C 
HETATM   15  N3  UNL     1      30.713   7.521  48.714  1.00  0.00    -0.256 NA
HETATM   16  C11 UNL     1      31.605   7.243  49.595  1.00  0.00     0.085 C 
HETATM   17  C12 UNL     1      31.880   5.961  49.740  1.00  0.00     0.073 C 
HETATM   18  C13 UNL     1      32.499   5.432  48.528  1.00  0.00     0.107 C 
HETATM   19  C14 UNL     1      33.468   5.936  47.781  1.00  0.00     0.134 C 
HETATM   20  O2  UNL     1      33.853   5.204  46.684  1.00  0.00    -0.344 OA
HETATM   21  C15 UNL     1      33.513   3.854  46.429  1.00  0.00     0.202 C 
HETATM   22  C16 UNL     1      32.076   3.659  46.858  1.00  0.00     0.202 C 
HETATM   23  O3  UNL     1      31.949   4.216  48.153  1.00  0.00    -0.346 OA
HETATM   24  H8  UNL     1      29.617  10.555  45.843  1.00  0.00     0.161 HD
ENDROOT
TORSDOF 0
ENDMDL
MODEL 8
REMARK VINA RESULT:      -6.4      9.787     11.036
REMARK  0 active torsions:
REMARK  status: ('A' for Active; 'I' for Inactive)
ROOT
HETATM    1  C1  UNL     1      28.791   5.749  48.198  1.00  0.00     0.053 C 
HETATM    2  C2  UNL     1      29.753   6.503  47.690  1.00  0.00     0.095 C 
HETATM    3  O1  UNL     1      31.081   6.207  47.493  1.00  0.00    -0.349 OA
HETATM    4  C3  UNL     1      31.673   4.944  47.492  1.00  0.00     0.180 C 
HETATM    5  C4  UNL     1      33.158   4.991  47.207  1.00  0.00     0.071 C 
HETATM    6  C5  UNL     1      33.438   5.598  45.873  1.00  0.00     0.009 A 
HETATM    7  C6  UNL     1      33.958   6.814  45.621  1.00  0.00     0.041 A 
HETATM    8  C7  UNL     1      33.866   6.548  44.166  1.00  0.00     0.072 A 
HETATM    9  C8  UNL     1      33.347   5.335  44.419  1.00  0.00     0.127 A 
HETATM   10  F1  UNL     1      32.911   4.284  43.648  1.00  0.00    -0.205 F 
HETATM   11  N1  UNL     1      34.414   7.912  46.408  1.00  0.00    -0.374 N 
HETATM   12  C9  UNL     1      33.545   8.616  47.290  1.00  0.00     0.229 C 
HETATM   13  N2  UNL     1      32.415   9.220  46.645  1.00  0.00    -0.406 NA
HETATM   14  C10 UNL     1      31.384   9.646  47.296  1.00  0.00     0.438 C 
HETATM   15  N3  UNL     1      31.895   9.277  48.567  1.00  0.00    -0.256 NA
HETATM   16  C11 UNL     1      31.026   8.783  49.373  1.00  0.00     0.085 C 
HETATM   17  C12 UNL     1      29.809   9.282  49.271  1.00  0.00     0.073 C 
HETATM   18  C13 UNL     1      29.226   8.943  47.976  1.00  0.00     0.107 C 
HETATM   19  C14 UNL     1      29.208   7.788  47.330  1.00  0.00     0.134 C 
HETATM   20  O2  UNL     1      28.574   7.766  46.112  1.00  0.00    -0.344 OA
HETATM   21  C15 UNL     1      27.713   8.771  45.609  1.00  0.00     0.202 C 
HETATM   22  C16 UNL     1      28.297  10.109  46.004  1.00  0.00     0.202 C 
HETATM   23  O3  UNL     1      28.611  10.034  47.381  1.00  0.00    -0.346 OA
HETATM   24  H8  UNL     1      35.432   8.210  46.330  1.00  0.00     0.161 HD
ENDROOT
TORSDOF 0
ENDMDL
MODEL 9
REMARK VINA RESULT:      -6.3      3.549      4.524
REMARK  0 active torsions:
REMARK  status: ('A' for Active; 'I' for Inactive)
ROOT
HETATM    1  C1  UNL     1      21.979   1.648  48.204  1.00  0.00     0.053 C 
HETATM    2  C2  UNL     1      22.307   2.923  48.347  1.00  0.00     0.095 C 
HETATM    3  O1  UNL     1      23.202   3.500  49.216  1.00  0.00    -0.349 OA
HETATM    4  C3  UNL     1      24.206   2.862  49.944  1.00  0.00     0.180 C 
HETATM    5  C4  UNL     1      25.028   3.818  50.778  1.00  0.00     0.071 C 
HETATM    6  C5  UNL     1      25.700   4.844  49.927  1.00  0.00     0.009 A 
HETATM    7  C6  UNL     1      25.387   6.149  49.819  1.00  0.00     0.041 A 
HETATM    8  C7  UNL     1      26.489   6.329  48.845  1.00  0.00     0.072 A 
HETATM    9  C8  UNL     1      26.800   5.026  48.954  1.00  0.00     0.127 A 
HETATM   10  F1  UNL     1      27.747   4.203  48.393  1.00  0.00    -0.205 F 
HETATM   11  N1  UNL     1      24.411   7.015  50.392  1.00  0.00    -0.374 N 
HETATM   12  C9  UNL     1      23.015   6.804  50.202  1.00  0.00     0.229 C 
HETATM   13  N2  UNL     1      22.598   6.827  48.830  1.00  0.00    -0.406 NA
HETATM   14  C10 UNL     1      21.450   6.380  48.441  1.00  0.00     0.438 C 
HETATM   15  N3  UNL     1      21.031   6.002  49.742  1.00  0.00    -0.256 NA
HETATM   16  C11 UNL     1      20.390   4.891  49.799  1.00  0.00     0.085 C 
HETATM   17  C12 UNL     1      19.628   4.621  48.756  1.00  0.00     0.073 C 
HETATM   18  C13 UNL     1      20.447   4.420  47.564  1.00  0.00     0.107 C 
HETATM   19  C14 UNL     1      21.555   3.714  47.406  1.00  0.00     0.134 C 
HETATM   20  O2  UNL     1      22.114   3.706  46.151  1.00  0.00    -0.344 OA
HETATM   21  C15 UNL     1      21.484   4.146  44.962  1.00  0.00     0.202 C 
HETATM   22  C16 UNL     1      20.689   5.387  45.302  1.00  0.00     0.202 C 
HETATM   23  O3  UNL     1      19.938   5.093  46.465  1.00  0.00    -0.346 OA
HETATM   24  H8  UNL     1      24.739   7.840  50.977  1.00  0.00     0.161 HD
ENDROOT
TORSDOF 0
ENDMDL
