MODEL 1
REMARK VINA RESULT:      -7.4      0.000      0.000
REMARK  5 active torsions:
REMARK  status: ('A' for Active; 'I' for Inactive)
REMARK    1  A    between atoms: C2_2  and  C4_5 
REMARK    2  A    between atoms: C7_8  and  C8_9 
REMARK    3  A    between atoms: C8_9  and  N2_10 
REMARK    4  A    between atoms: C14_18  and  O2_19 
REMARK    5  A    between atoms: O2_19  and  C15_20 
ROOT
HETATM    1  C1  UNL     1      27.376   4.684  48.898  1.00  0.00     0.057 C 
HETATM    2  C2  UNL     1      26.224   4.367  49.430  1.00  0.00     0.038 C 
HETATM    3  C3  UNL     1      25.148   5.146  48.968  1.00  0.00     0.018 C 
HETATM    4  N1  UNL     1      24.232   5.824  48.589  1.00  0.00    -0.096 N 
ENDROOT
BRANCH   2   5
HETATM    5  C4  UNL     1      26.090   3.326  50.425  1.00  0.00     0.081 A 
HETATM    6  C5  UNL     1      25.151   2.535  50.999  1.00  0.00     0.002 A 
HETATM    7  C6  UNL     1      23.696   2.482  50.730  1.00  0.00     0.056 C 
HETATM    8  C18 UNL     1      26.317   2.041  51.744  1.00  0.00     0.068 A 
HETATM    9  C7  UNL     1      22.918   1.462  51.428  1.00  0.00     0.010 A 
HETATM   10  C11 UNL     1      22.524   0.479  52.206  1.00  0.00     0.059 A 
HETATM   11  O1  UNL     1      23.367   0.952  52.209  1.00  0.00     0.000 OA
HETATM   12  C12 UNL     1      23.692   0.090  52.953  1.00  0.00     0.034 A 
HETATM   13  N3  UNL     1      24.499  -0.631  53.815  1.00  0.00    -0.385 N 
HETATM   14  C13 UNL     1      25.784  -0.651  54.492  1.00  0.00     0.184 C 
HETATM   15  H14 UNL     1      23.679  -1.268  53.758  1.00  0.00     0.159 HD
HETATM   16  C14 UNL     1      26.752   0.192  53.667  1.00  0.00     0.066 C 
HETATM   17  C17 UNL     1      26.510   1.060  52.764  1.00  0.00     0.066 C 
HETATM   18  N4  UNL     1      27.160   2.796  51.181  1.00  0.00    -0.247 NA
BRANCH   9  19
HETATM   19  C8  UNL     1      21.509   1.796  51.019  1.00  0.00     0.282 C 
BRANCH  19  20
HETATM   20  N2  UNL     1      21.256   3.182  50.801  1.00  0.00     0.080 N 
HETATM   21  C9  UNL     1      20.321   3.218  49.638  1.00  0.00     0.309 C 
HETATM   22  C10 UNL     1      20.440   3.772  51.885  1.00  0.00     0.309 C 
ENDBRANCH  19  20
ENDBRANCH   9  19
BRANCH  16  23
HETATM   23  O2  UNL     1      28.025   0.603  53.314  1.00  0.00    -0.354 OA
BRANCH  23  24
HETATM   24  C15 UNL     1      29.203   0.359  54.040  1.00  0.00     0.171 C 
HETATM   25  C16 UNL     1      29.779  -1.000  53.596  1.00  0.00     0.034 C 
ENDBRANCH  23  24
ENDBRANCH  16  23
ENDBRANCH   2   5
TORSDOF 5
ENDMDL
MODEL 2
REMARK VINA RESULT:      -7.4      1.967      5.685
REMARK  5 active torsions:
REMARK  status: ('A' for Active; 'I' for Inactive)
REMARK    1  A    between atoms: C2_2  and  C4_5 
REMARK    2  A    between atoms: C7_8  and  C8_9 
REMARK    3  A    between atoms: C8_9  and  N2_10 
REMARK    4  A    between atoms: C14_18  and  O2_19 
REMARK    5  A    between atoms: O2_19  and  C15_20 
ROOT
HETATM    1  C1  UNL     1      26.417   3.005  49.758  1.00  0.00     0.057 C 
HETATM    2  C2  UNL     1      25.372   3.305  50.483  1.00  0.00     0.038 C 
HETATM    3  C3  UNL     1      25.024   4.667  50.447  1.00  0.00     0.018 C 
HETATM    4  N1  UNL     1      24.738   5.834  50.432  1.00  0.00    -0.096 N 
ENDROOT
BRANCH   2   5
HETATM    5  C4  UNL     1      24.665   2.320  51.272  1.00  0.00     0.081 A 
HETATM    6  C5  UNL     1      24.859   1.464  52.304  1.00  0.00     0.002 A 
HETATM    7  C6  UNL     1      26.089   1.232  53.095  1.00  0.00     0.056 C 
HETATM    8  C18 UNL     1      23.448   1.150  52.041  1.00  0.00     0.068 A 
HETATM    9  C7  UNL     1      26.000   0.313  54.227  1.00  0.00     0.010 A 
HETATM   10  C11 UNL     1      25.595  -0.554  55.128  1.00  0.00     0.059 A 
HETATM   11  O1  UNL     1      25.152  -0.274  54.316  1.00  0.00     0.000 OA
HETATM   12  C12 UNL     1      24.236  -0.869  54.773  1.00  0.00     0.034 A 
HETATM   13  N3  UNL     1      22.967  -1.414  54.858  1.00  0.00    -0.385 N 
HETATM   14  C13 UNL     1      21.721  -1.624  54.141  1.00  0.00     0.184 C 
HETATM   15  H14 UNL     1      23.323  -1.635  55.809  1.00  0.00     0.159 HD
HETATM   16  C14 UNL     1      21.602  -0.522  53.093  1.00  0.00     0.066 C 
HETATM   17  C17 UNL     1      22.499   0.251  52.617  1.00  0.00     0.066 C 
HETATM   18  N4  UNL     1      23.310   1.963  51.083  1.00  0.00    -0.247 NA
BRANCH   9  19
HETATM   19  C8  UNL     1      27.430   0.229  54.687  1.00  0.00     0.282 C 
BRANCH  19  20
HETATM   20  N2  UNL     1      28.405   0.374  53.657  1.00  0.00     0.080 N 
HETATM   21  C9  UNL     1      29.410   1.326  54.217  1.00  0.00     0.309 C 
HETATM   22  C10 UNL     1      29.202  -0.859  53.473  1.00  0.00     0.309 C 
ENDBRANCH  19  20
ENDBRANCH   9  19
BRANCH  16  23
HETATM   23  O2  UNL     1      20.880   0.236  52.187  1.00  0.00    -0.354 OA
BRANCH  23  24
HETATM   24  C15 UNL     1      19.565   0.700  52.361  1.00  0.00     0.171 C 
HETATM   25  C16 UNL     1      18.612  -0.510  52.344  1.00  0.00     0.034 C 
ENDBRANCH  23  24
ENDBRANCH  16  23
ENDBRANCH   2   5
TORSDOF 5
ENDMDL
MODEL 3
REMARK VINA RESULT:      -7.0      1.877      4.840
REMARK  5 active torsions:
REMARK  status: ('A' for Active; 'I' for Inactive)
REMARK    1  A    between atoms: C2_2  and  C4_5 
REMARK    2  A    between atoms: C7_8  and  C8_9 
REMARK    3  A    between atoms: C8_9  and  N2_10 
REMARK    4  A    between atoms: C14_18  and  O2_19 
REMARK    5  A    between atoms: O2_19  and  C15_20 
ROOT
HETATM    1  C1  UNL     1      22.705  -1.642  55.332  1.00  0.00     0.057 C 
HETATM    2  C2  UNL     1      22.288  -0.908  54.334  1.00  0.00     0.038 C 
HETATM    3  C3  UNL     1      20.927  -1.083  54.026  1.00  0.00     0.018 C 
HETATM    4  N1  UNL     1      19.769  -1.248  53.750  1.00  0.00    -0.096 N 
ENDROOT
BRANCH   2   5
HETATM    5  C4  UNL     1      23.166  -0.022  53.601  1.00  0.00     0.081 A 
HETATM    6  C5  UNL     1      23.138   1.120  52.873  1.00  0.00     0.002 A 
HETATM    7  C6  UNL     1      21.979   1.978  52.543  1.00  0.00     0.056 C 
HETATM    8  C18 UNL     1      24.579   0.849  52.773  1.00  0.00     0.068 A 
HETATM    9  C7  UNL     1      22.241   3.217  51.814  1.00  0.00     0.010 A 
HETATM   10  C11 UNL     1      22.804   4.209  51.161  1.00  0.00     0.059 A 
HETATM   11  O1  UNL     1      23.180   3.351  51.399  1.00  0.00     0.000 OA
HETATM   12  C12 UNL     1      24.192   3.850  51.038  1.00  0.00     0.034 A 
HETATM   13  N3  UNL     1      25.538   3.959  50.737  1.00  0.00    -0.385 N 
HETATM   14  C13 UNL     1      26.792   3.231  50.649  1.00  0.00     0.184 C 
HETATM   15  H14 UNL     1      25.238   4.943  50.588  1.00  0.00     0.159 HD
HETATM   16  C14 UNL     1      26.703   2.043  51.602  1.00  0.00     0.066 C 
HETATM   17  C17 UNL     1      25.678   1.503  52.137  1.00  0.00     0.066 C 
HETATM   18  N4  UNL     1      24.560  -0.212  53.460  1.00  0.00    -0.247 NA
BRANCH   9  19
HETATM   19  C8  UNL     1      20.854   3.736  51.550  1.00  0.00     0.282 C 
BRANCH  19  20
HETATM   20  N2  UNL     1      19.898   2.744  51.185  1.00  0.00     0.080 N 
HETATM   21  C9  UNL     1      18.580   3.323  51.582  1.00  0.00     0.309 C 
HETATM   22  C10 UNL     1      19.762   2.619  49.717  1.00  0.00     0.309 C 
ENDBRANCH  19  20
ENDBRANCH   9  19
BRANCH  16  23
HETATM   23  O2  UNL     1      27.269   1.021  52.342  1.00  0.00    -0.354 OA
BRANCH  23  24
HETATM   24  C15 UNL     1      28.248   1.166  53.339  1.00  0.00     0.171 C 
HETATM   25  C16 UNL     1      28.602  -0.230  53.886  1.00  0.00     0.034 C 
ENDBRANCH  23  24
ENDBRANCH  16  23
ENDBRANCH   2   5
TORSDOF 5
ENDMDL
MODEL 4
REMARK VINA RESULT:      -7.0      1.885      2.323
REMARK  5 active torsions:
REMARK  status: ('A' for Active; 'I' for Inactive)
REMARK    1  A    between atoms: C2_2  and  C4_5 
REMARK    2  A    between atoms: C7_8  and  C8_9 
REMARK    3  A    between atoms: C8_9  and  N2_10 
REMARK    4  A    between atoms: C14_18  and  O2_19 
REMARK    5  A    between atoms: O2_19  and  C15_20 
ROOT
HETATM    1  C1  UNL     1      25.254   3.941  49.920  1.00  0.00     0.057 C 
HETATM    2  C2  UNL     1      24.344   3.009  50.037  1.00  0.00     0.038 C 
HETATM    3  C3  UNL     1      23.404   2.996  48.991  1.00  0.00     0.018 C 
HETATM    4  N1  UNL     1      22.589   2.996  48.107  1.00  0.00    -0.096 N 
ENDROOT
BRANCH   2   5
HETATM    5  C4  UNL     1      24.301   2.102  51.163  1.00  0.00     0.081 A 
HETATM    6  C5  UNL     1      23.416   1.472  51.971  1.00  0.00     0.002 A 
HETATM    7  C6  UNL     1      21.936   1.527  51.945  1.00  0.00     0.056 C 
HETATM    8  C18 UNL     1      24.650   0.956  52.578  1.00  0.00     0.068 A 
HETATM    9  C7  UNL     1      21.212   0.668  52.878  1.00  0.00     0.010 A 
HETATM   10  C11 UNL     1      20.883  -0.182  53.825  1.00  0.00     0.059 A 
HETATM   11  O1  UNL     1      21.747   0.208  53.636  1.00  0.00     0.000 OA
HETATM   12  C12 UNL     1      22.127  -0.594  54.421  1.00  0.00     0.034 A 
HETATM   13  N3  UNL     1      23.010  -1.288  55.227  1.00  0.00    -0.385 N 
HETATM   14  C13 UNL     1      24.386  -1.354  55.689  1.00  0.00     0.184 C 
HETATM   15  H14 UNL     1      22.147  -1.847  55.380  1.00  0.00     0.159 HD
HETATM   16  C14 UNL     1      25.262  -0.703  54.624  1.00  0.00     0.066 C 
HETATM   17  C17 UNL     1      24.938   0.080  53.669  1.00  0.00     0.066 C 
HETATM   18  N4  UNL     1      25.440   1.561  51.800  1.00  0.00    -0.247 NA
BRANCH   9  19
HETATM   19  C8  UNL     1      19.784   1.086  52.659  1.00  0.00     0.282 C 
BRANCH  19  20
HETATM   20  N2  UNL     1      19.507   1.641  51.375  1.00  0.00     0.080 N 
HETATM   21  C9  UNL     1      18.611   0.646  50.716  1.00  0.00     0.309 C 
HETATM   22  C10 UNL     1      18.643   2.839  51.465  1.00  0.00     0.309 C 
ENDBRANCH  19  20
ENDBRANCH   9  19
BRANCH  16  23
HETATM   23  O2  UNL     1      26.485  -0.455  54.026  1.00  0.00    -0.354 OA
BRANCH  23  24
HETATM   24  C15 UNL     1      27.610   0.112  54.649  1.00  0.00     0.171 C 
HETATM   25  C16 UNL     1      28.864  -0.272  53.839  1.00  0.00     0.034 C 
ENDBRANCH  23  24
ENDBRANCH  16  23
ENDBRANCH   2   5
TORSDOF 5
ENDMDL
MODEL 5
REMARK VINA RESULT:      -6.9      2.305      6.252
REMARK  5 active torsions:
REMARK  status: ('A' for Active; 'I' for Inactive)
REMARK    1  A    between atoms: C2_2  and  C4_5 
REMARK    2  A    between atoms: C7_8  and  C8_9 
REMARK    3  A    between atoms: C8_9  and  N2_10 
REMARK    4  A    between atoms: C14_18  and  O2_19 
REMARK    5  A    between atoms: O2_19  and  C15_20 
ROOT
HETATM    1  C1  UNL     1      23.570   3.519  49.050  1.00  0.00     0.057 C 
HETATM    2  C2  UNL     1      23.897   2.847  50.123  1.00  0.00     0.038 C 
HETATM    3  C3  UNL     1      25.248   2.978  50.489  1.00  0.00     0.018 C 
HETATM    4  N1  UNL     1      26.407   3.074  50.791  1.00  0.00    -0.096 N 
ENDROOT
BRANCH   2   5
HETATM    5  C4  UNL     1      22.949   2.022  50.840  1.00  0.00     0.081 A 
HETATM    6  C5  UNL     1      22.892   1.129  51.857  1.00  0.00     0.002 A 
HETATM    7  C6  UNL     1      23.993   0.628  52.712  1.00  0.00     0.056 C 
HETATM    8  C18 UNL     1      21.467   1.125  51.503  1.00  0.00     0.068 A 
HETATM    9  C7  UNL     1      23.641  -0.269  53.809  1.00  0.00     0.010 A 
HETATM   10  C11 UNL     1      23.006  -1.044  54.660  1.00  0.00     0.059 A 
HETATM   11  O1  UNL     1      22.685  -0.664  53.831  1.00  0.00     0.000 OA
HETATM   12  C12 UNL     1      21.636  -1.058  54.217  1.00  0.00     0.034 A 
HETATM   13  N3  UNL     1      20.278  -1.322  54.211  1.00  0.00    -0.385 N 
HETATM   14  C13 UNL     1      19.064  -1.250  53.417  1.00  0.00     0.184 C 
HETATM   15  H14 UNL     1      20.519  -1.629  55.175  1.00  0.00     0.159 HD
HETATM   16  C14 UNL     1      19.246  -0.132  52.396  1.00  0.00     0.066 C 
HETATM   17  C17 UNL     1      20.315   0.439  51.996  1.00  0.00     0.066 C 
HETATM   18  N4  UNL     1      21.565   1.964  50.562  1.00  0.00    -0.247 NA
BRANCH   9  19
HETATM   19  C8  UNL     1      24.989  -0.661  54.350  1.00  0.00     0.282 C 
BRANCH  19  20
HETATM   20  N2  UNL     1      26.102  -0.227  53.571  1.00  0.00     0.080 N 
HETATM   21  C9  UNL     1      27.109   0.232  54.573  1.00  0.00     0.309 C 
HETATM   22  C10 UNL     1      26.794  -1.359  52.917  1.00  0.00     0.309 C 
ENDBRANCH  19  20
ENDBRANCH   9  19
BRANCH  16  23
HETATM   23  O2  UNL     1      18.760   0.776  51.472  1.00  0.00    -0.354 OA
BRANCH  23  24
HETATM   24  C15 UNL     1      17.565   1.507  51.582  1.00  0.00     0.171 C 
HETATM   25  C16 UNL     1      17.896   3.007  51.464  1.00  0.00     0.034 C 
ENDBRANCH  23  24
ENDBRANCH  16  23
ENDBRANCH   2   5
TORSDOF 5
ENDMDL
MODEL 6
REMARK VINA RESULT:      -6.8      2.322      6.945
REMARK  5 active torsions:
REMARK  status: ('A' for Active; 'I' for Inactive)
REMARK    1  A    between atoms: C2_2  and  C4_5 
REMARK    2  A    between atoms: C7_8  and  C8_9 
REMARK    3  A    between atoms: C8_9  and  N2_10 
REMARK    4  A    between atoms: C14_18  and  O2_19 
REMARK    5  A    between atoms: O2_19  and  C15_20 
ROOT
HETATM    1  C1  UNL     1      20.056   0.254  51.946  1.00  0.00     0.057 C 
HETATM    2  C2  UNL     1      21.085   0.717  52.607  1.00  0.00     0.038 C 
HETATM    3  C3  UNL     1      21.262   0.131  53.873  1.00  0.00     0.018 C 
HETATM    4  N1  UNL     1      21.402  -0.356  54.962  1.00  0.00    -0.096 N 
ENDROOT
BRANCH   2   5
HETATM    5  C4  UNL     1      21.937   1.762  52.082  1.00  0.00     0.081 A 
HETATM    6  C5  UNL     1      23.239   2.017  51.809  1.00  0.00     0.002 A 
HETATM    7  C6  UNL     1      24.414   1.136  51.996  1.00  0.00     0.056 C 
HETATM    8  C18 UNL     1      22.684   3.307  51.378  1.00  0.00     0.068 A 
HETATM    9  C7  UNL     1      25.708   1.627  51.527  1.00  0.00     0.010 A 
HETATM   10  C11 UNL     1      26.685   2.353  51.032  1.00  0.00     0.059 A 
HETATM   11  O1  UNL     1      25.786   2.624  51.262  1.00  0.00     0.000 OA
HETATM   12  C12 UNL     1      26.089   3.620  50.696  1.00  0.00     0.034 A 
HETATM   13  N3  UNL     1      25.967   4.901  50.189  1.00  0.00    -0.385 N 
HETATM   14  C13 UNL     1      25.109   6.072  50.130  1.00  0.00     0.184 C 
HETATM   15  H14 UNL     1      26.888   4.634  49.787  1.00  0.00     0.159 HD
HETATM   16  C14 UNL     1      23.674   5.602  50.349  1.00  0.00     0.066 C 
HETATM   17  C17 UNL     1      23.241   4.507  50.841  1.00  0.00     0.066 C 
HETATM   18  N4  UNL     1      21.481   3.026  51.646  1.00  0.00    -0.247 NA
BRANCH   9  19
HETATM   19  C8  UNL     1      26.650   0.553  51.997  1.00  0.00     0.282 C 
BRANCH  19  20
HETATM   20  N2  UNL     1      26.169  -0.241  53.080  1.00  0.00     0.080 N 
HETATM   21  C9  UNL     1      26.673  -1.617  52.795  1.00  0.00     0.309 C 
HETATM   22  C10 UNL     1      26.848   0.091  54.353  1.00  0.00     0.309 C 
ENDBRANCH  19  20
ENDBRANCH   9  19
BRANCH  16  23
HETATM   23  O2  UNL     1      22.303   5.781  50.289  1.00  0.00    -0.354 OA
BRANCH  23  24
HETATM   24  C15 UNL     1      21.583   6.845  50.858  1.00  0.00     0.171 C 
HETATM   25  C16 UNL     1      21.555   8.011  49.851  1.00  0.00     0.034 C 
ENDBRANCH  23  24
ENDBRANCH  16  23
ENDBRANCH   2   5
TORSDOF 5
ENDMDL
MODEL 7
REMARK VINA RESULT:      -6.4      5.729      9.370
REMARK  5 active torsions:
REMARK  status: ('A' for Active; 'I' for Inactive)
REMARK    1  A    between atoms: C2_2  and  C4_5 
REMARK    2  A    between atoms: C7_8  and  C8_9 
REMARK    3  A    between atoms: C8_9  and  N2_10 
REMARK    4  A    between atoms: C14_18  and  O2_19 
REMARK    5  A    between atoms: O2_19  and  C15_20 
ROOT
HETATM    1  C1  UNL     1      26.218   6.609  48.210  1.00  0.00     0.057 C 
HETATM    2  C2  UNL     1      27.078   5.697  48.583  1.00  0.00     0.038 C 
HETATM    3  C3  UNL     1      26.492   4.579  49.202  1.00  0.00     0.018 C 
HETATM    4  N1  UNL     1      25.994   3.632  49.749  1.00  0.00    -0.096 N 
ENDROOT
BRANCH   2   5
HETATM    5  C4  UNL     1      28.505   5.853  48.396  1.00  0.00     0.081 A 
HETATM    6  C5  UNL     1      29.456   6.814  48.322  1.00  0.00     0.002 A 
HETATM    7  C6  UNL     1      29.299   8.282  48.433  1.00  0.00     0.056 C 
HETATM    8  C18 UNL     1      30.329   5.648  48.130  1.00  0.00     0.068 A 
HETATM    9  C7  UNL     1      30.512   9.094  48.411  1.00  0.00     0.010 A 
HETATM   10  C11 UNL     1      31.755   9.516  48.340  1.00  0.00     0.059 A 
HETATM   11  O1  UNL     1      31.400   8.641  48.134  1.00  0.00     0.000 OA
HETATM   12  C12 UNL     1      32.545   8.340  48.084  1.00  0.00     0.034 A 
HETATM   13  N3  UNL     1      33.660   7.542  47.902  1.00  0.00    -0.385 N 
HETATM   14  C13 UNL     1      34.116   6.225  47.493  1.00  0.00     0.184 C 
HETATM   15  H14 UNL     1      34.114   8.411  48.250  1.00  0.00     0.159 HD
HETATM   16  C14 UNL     1      32.973   5.245  47.738  1.00  0.00     0.066 C 
HETATM   17  C17 UNL     1      31.730   5.471  47.919  1.00  0.00     0.066 C 
HETATM   18  N4  UNL     1      29.410   4.784  48.208  1.00  0.00    -0.247 NA
BRANCH   9  19
HETATM   19  C8  UNL     1      29.963  10.495  48.408  1.00  0.00     0.282 C 
BRANCH  19  20
HETATM   20  N2  UNL     1      28.772  10.674  47.645  1.00  0.00     0.080 N 
HETATM   21  C9  UNL     1      28.076  11.826  48.292  1.00  0.00     0.309 C 
HETATM   22  C10 UNL     1      29.057  11.196  46.289  1.00  0.00     0.309 C 
ENDBRANCH  19  20
ENDBRANCH   9  19
BRANCH  16  23
HETATM   23  O2  UNL     1      32.466   3.967  47.893  1.00  0.00    -0.354 OA
BRANCH  23  24
HETATM   24  C15 UNL     1      33.174   2.768  47.701  1.00  0.00     0.171 C 
HETATM   25  C16 UNL     1      32.388   1.889  46.708  1.00  0.00     0.034 C 
ENDBRANCH  23  24
ENDBRANCH  16  23
ENDBRANCH   2   5
TORSDOF 5
ENDMDL
MODEL 8
REMARK VINA RESULT:      -6.3      2.347      5.001
REMARK  5 active torsions:
REMARK  status: ('A' for Active; 'I' for Inactive)
REMARK    1  A    between atoms: C2_2  and  C4_5 
REMARK    2  A    between atoms: C7_8  and  C8_9 
REMARK    3  A    between atoms: C8_9  and  N2_10 
REMARK    4  A    between atoms: C14_18  and  O2_19 
REMARK    5  A    between atoms: O2_19  and  C15_20 
ROOT
HETATM    1  C1  UNL     1      19.316   0.901  50.285  1.00  0.00     0.057 C 
HETATM    2  C2  UNL     1      20.083   0.606  51.302  1.00  0.00     0.038 C 
HETATM    3  C3  UNL     1      19.428  -0.108  52.321  1.00  0.00     0.018 C 
HETATM    4  N1  UNL     1      18.864  -0.700  53.201  1.00  0.00    -0.096 N 
ENDROOT
BRANCH   2   5
HETATM    5  C4  UNL     1      21.470   1.011  51.373  1.00  0.00     0.081 A 
HETATM    6  C5  UNL     1      22.327   1.919  50.848  1.00  0.00     0.002 A 
HETATM    7  C6  UNL     1      22.056   2.980  49.851  1.00  0.00     0.056 C 
HETATM    8  C18 UNL     1      23.277   1.228  51.730  1.00  0.00     0.068 A 
HETATM    9  C7  UNL     1      23.148   3.893  49.523  1.00  0.00     0.010 A 
HETATM   10  C11 UNL     1      24.308   4.507  49.444  1.00  0.00     0.059 A 
HETATM   11  O1  UNL     1      24.101   3.653  49.848  1.00  0.00     0.000 OA
HETATM   12  C12 UNL     1      25.203   3.743  50.273  1.00  0.00     0.034 A 
HETATM   13  N3  UNL     1      26.354   3.388  50.953  1.00  0.00    -0.385 N 
HETATM   14  C13 UNL     1      27.002   2.328  51.707  1.00  0.00     0.184 C 
HETATM   15  H14 UNL     1      26.602   4.357  50.672  1.00  0.00     0.159 HD
HETATM   16  C14 UNL     1      25.905   1.462  52.319  1.00  0.00     0.066 C 
HETATM   17  C17 UNL     1      24.669   1.376  52.013  1.00  0.00     0.066 C 
HETATM   18  N4  UNL     1      22.443   0.400  52.196  1.00  0.00    -0.247 NA
BRANCH   9  19
HETATM   19  C8  UNL     1      22.556   4.718  48.413  1.00  0.00     0.282 C 
BRANCH  19  20
HETATM   20  N2  UNL     1      21.458   4.115  47.733  1.00  0.00     0.080 N 
HETATM   21  C9  UNL     1      20.527   5.246  47.439  1.00  0.00     0.309 C 
HETATM   22  C10 UNL     1      21.833   3.651  46.379  1.00  0.00     0.309 C 
ENDBRANCH  19  20
ENDBRANCH   9  19
BRANCH  16  23
HETATM   23  O2  UNL     1      25.451   0.513  53.217  1.00  0.00    -0.354 OA
BRANCH  23  24
HETATM   24  C15 UNL     1      26.229  -0.486  53.828  1.00  0.00     0.171 C 
HETATM   25  C16 UNL     1      26.816  -1.391  52.728  1.00  0.00     0.034 C 
ENDBRANCH  23  24
ENDBRANCH  16  23
ENDBRANCH   2   5
TORSDOF 5
ENDMDL
MODEL 9
REMARK VINA RESULT:      -6.1      3.655      5.419
REMARK  5 active torsions:
REMARK  status: ('A' for Active; 'I' for Inactive)
REMARK    1  A    between atoms: C2_2  and  C4_5 
REMARK    2  A    between atoms: C7_8  and  C8_9 
REMARK    3  A    between atoms: C8_9  and  N2_10 
REMARK    4  A    between atoms: C14_18  and  O2_19 
REMARK    5  A    between atoms: O2_19  and  C15_20 
ROOT
HETATM    1  C1  UNL     1      19.243   2.740  48.388  1.00  0.00     0.057 C 
HETATM    2  C2  UNL     1      20.410   2.240  48.703  1.00  0.00     0.038 C 
HETATM    3  C3  UNL     1      21.416   2.500  47.756  1.00  0.00     0.018 C 
HETATM    4  N1  UNL     1      22.272   2.704  46.937  1.00  0.00    -0.096 N 
ENDROOT
BRANCH   2   5
HETATM    5  C4  UNL     1      20.623   1.465  49.906  1.00  0.00     0.081 A 
HETATM    6  C5  UNL     1      19.937   0.763  50.839  1.00  0.00     0.002 A 
HETATM    7  C6  UNL     1      18.479   0.524  50.930  1.00  0.00     0.056 C 
HETATM    8  C18 UNL     1      21.286   0.564  51.385  1.00  0.00     0.068 A 
HETATM    9  C7  UNL     1      18.004  -0.357  51.994  1.00  0.00     0.010 A 
HETATM   10  C11 UNL     1      17.914  -1.151  53.038  1.00  0.00     0.059 A 
HETATM   11  O1  UNL     1      18.668  -0.622  52.743  1.00  0.00     0.000 OA
HETATM   12  C12 UNL     1      19.251  -1.247  53.563  1.00  0.00     0.034 A 
HETATM   13  N3  UNL     1      20.307  -1.667  54.352  1.00  0.00    -0.385 N 
HETATM   14  C13 UNL     1      21.694  -1.414  54.703  1.00  0.00     0.184 C 
HETATM   15  H14 UNL     1      19.587  -2.365  54.626  1.00  0.00     0.159 HD
HETATM   16  C14 UNL     1      22.350  -0.719  53.514  1.00  0.00     0.066 C 
HETATM   17  C17 UNL     1      21.814  -0.120  52.523  1.00  0.00     0.066 C 
HETATM   18  N4  UNL     1      21.887   1.227  50.493  1.00  0.00    -0.247 NA
BRANCH   9  19
HETATM   19  C8  UNL     1      16.510  -0.252  51.858  1.00  0.00     0.282 C 
BRANCH  19  20
HETATM   20  N2  UNL     1      16.021  -0.297  50.519  1.00  0.00     0.080 N 
HETATM   21  C9  UNL     1      15.232  -1.562  50.446  1.00  0.00     0.309 C 
HETATM   22  C10 UNL     1      14.992   0.737  50.270  1.00  0.00     0.309 C 
ENDBRANCH  19  20
ENDBRANCH   9  19
BRANCH  16  23
HETATM   23  O2  UNL     1      23.457  -0.301  52.796  1.00  0.00    -0.354 OA
BRANCH  23  24
HETATM   24  C15 UNL     1      24.559   0.402  53.312  1.00  0.00     0.171 C 
HETATM   25  C16 UNL     1      25.378  -0.553  54.201  1.00  0.00     0.034 C 
ENDBRANCH  23  24
ENDBRANCH  16  23
ENDBRANCH   2   5
TORSDOF 5
ENDMDL
