MODEL 1
REMARK VINA RESULT:      -8.7      0.000      0.000
REMARK  6 active torsions:
REMARK  status: ('A' for Active; 'I' for Inactive)
REMARK    1  A    between atoms: C4_6  and  N3_7 
REMARK    2  A    between atoms: N3_7  and  C5_8 
REMARK    3  A    between atoms: C13_17  and  N4_18 
REMARK       I    between atoms: N4_18  and  C14_19 
REMARK    4  A    between atoms: C14_19  and  C15_21 
REMARK    5  A    between atoms: C15_21  and  C16_22 
REMARK    6  A    between atoms: C16_22  and  N5_23 
ROOT
HETATM    1  N1  UNL     1      26.885  -0.396  55.356  1.00  0.00    -0.191 NA
HETATM    2  C1  UNL     1      26.606   0.230  54.420  1.00  0.00     0.102 C 
HETATM    3  C2  UNL     1      26.263   1.012  53.244  1.00  0.00     0.073 A 
HETATM    4  C3  UNL     1      27.263   1.707  52.575  1.00  0.00     0.142 A 
HETATM    5  N2  UNL     1      26.926   2.423  51.492  1.00  0.00    -0.241 NA
HETATM    6  C4  UNL     1      25.662   2.476  51.050  1.00  0.00     0.139 A 
HETATM    7  C11 UNL     1      24.656   1.799  51.689  1.00  0.00     0.024 A 
HETATM    8  C12 UNL     1      23.343   1.826  51.274  1.00  0.00     0.045 A 
HETATM    9  C13 UNL     1      22.338   1.146  51.923  1.00  0.00     0.035 A 
HETATM   10  C20 UNL     1      22.702   0.405  53.055  1.00  0.00     0.030 A 
HETATM   11  C21 UNL     1      24.021   0.341  53.521  1.00  0.00     0.016 A 
HETATM   12  C22 UNL     1      24.958   1.042  52.821  1.00  0.00     0.000 A 
ENDROOT
BRANCH   6  13
HETATM   13  N3  UNL     1      25.365   3.277  49.898  1.00  0.00    -0.340 N 
HETATM   14  H2  UNL     1      24.673   3.040  49.158  1.00  0.00     0.167 HD
BRANCH  13  15
HETATM   15  C5  UNL     1      25.945   4.523  49.544  1.00  0.00     0.035 A 
HETATM   16  C6  UNL     1      27.171   4.672  48.875  1.00  0.00     0.029 A 
HETATM   17  C7  UNL     1      27.664   5.924  48.585  1.00  0.00     0.004 A 
HETATM   18  C8  UNL     1      27.014   7.085  48.917  1.00  0.00     0.019 A 
HETATM   19  C9  UNL     1      25.817   6.923  49.571  1.00  0.00     0.013 A 
HETATM   20 BR1  UNL     1      24.950   8.590  50.015  1.00  0.00    -0.051 Br
HETATM   21  C10 UNL     1      25.277   5.698  49.887  1.00  0.00     0.048 A 
ENDBRANCH  13  15
ENDBRANCH   6  13
BRANCH   9  22
HETATM   22  N4  UNL     1      20.959   1.094  51.580  1.00  0.00    -0.327 N 
HETATM   23  C14 UNL     1      19.802   1.894  51.893  1.00  0.00     0.223 C 
HETATM   24  O1  UNL     1      20.425   2.719  52.644  1.00  0.00    -0.273 OA
HETATM   25  H8  UNL     1      21.093   0.212  50.979  1.00  0.00     0.169 HD
BRANCH  23  26
HETATM   26  C15 UNL     1      18.672   1.277  51.173  1.00  0.00     0.133 C 
BRANCH  26  27
HETATM   27  C16 UNL     1      18.380  -0.143  51.429  1.00  0.00     0.284 C 
BRANCH  27  28
HETATM   28  N5  UNL     1      17.890  -0.475  52.751  1.00  0.00     0.113 N 
HETATM   29  C17 UNL     1      16.659  -1.256  52.671  1.00  0.00     0.301 C 
HETATM   30  C18 UNL     1      17.074  -2.624  53.083  1.00  0.00     0.200 C 
HETATM   31  O2  UNL     1      18.147  -2.410  53.957  1.00  0.00    -0.361 OA
HETATM   32  C19 UNL     1      18.879  -1.377  53.347  1.00  0.00     0.440 C 
ENDBRANCH  27  28
ENDBRANCH  26  27
ENDBRANCH  23  26
ENDBRANCH   9  22
TORSDOF 6
ENDMDL
MODEL 2
REMARK VINA RESULT:      -8.6      4.243      9.272
REMARK  6 active torsions:
REMARK  status: ('A' for Active; 'I' for Inactive)
REMARK    1  A    between atoms: C4_6  and  N3_7 
REMARK    2  A    between atoms: N3_7  and  C5_8 
REMARK    3  A    between atoms: C13_17  and  N4_18 
REMARK       I    between atoms: N4_18  and  C14_19 
REMARK    4  A    between atoms: C14_19  and  C15_21 
REMARK    5  A    between atoms: C15_21  and  C16_22 
REMARK    6  A    between atoms: C16_22  and  N5_23 
ROOT
HETATM    1  N1  UNL     1      20.545   1.019  49.890  1.00  0.00    -0.191 NA
HETATM    2  C1  UNL     1      21.513   1.254  50.486  1.00  0.00     0.102 C 
HETATM    3  C2  UNL     1      22.726   1.541  51.234  1.00  0.00     0.073 A 
HETATM    4  C3  UNL     1      22.905   0.964  52.484  1.00  0.00     0.142 A 
HETATM    5  N2  UNL     1      24.030   1.241  53.159  1.00  0.00    -0.241 NA
HETATM    6  C4  UNL     1      24.971   2.052  52.654  1.00  0.00     0.139 A 
HETATM    7  C11 UNL     1      24.821   2.634  51.421  1.00  0.00     0.024 A 
HETATM    8  C12 UNL     1      25.758   3.474  50.863  1.00  0.00     0.045 A 
HETATM    9  C13 UNL     1      25.599   4.058  49.626  1.00  0.00     0.035 A 
HETATM   10  C20 UNL     1      24.418   3.762  48.934  1.00  0.00     0.030 A 
HETATM   11  C21 UNL     1      23.431   2.914  49.453  1.00  0.00     0.016 A 
HETATM   12  C22 UNL     1      23.666   2.375  50.683  1.00  0.00     0.000 A 
ENDROOT
BRANCH   6  13
HETATM   13  N3  UNL     1      26.142   2.324  53.435  1.00  0.00    -0.340 N 
HETATM   14  H2  UNL     1      26.295   3.170  54.021  1.00  0.00     0.167 HD
BRANCH  13  15
HETATM   15  C5  UNL     1      27.301   1.513  53.558  1.00  0.00     0.035 A 
HETATM   16  C6  UNL     1      28.559   1.977  53.975  1.00  0.00     0.029 A 
HETATM   17  C7  UNL     1      29.633   1.119  54.051  1.00  0.00     0.004 A 
HETATM   18  C8  UNL     1      29.556  -0.214  53.735  1.00  0.00     0.019 A 
HETATM   19  C9  UNL     1      28.319  -0.651  53.329  1.00  0.00     0.013 A 
HETATM   20 BR1  UNL     1      28.272  -2.533  52.895  1.00  0.00    -0.051 Br
HETATM   21  C10 UNL     1      27.213   0.160  53.234  1.00  0.00     0.048 A 
ENDBRANCH  13  15
ENDBRANCH   6  13
BRANCH   9  22
HETATM   22  N4  UNL     1      26.499   4.927  48.951  1.00  0.00    -0.327 N 
HETATM   23  C14 UNL     1      26.751   6.346  48.973  1.00  0.00     0.223 C 
HETATM   24  O1  UNL     1      25.844   6.617  49.830  1.00  0.00    -0.273 OA
HETATM   25  H8  UNL     1      26.942   4.117  48.399  1.00  0.00     0.169 HD
BRANCH  23  26
HETATM   26  C15 UNL     1      27.857   6.578  48.024  1.00  0.00     0.133 C 
BRANCH  26  27
HETATM   27  C16 UNL     1      29.071   5.759  48.161  1.00  0.00     0.284 C 
BRANCH  27  28
HETATM   28  N5  UNL     1      30.331   6.414  47.868  1.00  0.00     0.113 N 
HETATM   29  C17 UNL     1      30.219   7.859  48.038  1.00  0.00     0.301 C 
HETATM   30  C18 UNL     1      30.997   8.135  49.276  1.00  0.00     0.200 C 
HETATM   31  O2  UNL     1      31.970   7.130  49.304  1.00  0.00    -0.361 OA
HETATM   32  C19 UNL     1      31.276   5.977  48.898  1.00  0.00     0.440 C 
ENDBRANCH  27  28
ENDBRANCH  26  27
ENDBRANCH  23  26
ENDBRANCH   9  22
TORSDOF 6
ENDMDL
MODEL 3
REMARK VINA RESULT:      -8.5      3.612      8.615
REMARK  6 active torsions:
REMARK  status: ('A' for Active; 'I' for Inactive)
REMARK    1  A    between atoms: C4_6  and  N3_7 
REMARK    2  A    between atoms: N3_7  and  C5_8 
REMARK    3  A    between atoms: C13_17  and  N4_18 
REMARK       I    between atoms: N4_18  and  C14_19 
REMARK    4  A    between atoms: C14_19  and  C15_21 
REMARK    5  A    between atoms: C15_21  and  C16_22 
REMARK    6  A    between atoms: C16_22  and  N5_23 
ROOT
HETATM    1  N1  UNL     1      27.914  -1.840  53.131  1.00  0.00    -0.191 NA
HETATM    2  C1  UNL     1      26.913  -1.255  53.078  1.00  0.00     0.102 C 
HETATM    3  C2  UNL     1      25.658  -0.524  53.019  1.00  0.00     0.073 A 
HETATM    4  C3  UNL     1      24.512  -1.098  53.553  1.00  0.00     0.142 A 
HETATM    5  N2  UNL     1      23.364  -0.408  53.488  1.00  0.00    -0.241 NA
HETATM    6  C4  UNL     1      23.306   0.808  52.928  1.00  0.00     0.139 A 
HETATM    7  C11 UNL     1      24.421   1.400  52.395  1.00  0.00     0.024 A 
HETATM    8  C12 UNL     1      24.410   2.646  51.808  1.00  0.00     0.045 A 
HETATM    9  C13 UNL     1      25.534   3.231  51.271  1.00  0.00     0.035 A 
HETATM   10  C20 UNL     1      26.726   2.499  51.342  1.00  0.00     0.030 A 
HETATM   11  C21 UNL     1      26.796   1.229  51.928  1.00  0.00     0.016 A 
HETATM   12  C22 UNL     1      25.638   0.719  52.438  1.00  0.00     0.000 A 
ENDROOT
BRANCH   6  13
HETATM   13  N3  UNL     1      22.042   1.485  52.872  1.00  0.00    -0.340 N 
HETATM   14  H2  UNL     1      21.818   2.387  53.339  1.00  0.00     0.167 HD
BRANCH  13  15
HETATM   15  C5  UNL     1      20.872   1.065  52.187  1.00  0.00     0.035 A 
HETATM   16  C6  UNL     1      20.543   1.429  50.871  1.00  0.00     0.029 A 
HETATM   17  C7  UNL     1      19.376   0.985  50.292  1.00  0.00     0.004 A 
HETATM   18  C8  UNL     1      18.474   0.177  50.937  1.00  0.00     0.019 A 
HETATM   19  C9  UNL     1      18.810  -0.169  52.223  1.00  0.00     0.013 A 
HETATM   20 BR1  UNL     1      17.503  -1.303  53.081  1.00  0.00    -0.051 Br
HETATM   21  C10 UNL     1      19.961   0.245  52.852  1.00  0.00     0.048 A 
ENDBRANCH  13  15
ENDBRANCH   6  13
BRANCH   9  22
HETATM   22  N4  UNL     1      25.640   4.508  50.654  1.00  0.00    -0.327 N 
HETATM   23  C14 UNL     1      25.198   5.073  49.404  1.00  0.00     0.223 C 
HETATM   24  O1  UNL     1      24.655   4.001  48.972  1.00  0.00    -0.273 OA
HETATM   25  H8  UNL     1      26.188   4.917  51.484  1.00  0.00     0.169 HD
BRANCH  23  26
HETATM   26  C15 UNL     1      25.636   6.482  49.416  1.00  0.00     0.133 C 
BRANCH  26  27
HETATM   27  C16 UNL     1      26.833   6.842  48.640  1.00  0.00     0.284 C 
BRANCH  27  28
HETATM   28  N5  UNL     1      27.483   8.088  48.993  1.00  0.00     0.113 N 
HETATM   29  C17 UNL     1      27.304   9.085  47.942  1.00  0.00     0.301 C 
HETATM   30  C18 UNL     1      26.345  10.058  48.530  1.00  0.00     0.200 C 
HETATM   31  O2  UNL     1      26.587   9.991  49.908  1.00  0.00    -0.361 OA
HETATM   32  C19 UNL     1      26.764   8.618  50.153  1.00  0.00     0.440 C 
ENDBRANCH  27  28
ENDBRANCH  26  27
ENDBRANCH  23  26
ENDBRANCH   9  22
TORSDOF 6
ENDMDL
MODEL 4
REMARK VINA RESULT:      -8.5      3.404      6.582
REMARK  6 active torsions:
REMARK  status: ('A' for Active; 'I' for Inactive)
REMARK    1  A    between atoms: C4_6  and  N3_7 
REMARK    2  A    between atoms: N3_7  and  C5_8 
REMARK    3  A    between atoms: C13_17  and  N4_18 
REMARK       I    between atoms: N4_18  and  C14_19 
REMARK    4  A    between atoms: C14_19  and  C15_21 
REMARK    5  A    between atoms: C15_21  and  C16_22 
REMARK    6  A    between atoms: C16_22  and  N5_23 
ROOT
HETATM    1  N1  UNL     1      19.762   3.386  46.469  1.00  0.00    -0.191 NA
HETATM    2  C1  UNL     1      20.707   3.782  47.013  1.00  0.00     0.102 C 
HETATM    3  C2  UNL     1      21.888   4.285  47.696  1.00  0.00     0.073 A 
HETATM    4  C3  UNL     1      22.412   5.517  47.327  1.00  0.00     0.142 A 
HETATM    5  N2  UNL     1      23.501   5.964  47.969  1.00  0.00    -0.241 NA
HETATM    6  C4  UNL     1      24.083   5.253  48.946  1.00  0.00     0.139 A 
HETATM    7  C11 UNL     1      23.586   4.035  49.331  1.00  0.00     0.024 A 
HETATM    8  C12 UNL     1      24.149   3.269  50.327  1.00  0.00     0.045 A 
HETATM    9  C13 UNL     1      23.647   2.045  50.706  1.00  0.00     0.035 A 
HETATM   10  C20 UNL     1      22.511   1.588  50.026  1.00  0.00     0.030 A 
HETATM   11  C21 UNL     1      21.895   2.326  49.006  1.00  0.00     0.016 A 
HETATM   12  C22 UNL     1      22.454   3.529  48.691  1.00  0.00     0.000 A 
ENDROOT
BRANCH   6  13
HETATM   13  N3  UNL     1      25.258   5.778  49.578  1.00  0.00    -0.340 N 
HETATM   14  H2  UNL     1      25.319   6.109  50.563  1.00  0.00     0.167 HD
BRANCH  13  15
HETATM   15  C5  UNL     1      26.543   5.949  48.998  1.00  0.00     0.035 A 
HETATM   16  C6  UNL     1      27.467   4.914  48.786  1.00  0.00     0.029 A 
HETATM   17  C7  UNL     1      28.698   5.177  48.229  1.00  0.00     0.004 A 
HETATM   18  C8  UNL     1      29.102   6.432  47.851  1.00  0.00     0.019 A 
HETATM   19  C9  UNL     1      28.186   7.433  48.065  1.00  0.00     0.013 A 
HETATM   20 BR1  UNL     1      28.810   9.177  47.516  1.00  0.00    -0.051 Br
HETATM   21  C10 UNL     1      26.944   7.229  48.618  1.00  0.00     0.048 A 
ENDBRANCH  13  15
ENDBRANCH   6  13
BRANCH   9  22
HETATM   22  N4  UNL     1      24.138   1.178  51.721  1.00  0.00    -0.327 N 
HETATM   23  C14 UNL     1      23.752   0.879  53.076  1.00  0.00     0.223 C 
HETATM   24  O1  UNL     1      22.773   1.699  53.108  1.00  0.00    -0.273 OA
HETATM   25  H8  UNL     1      24.929   0.811  51.091  1.00  0.00     0.169 HD
BRANCH  23  26
HETATM   26  C15 UNL     1      24.699  -0.148  53.553  1.00  0.00     0.133 C 
BRANCH  26  27
HETATM   27  C16 UNL     1      26.138   0.097  53.369  1.00  0.00     0.284 C 
BRANCH  27  28
HETATM   28  N5  UNL     1      26.790   0.909  54.377  1.00  0.00     0.113 N 
HETATM   29  C17 UNL     1      28.083   0.341  54.748  1.00  0.00     0.301 C 
HETATM   30  C18 UNL     1      29.071   1.277  54.146  1.00  0.00     0.200 C 
HETATM   31  O2  UNL     1      28.412   2.512  54.132  1.00  0.00    -0.361 OA
HETATM   32  C19 UNL     1      27.100   2.191  53.742  1.00  0.00     0.440 C 
ENDBRANCH  27  28
ENDBRANCH  26  27
ENDBRANCH  23  26
ENDBRANCH   9  22
TORSDOF 6
ENDMDL
MODEL 5
REMARK VINA RESULT:      -8.3      1.604      2.517
REMARK  6 active torsions:
REMARK  status: ('A' for Active; 'I' for Inactive)
REMARK    1  A    between atoms: C4_6  and  N3_7 
REMARK    2  A    between atoms: N3_7  and  C5_8 
REMARK    3  A    between atoms: C13_17  and  N4_18 
REMARK       I    between atoms: N4_18  and  C14_19 
REMARK    4  A    between atoms: C14_19  and  C15_21 
REMARK    5  A    between atoms: C15_21  and  C16_22 
REMARK    6  A    between atoms: C16_22  and  N5_23 
ROOT
HETATM    1  N1  UNL     1      28.262  -0.406  55.176  1.00  0.00    -0.191 NA
HETATM    2  C1  UNL     1      27.756   0.236  54.352  1.00  0.00     0.102 C 
HETATM    3  C2  UNL     1      27.127   1.038  53.316  1.00  0.00     0.073 A 
HETATM    4  C3  UNL     1      27.884   1.983  52.637  1.00  0.00     0.142 A 
HETATM    5  N2  UNL     1      27.286   2.714  51.685  1.00  0.00    -0.241 NA
HETATM    6  C4  UNL     1      25.991   2.549  51.381  1.00  0.00     0.139 A 
HETATM    7  C11 UNL     1      25.220   1.622  52.034  1.00  0.00     0.024 A 
HETATM    8  C12 UNL     1      23.887   1.418  51.759  1.00  0.00     0.045 A 
HETATM    9  C13 UNL     1      23.119   0.488  52.422  1.00  0.00     0.035 A 
HETATM   10  C20 UNL     1      23.755  -0.267  53.416  1.00  0.00     0.030 A 
HETATM   11  C21 UNL     1      25.108  -0.102  53.737  1.00  0.00     0.016 A 
HETATM   12  C22 UNL     1      25.799   0.840  53.034  1.00  0.00     0.000 A 
ENDROOT
BRANCH   6  13
HETATM   13  N3  UNL     1      25.406   3.377  50.367  1.00  0.00    -0.340 N 
HETATM   14  H2  UNL     1      24.473   3.232  49.931  1.00  0.00     0.167 HD
BRANCH  13  15
HETATM   15  C5  UNL     1      25.973   4.532  49.767  1.00  0.00     0.035 A 
HETATM   16  C6  UNL     1      27.077   4.521  48.899  1.00  0.00     0.029 A 
HETATM   17  C7  UNL     1      27.568   5.695  48.375  1.00  0.00     0.004 A 
HETATM   18  C8  UNL     1      27.033   6.927  48.654  1.00  0.00     0.019 A 
HETATM   19  C9  UNL     1      25.955   6.921  49.505  1.00  0.00     0.013 A 
HETATM   20 BR1  UNL     1      25.247   8.681  49.862  1.00  0.00    -0.051 Br
HETATM   21  C10 UNL     1      25.423   5.780  50.058  1.00  0.00     0.048 A 
ENDBRANCH  13  15
ENDBRANCH   6  13
BRANCH   9  22
HETATM   22  N4  UNL     1      21.744   0.187  52.215  1.00  0.00    -0.327 N 
HETATM   23  C14 UNL     1      20.512   0.564  52.860  1.00  0.00     0.223 C 
HETATM   24  O1  UNL     1      21.062   1.292  53.755  1.00  0.00    -0.273 OA
HETATM   25  H8  UNL     1      21.961  -0.446  51.373  1.00  0.00     0.169 HD
BRANCH  23  26
HETATM   26  C15 UNL     1      19.435  -0.105  52.106  1.00  0.00     0.133 C 
BRANCH  26  27
HETATM   27  C16 UNL     1      18.445   0.737  51.417  1.00  0.00     0.284 C 
BRANCH  27  28
HETATM   28  N5  UNL     1      18.901   2.036  50.966  1.00  0.00     0.113 N 
HETATM   29  C17 UNL     1      19.315   1.988  49.568  1.00  0.00     0.301 C 
HETATM   30  C18 UNL     1      18.242   2.729  48.850  1.00  0.00     0.200 C 
HETATM   31  O2  UNL     1      17.771   3.651  49.793  1.00  0.00    -0.361 OA
HETATM   32  C19 UNL     1      17.733   2.919  50.992  1.00  0.00     0.440 C 
ENDBRANCH  27  28
ENDBRANCH  26  27
ENDBRANCH  23  26
ENDBRANCH   9  22
TORSDOF 6
ENDMDL
MODEL 6
REMARK VINA RESULT:      -8.1      4.164      8.297
REMARK  6 active torsions:
REMARK  status: ('A' for Active; 'I' for Inactive)
REMARK    1  A    between atoms: C4_6  and  N3_7 
REMARK    2  A    between atoms: N3_7  and  C5_8 
REMARK    3  A    between atoms: C13_17  and  N4_18 
REMARK       I    between atoms: N4_18  and  C14_19 
REMARK    4  A    between atoms: C14_19  and  C15_21 
REMARK    5  A    between atoms: C15_21  and  C16_22 
REMARK    6  A    between atoms: C16_22  and  N5_23 
ROOT
HETATM    1  N1  UNL     1      20.383   0.767  50.474  1.00  0.00    -0.191 NA
HETATM    2  C1  UNL     1      21.384   1.024  51.002  1.00  0.00     0.102 C 
HETATM    3  C2  UNL     1      22.638   1.338  51.665  1.00  0.00     0.073 A 
HETATM    4  C3  UNL     1      22.964   0.684  52.846  1.00  0.00     0.142 A 
HETATM    5  N2  UNL     1      24.126   0.988  53.443  1.00  0.00    -0.241 NA
HETATM    6  C4  UNL     1      24.965   1.897  52.927  1.00  0.00     0.139 A 
HETATM    7  C11 UNL     1      24.669   2.557  51.762  1.00  0.00     0.024 A 
HETATM    8  C12 UNL     1      25.498   3.499  51.195  1.00  0.00     0.045 A 
HETATM    9  C13 UNL     1      25.192   4.160  50.027  1.00  0.00     0.035 A 
HETATM   10  C20 UNL     1      23.975   3.836  49.415  1.00  0.00     0.030 A 
HETATM   11  C21 UNL     1      23.094   2.885  49.946  1.00  0.00     0.016 A 
HETATM   12  C22 UNL     1      23.471   2.274  51.106  1.00  0.00     0.000 A 
ENDROOT
BRANCH   6  13
HETATM   13  N3  UNL     1      26.182   2.192  53.626  1.00  0.00    -0.340 N 
HETATM   14  H2  UNL     1      26.349   3.025  54.226  1.00  0.00     0.167 HD
BRANCH  13  15
HETATM   15  C5  UNL     1      27.376   1.424  53.634  1.00  0.00     0.035 A 
HETATM   16  C6  UNL     1      28.655   1.939  53.900  1.00  0.00     0.029 A 
HETATM   17  C7  UNL     1      29.761   1.120  53.872  1.00  0.00     0.004 A 
HETATM   18  C8  UNL     1      29.698  -0.221  53.590  1.00  0.00     0.019 A 
HETATM   19  C9  UNL     1      28.441  -0.709  53.331  1.00  0.00     0.013 A 
HETATM   20 BR1  UNL     1      28.415  -2.600  52.939  1.00  0.00    -0.051 Br
HETATM   21  C10 UNL     1      27.302   0.062  53.345  1.00  0.00     0.048 A 
ENDBRANCH  13  15
ENDBRANCH   6  13
BRANCH   9  22
HETATM   22  N4  UNL     1      25.972   5.138  49.350  1.00  0.00    -0.327 N 
HETATM   23  C14 UNL     1      27.257   5.140  48.698  1.00  0.00     0.223 C 
HETATM   24  O1  UNL     1      27.519   3.913  48.941  1.00  0.00    -0.273 OA
HETATM   25  H8  UNL     1      25.232   5.903  49.503  1.00  0.00     0.169 HD
BRANCH  23  26
HETATM   26  C15 UNL     1      27.450   6.508  48.180  1.00  0.00     0.133 C 
BRANCH  26  27
HETATM   27  C16 UNL     1      26.911   7.629  48.966  1.00  0.00     0.284 C 
BRANCH  27  28
HETATM   28  N5  UNL     1      26.036   8.549  48.267  1.00  0.00     0.113 N 
HETATM   29  C17 UNL     1      25.441   7.914  47.095  1.00  0.00     0.301 C 
HETATM   30  C18 UNL     1      24.017   7.717  47.478  1.00  0.00     0.200 C 
HETATM   31  O2  UNL     1      23.754   8.758  48.376  1.00  0.00    -0.361 OA
HETATM   32  C19 UNL     1      24.914   8.822  49.168  1.00  0.00     0.440 C 
ENDBRANCH  27  28
ENDBRANCH  26  27
ENDBRANCH  23  26
ENDBRANCH   9  22
TORSDOF 6
ENDMDL
MODEL 7
REMARK VINA RESULT:      -8.1      5.578     10.548
REMARK  6 active torsions:
REMARK  status: ('A' for Active; 'I' for Inactive)
REMARK    1  A    between atoms: C4_6  and  N3_7 
REMARK    2  A    between atoms: N3_7  and  C5_8 
REMARK    3  A    between atoms: C13_17  and  N4_18 
REMARK       I    between atoms: N4_18  and  C14_19 
REMARK    4  A    between atoms: C14_19  and  C15_21 
REMARK    5  A    between atoms: C15_21  and  C16_22 
REMARK    6  A    between atoms: C16_22  and  N5_23 
ROOT
HETATM    1  N1  UNL     1      23.871   8.804  48.188  1.00  0.00    -0.191 NA
HETATM    2  C1  UNL     1      24.323   7.780  48.494  1.00  0.00     0.102 C 
HETATM    3  C2  UNL     1      24.884   6.494  48.873  1.00  0.00     0.073 A 
HETATM    4  C3  UNL     1      24.067   5.551  49.484  1.00  0.00     0.142 A 
HETATM    5  N2  UNL     1      24.603   4.370  49.827  1.00  0.00    -0.241 NA
HETATM    6  C4  UNL     1      25.892   4.089  49.593  1.00  0.00     0.139 A 
HETATM    7  C11 UNL     1      26.721   5.000  48.990  1.00  0.00     0.024 A 
HETATM    8  C12 UNL     1      28.051   4.757  48.731  1.00  0.00     0.045 A 
HETATM    9  C13 UNL     1      28.878   5.679  48.129  1.00  0.00     0.035 A 
HETATM   10  C20 UNL     1      28.307   6.909  47.779  1.00  0.00     0.030 A 
HETATM   11  C21 UNL     1      26.960   7.210  48.017  1.00  0.00     0.016 A 
HETATM   12  C22 UNL     1      26.208   6.242  48.617  1.00  0.00     0.000 A 
ENDROOT
BRANCH   6  13
HETATM   13  N3  UNL     1      26.409   2.815  50.003  1.00  0.00    -0.340 N 
HETATM   14  H2  UNL     1      27.075   2.229  49.460  1.00  0.00     0.167 HD
BRANCH  13  15
HETATM   15  C5  UNL     1      26.119   2.116  51.204  1.00  0.00     0.035 A 
HETATM   16  C6  UNL     1      24.828   1.763  51.630  1.00  0.00     0.029 A 
HETATM   17  C7  UNL     1      24.641   1.096  52.819  1.00  0.00     0.004 A 
HETATM   18  C8  UNL     1      25.670   0.737  53.653  1.00  0.00     0.019 A 
HETATM   19  C9  UNL     1      26.925   1.091  53.222  1.00  0.00     0.013 A 
HETATM   20 BR1  UNL     1      28.332   0.563  54.435  1.00  0.00    -0.051 Br
HETATM   21  C10 UNL     1      27.172   1.757  52.044  1.00  0.00     0.048 A 
ENDBRANCH  13  15
ENDBRANCH   6  13
BRANCH   9  22
HETATM   22  N4  UNL     1      30.255   5.533  47.806  1.00  0.00    -0.327 N 
HETATM   23  C14 UNL     1      31.489   5.633  48.544  1.00  0.00     0.223 C 
HETATM   24  O1  UNL     1      30.940   5.932  49.658  1.00  0.00    -0.273 OA
HETATM   25  H8  UNL     1      30.039   5.313  46.776  1.00  0.00     0.169 HD
BRANCH  23  26
HETATM   26  C15 UNL     1      32.566   5.337  47.580  1.00  0.00     0.133 C 
BRANCH  26  27
HETATM   27  C16 UNL     1      32.230   4.546  46.386  1.00  0.00     0.284 C 
BRANCH  27  28
HETATM   28  N5  UNL     1      32.933   3.290  46.222  1.00  0.00     0.113 N 
HETATM   29  C17 UNL     1      33.894   3.085  47.301  1.00  0.00     0.301 C 
HETATM   30  C18 UNL     1      33.287   2.004  48.122  1.00  0.00     0.200 C 
HETATM   31  O2  UNL     1      32.535   1.257  47.207  1.00  0.00    -0.361 OA
HETATM   32  C19 UNL     1      31.936   2.230  46.388  1.00  0.00     0.440 C 
ENDBRANCH  27  28
ENDBRANCH  26  27
ENDBRANCH  23  26
ENDBRANCH   9  22
TORSDOF 6
ENDMDL
MODEL 8
REMARK VINA RESULT:      -8.0      3.593      8.203
REMARK  6 active torsions:
REMARK  status: ('A' for Active; 'I' for Inactive)
REMARK    1  A    between atoms: C4_6  and  N3_7 
REMARK    2  A    between atoms: N3_7  and  C5_8 
REMARK    3  A    between atoms: C13_17  and  N4_18 
REMARK       I    between atoms: N4_18  and  C14_19 
REMARK    4  A    between atoms: C14_19  and  C15_21 
REMARK    5  A    between atoms: C15_21  and  C16_22 
REMARK    6  A    between atoms: C16_22  and  N5_23 
ROOT
HETATM    1  N1  UNL     1      23.513   7.546  46.798  1.00  0.00    -0.191 NA
HETATM    2  C1  UNL     1      23.194   6.483  47.137  1.00  0.00     0.102 C 
HETATM    3  C2  UNL     1      22.794   5.150  47.555  1.00  0.00     0.073 A 
HETATM    4  C3  UNL     1      21.788   4.493  46.859  1.00  0.00     0.142 A 
HETATM    5  N2  UNL     1      21.433   3.263  47.260  1.00  0.00    -0.241 NA
HETATM    6  C4  UNL     1      22.025   2.667  48.304  1.00  0.00     0.139 A 
HETATM    7  C11 UNL     1      23.022   3.291  49.009  1.00  0.00     0.024 A 
HETATM    8  C12 UNL     1      23.657   2.719  50.089  1.00  0.00     0.045 A 
HETATM    9  C13 UNL     1      24.654   3.354  50.793  1.00  0.00     0.035 A 
HETATM   10  C20 UNL     1      25.014   4.639  50.366  1.00  0.00     0.030 A 
HETATM   11  C21 UNL     1      24.403   5.268  49.274  1.00  0.00     0.016 A 
HETATM   12  C22 UNL     1      23.424   4.572  48.628  1.00  0.00     0.000 A 
ENDROOT
BRANCH   6  13
HETATM   13  N3  UNL     1      21.585   1.359  48.695  1.00  0.00    -0.340 N 
HETATM   14  H2  UNL     1      21.883   0.464  48.257  1.00  0.00     0.167 HD
BRANCH  13  15
HETATM   15  C5  UNL     1      20.673   1.034  49.734  1.00  0.00     0.035 A 
HETATM   16  C6  UNL     1      19.285   1.242  49.672  1.00  0.00     0.029 A 
HETATM   17  C7  UNL     1      18.479   0.908  50.736  1.00  0.00     0.004 A 
HETATM   18  C8  UNL     1      18.955   0.363  51.901  1.00  0.00     0.019 A 
HETATM   19  C9  UNL     1      20.314   0.166  51.946  1.00  0.00     0.013 A 
HETATM   20 BR1  UNL     1      20.926  -0.599  53.609  1.00  0.00    -0.051 Br
HETATM   21  C10 UNL     1      21.167   0.481  50.915  1.00  0.00     0.048 A 
ENDBRANCH  13  15
ENDBRANCH   6  13
BRANCH   9  22
HETATM   22  N4  UNL     1      25.382   2.859  51.910  1.00  0.00    -0.327 N 
HETATM   23  C14 UNL     1      25.105   2.701  53.316  1.00  0.00     0.223 C 
HETATM   24  O1  UNL     1      23.927   3.194  53.263  1.00  0.00    -0.273 OA
HETATM   25  H8  UNL     1      26.245   2.634  51.309  1.00  0.00     0.169 HD
BRANCH  23  26
HETATM   26  C15 UNL     1      26.314   2.094  53.904  1.00  0.00     0.133 C 
BRANCH  26  27
HETATM   27  C16 UNL     1      27.583   2.224  53.171  1.00  0.00     0.284 C 
BRANCH  27  28
HETATM   28  N5  UNL     1      28.279   0.992  52.857  1.00  0.00     0.113 N 
HETATM   29  C17 UNL     1      29.405   0.784  53.762  1.00  0.00     0.301 C 
HETATM   30  C18 UNL     1      28.961  -0.336  54.635  1.00  0.00     0.200 C 
HETATM   31  O2  UNL     1      28.089  -1.077  53.828  1.00  0.00    -0.361 OA
HETATM   32  C19 UNL     1      27.345  -0.099  53.147  1.00  0.00     0.440 C 
ENDBRANCH  27  28
ENDBRANCH  26  27
ENDBRANCH  23  26
ENDBRANCH   9  22
TORSDOF 6
ENDMDL
MODEL 9
REMARK VINA RESULT:      -8.0      5.587     11.285
REMARK  6 active torsions:
REMARK  status: ('A' for Active; 'I' for Inactive)
REMARK    1  A    between atoms: C4_6  and  N3_7 
REMARK    2  A    between atoms: N3_7  and  C5_8 
REMARK    3  A    between atoms: C13_17  and  N4_18 
REMARK       I    between atoms: N4_18  and  C14_19 
REMARK    4  A    between atoms: C14_19  and  C15_21 
REMARK    5  A    between atoms: C15_21  and  C16_22 
REMARK    6  A    between atoms: C16_22  and  N5_23 
ROOT
HETATM    1  N1  UNL     1      23.889   9.130  48.658  1.00  0.00    -0.191 NA
HETATM    2  C1  UNL     1      24.268   8.059  48.894  1.00  0.00     0.102 C 
HETATM    3  C2  UNL     1      24.737   6.715  49.186  1.00  0.00     0.073 A 
HETATM    4  C3  UNL     1      23.883   5.821  49.820  1.00  0.00     0.142 A 
HETATM    5  N2  UNL     1      24.335   4.586  50.082  1.00  0.00    -0.241 NA
HETATM    6  C4  UNL     1      25.575   4.205  49.746  1.00  0.00     0.139 A 
HETATM    7  C11 UNL     1      26.438   5.065  49.119  1.00  0.00     0.024 A 
HETATM    8  C12 UNL     1      27.721   4.720  48.756  1.00  0.00     0.045 A 
HETATM    9  C13 UNL     1      28.583   5.591  48.130  1.00  0.00     0.035 A 
HETATM   10  C20 UNL     1      28.101   6.879  47.865  1.00  0.00     0.030 A 
HETATM   11  C21 UNL     1      26.805   7.285  48.210  1.00  0.00     0.016 A 
HETATM   12  C22 UNL     1      26.013   6.362  48.827  1.00  0.00     0.000 A 
ENDROOT
BRANCH   6  13
HETATM   13  N3  UNL     1      26.003   2.875  50.073  1.00  0.00    -0.340 N 
HETATM   14  H2  UNL     1      26.375   2.176  49.398  1.00  0.00     0.167 HD
BRANCH  13  15
HETATM   15  C5  UNL     1      26.002   2.262  51.353  1.00  0.00     0.035 A 
HETATM   16  C6  UNL     1      24.852   1.812  52.022  1.00  0.00     0.029 A 
HETATM   17  C7  UNL     1      24.947   1.241  53.271  1.00  0.00     0.004 A 
HETATM   18  C8  UNL     1      26.135   1.073  53.936  1.00  0.00     0.019 A 
HETATM   19  C9  UNL     1      27.250   1.519  53.268  1.00  0.00     0.013 A 
HETATM   20 BR1  UNL     1      28.891   1.260  54.252  1.00  0.00    -0.051 Br
HETATM   21  C10 UNL     1      27.215   2.097  52.021  1.00  0.00     0.048 A 
ENDBRANCH  13  15
ENDBRANCH   6  13
BRANCH   9  22
HETATM   22  N4  UNL     1      29.917   5.341  47.704  1.00  0.00    -0.327 N 
HETATM   23  C14 UNL     1      31.213   5.412  48.329  1.00  0.00     0.223 C 
HETATM   24  O1  UNL     1      30.781   5.814  49.461  1.00  0.00    -0.273 OA
HETATM   25  H8  UNL     1      29.600   5.070  46.713  1.00  0.00     0.169 HD
BRANCH  23  26
HETATM   26  C15 UNL     1      32.184   4.990  47.301  1.00  0.00     0.133 C 
BRANCH  26  27
HETATM   27  C16 UNL     1      32.731   6.017  46.401  1.00  0.00     0.284 C 
BRANCH  27  28
HETATM   28  N5  UNL     1      34.131   6.351  46.574  1.00  0.00     0.113 N 
HETATM   29  C17 UNL     1      34.287   7.740  46.994  1.00  0.00     0.301 C 
HETATM   30  C18 UNL     1      34.704   7.639  48.418  1.00  0.00     0.200 C 
HETATM   31  O2  UNL     1      35.387   6.419  48.492  1.00  0.00    -0.361 OA
HETATM   32  C19 UNL     1      34.613   5.551  47.701  1.00  0.00     0.440 C 
ENDBRANCH  27  28
ENDBRANCH  26  27
ENDBRANCH  23  26
ENDBRANCH   9  22
TORSDOF 6
ENDMDL
