MODEL 1
REMARK VINA RESULT:      -8.7      0.000      0.000
REMARK  5 active torsions:
REMARK  status: ('A' for Active; 'I' for Inactive)
REMARK    1  A    between atoms: N1_2  and  C3_4 
REMARK    2  A    between atoms: C3_4  and  C4_5 
REMARK    3  A    between atoms: C4_5  and  C5_6 
REMARK    4  A    between atoms: C5_6  and  C6_7 
REMARK       I    between atoms: C6_7  and  N2_9 
REMARK    5  A    between atoms: N2_9  and  C7_10 
ROOT
HETATM    1  C7  UNL     1      21.997   1.826  52.566  1.00  0.00     0.100 C 
HETATM    2  C8  UNL     1      23.272   1.675  52.334  1.00  0.00    -0.015 C 
HETATM    3  C9  UNL     1      23.822   0.471  52.795  1.00  0.00     0.117 A 
HETATM    4  C10 UNL     1      24.576  -0.534  53.126  1.00  0.00     0.106 A 
HETATM    5  N3  UNL     1      25.408   0.442  52.555  1.00  0.00    -0.271 NA
HETATM    6  C11 UNL     1      26.447   0.914  53.209  1.00  0.00     0.103 C 
HETATM    7  C12 UNL     1      27.529   1.866  53.068  1.00  0.00     0.144 C 
HETATM    8  C13 UNL     1      28.542   2.052  54.042  1.00  0.00     0.120 C 
HETATM    9  N4  UNL     1      29.377   2.186  54.834  1.00  0.00    -0.190 NA
HETATM   10  N5  UNL     1      27.596   2.582  52.012  1.00  0.00    -0.248 NA
HETATM   11  C14 UNL     1      26.670   2.527  50.922  1.00  0.00     0.231 C 
HETATM   12  C15 UNL     1      25.254   2.566  51.289  1.00  0.00     0.030 C 
HETATM   13  C16 UNL     1      23.938   2.752  51.544  1.00  0.00    -0.031 C 
HETATM   14  C17 UNL     1      23.015   3.880  51.146  1.00  0.00     0.113 C 
HETATM   15 BR1  UNL     1      22.636   4.940  52.711  1.00  0.00    -0.082 Br
HETATM   16  C18 UNL     1      23.662   4.775  50.140  1.00  0.00    -0.006 C 
HETATM   17  C19 UNL     1      24.571   5.332  49.311  1.00  0.00    -0.001 C 
HETATM   18  C20 UNL     1      25.980   5.174  48.881  1.00  0.00     0.017 C 
HETATM   19  C21 UNL     1      27.156   4.551  48.946  1.00  0.00     0.085 C 
HETATM   20  N6  UNL     1      26.917   3.571  49.905  1.00  0.00    -0.374 N 
HETATM   21  H23 UNL     1      27.962   3.376  49.864  1.00  0.00     0.161 HD
ENDROOT
BRANCH   1  22
HETATM   22  N2  UNL     1      21.150   0.893  53.226  1.00  0.00    -0.333 N 
HETATM   23  C6  UNL     1      20.098   0.183  52.598  1.00  0.00     0.244 C 
HETATM   24  O1  UNL     1      19.857   0.358  51.376  1.00  0.00    -0.268 OA
HETATM   25  H11 UNL     1      21.122   0.555  54.226  1.00  0.00     0.168 HD
BRANCH  23  26
HETATM   26  C5  UNL     1      19.203  -0.775  53.220  1.00  0.00     0.072 C 
BRANCH  26  27
HETATM   27  C4  UNL     1      18.046  -1.376  53.177  1.00  0.00    -0.002 C 
BRANCH  27  28
HETATM   28  C3  UNL     1      16.654  -1.699  52.863  1.00  0.00     0.143 C 
BRANCH  28  29
HETATM   29  N1  UNL     1      16.347  -3.075  52.778  1.00  0.00    -0.418 N 
HETATM   30  C1  UNL     1      17.027  -3.951  53.687  1.00  0.00     0.142 C 
HETATM   31  C2  UNL     1      14.984  -3.436  52.615  1.00  0.00     0.142 C 
ENDBRANCH  28  29
ENDBRANCH  27  28
ENDBRANCH  26  27
ENDBRANCH  23  26
ENDBRANCH   1  22
TORSDOF 5
ENDMDL
MODEL 2
REMARK VINA RESULT:      -8.2      3.203      8.277
REMARK  5 active torsions:
REMARK  status: ('A' for Active; 'I' for Inactive)
REMARK    1  A    between atoms: N1_2  and  C3_4 
REMARK    2  A    between atoms: C3_4  and  C4_5 
REMARK    3  A    between atoms: C4_5  and  C5_6 
REMARK    4  A    between atoms: C5_6  and  C6_7 
REMARK       I    between atoms: C6_7  and  N2_9 
REMARK    5  A    between atoms: N2_9  and  C7_10 
ROOT
HETATM    1  C7  UNL     1      23.498   3.322  49.606  1.00  0.00     0.100 C 
HETATM    2  C8  UNL     1      23.983   2.630  50.600  1.00  0.00    -0.015 C 
HETATM    3  C9  UNL     1      25.335   2.867  50.887  1.00  0.00     0.117 A 
HETATM    4  C10 UNL     1      26.550   2.883  51.346  1.00  0.00     0.106 A 
HETATM    5  N3  UNL     1      25.850   1.888  52.048  1.00  0.00    -0.271 NA
HETATM    6  C11 UNL     1      26.286   0.648  52.081  1.00  0.00     0.103 C 
HETATM    7  C12 UNL     1      25.945  -0.653  52.619  1.00  0.00     0.144 C 
HETATM    8  C13 UNL     1      26.757  -1.804  52.465  1.00  0.00     0.120 C 
HETATM    9  N4  UNL     1      27.436  -2.736  52.351  1.00  0.00    -0.190 NA
HETATM   10  N5  UNL     1      24.859  -0.789  53.278  1.00  0.00    -0.248 NA
HETATM   11  C14 UNL     1      23.920   0.259  53.540  1.00  0.00     0.231 C 
HETATM   12  C15 UNL     1      23.536   1.072  52.385  1.00  0.00     0.030 C 
HETATM   13  C16 UNL     1      23.022   1.761  51.340  1.00  0.00    -0.031 C 
HETATM   14  C17 UNL     1      21.613   1.805  50.796  1.00  0.00     0.113 C 
HETATM   15 BR1  UNL     1      21.570   0.835  49.131  1.00  0.00    -0.082 Br
HETATM   16  C18 UNL     1      20.655   1.141  51.731  1.00  0.00    -0.006 C 
HETATM   17  C19 UNL     1      20.145   0.453  52.775  1.00  0.00    -0.001 C 
HETATM   18  C20 UNL     1      20.578  -0.256  54.003  1.00  0.00     0.017 C 
HETATM   19  C21 UNL     1      21.534  -0.681  54.828  1.00  0.00     0.085 C 
HETATM   20  N6  UNL     1      22.689  -0.224  54.201  1.00  0.00    -0.374 N 
HETATM   21  H23 UNL     1      23.222  -0.797  54.921  1.00  0.00     0.161 HD
ENDROOT
BRANCH   1  22
HETATM   22  N2  UNL     1      24.210   4.268  48.819  1.00  0.00    -0.333 N 
HETATM   23  C6  UNL     1      24.226   5.663  49.063  1.00  0.00     0.244 C 
HETATM   24  O1  UNL     1      23.580   6.144  50.029  1.00  0.00    -0.268 OA
HETATM   25  H11 UNL     1      24.823   4.153  47.967  1.00  0.00     0.168 HD
BRANCH  23  26
HETATM   26  C5  UNL     1      24.930   6.673  48.293  1.00  0.00     0.072 C 
BRANCH  26  27
HETATM   27  C4  UNL     1      26.079   7.202  47.979  1.00  0.00    -0.002 C 
BRANCH  27  28
HETATM   28  C3  UNL     1      27.495   7.363  47.645  1.00  0.00     0.143 C 
BRANCH  28  29
HETATM   29  N1  UNL     1      28.382   6.471  48.286  1.00  0.00    -0.418 N 
HETATM   30  C1  UNL     1      27.908   5.138  48.523  1.00  0.00     0.142 C 
HETATM   31  C2  UNL     1      29.740   6.484  47.874  1.00  0.00     0.142 C 
ENDBRANCH  28  29
ENDBRANCH  27  28
ENDBRANCH  26  27
ENDBRANCH  23  26
ENDBRANCH   1  22
TORSDOF 5
ENDMDL
MODEL 3
REMARK VINA RESULT:      -7.8      5.715      8.347
REMARK  5 active torsions:
REMARK  status: ('A' for Active; 'I' for Inactive)
REMARK    1  A    between atoms: N1_2  and  C3_4 
REMARK    2  A    between atoms: C3_4  and  C4_5 
REMARK    3  A    between atoms: C4_5  and  C5_6 
REMARK    4  A    between atoms: C5_6  and  C6_7 
REMARK       I    between atoms: C6_7  and  N2_9 
REMARK    5  A    between atoms: N2_9  and  C7_10 
ROOT
HETATM    1  C7  UNL     1      26.170   4.744  49.540  1.00  0.00     0.100 C 
HETATM    2  C8  UNL     1      26.752   5.653  48.806  1.00  0.00    -0.015 C 
HETATM    3  C9  UNL     1      28.110   5.425  48.543  1.00  0.00     0.117 A 
HETATM    4  C10 UNL     1      29.354   5.465  48.167  1.00  0.00     0.106 A 
HETATM    5  N3  UNL     1      28.746   6.654  47.731  1.00  0.00    -0.271 NA
HETATM    6  C11 UNL     1      29.233   7.828  48.070  1.00  0.00     0.103 C 
HETATM    7  C12 UNL     1      28.984   9.244  47.896  1.00  0.00     0.144 C 
HETATM    8  C13 UNL     1      29.829  10.258  48.410  1.00  0.00     0.120 C 
HETATM    9  N4  UNL     1      30.535  11.082  48.817  1.00  0.00    -0.190 NA
HETATM   10  N5  UNL     1      27.954   9.619  47.239  1.00  0.00    -0.248 NA
HETATM   11  C14 UNL     1      26.994   8.740  46.644  1.00  0.00     0.231 C 
HETATM   12  C15 UNL     1      26.496   7.665  47.503  1.00  0.00     0.030 C 
HETATM   13  C16 UNL     1      25.882   6.747  48.285  1.00  0.00    -0.031 C 
HETATM   14  C17 UNL     1      24.437   6.637  48.713  1.00  0.00     0.113 C 
HETATM   15 BR1  UNL     1      24.316   7.112  50.577  1.00  0.00    -0.082 Br
HETATM   16  C18 UNL     1      23.576   7.588  47.947  1.00  0.00    -0.006 C 
HETATM   17  C19 UNL     1      23.170   8.565  47.108  1.00  0.00    -0.001 C 
HETATM   18  C20 UNL     1      23.717   9.558  46.153  1.00  0.00     0.017 C 
HETATM   19  C21 UNL     1      24.745  10.137  45.535  1.00  0.00     0.085 C 
HETATM   20  N6  UNL     1      25.833   9.458  46.075  1.00  0.00    -0.374 N 
HETATM   21  H23 UNL     1      26.439  10.175  45.574  1.00  0.00     0.161 HD
ENDROOT
BRANCH   1  22
HETATM   22  N2  UNL     1      26.786   3.578  50.072  1.00  0.00    -0.333 N 
HETATM   23  C6  UNL     1      26.148   2.660  50.941  1.00  0.00     0.244 C 
HETATM   24  O1  UNL     1      24.955   2.849  51.295  1.00  0.00    -0.268 OA
HETATM   25  H11 UNL     1      27.755   3.178  49.949  1.00  0.00     0.168 HD
BRANCH  23  26
HETATM   26  C5  UNL     1      26.726   1.460  51.517  1.00  0.00     0.072 C 
BRANCH  26  27
HETATM   27  C4  UNL     1      26.954   0.768  52.598  1.00  0.00    -0.002 C 
BRANCH  27  28
HETATM   28  C3  UNL     1      27.427  -0.270  53.515  1.00  0.00     0.143 C 
BRANCH  28  29
HETATM   29  N1  UNL     1      28.720  -0.074  54.049  1.00  0.00    -0.418 N 
HETATM   30  C1  UNL     1      29.775  -0.886  53.516  1.00  0.00     0.142 C 
HETATM   31  C2  UNL     1      29.143   1.262  54.275  1.00  0.00     0.142 C 
ENDBRANCH  28  29
ENDBRANCH  27  28
ENDBRANCH  26  27
ENDBRANCH  23  26
ENDBRANCH   1  22
TORSDOF 5
ENDMDL
MODEL 4
REMARK VINA RESULT:      -7.7      3.303      9.636
REMARK  5 active torsions:
REMARK  status: ('A' for Active; 'I' for Inactive)
REMARK    1  A    between atoms: N1_2  and  C3_4 
REMARK    2  A    between atoms: C3_4  and  C4_5 
REMARK    3  A    between atoms: C4_5  and  C5_6 
REMARK    4  A    between atoms: C5_6  and  C6_7 
REMARK       I    between atoms: C6_7  and  N2_9 
REMARK    5  A    between atoms: N2_9  and  C7_10 
ROOT
HETATM    1  C7  UNL     1      25.286   2.745  50.590  1.00  0.00     0.100 C 
HETATM    2  C8  UNL     1      24.039   2.360  50.576  1.00  0.00    -0.015 C 
HETATM    3  C9  UNL     1      23.308   2.749  49.445  1.00  0.00     0.117 A 
HETATM    4  C10 UNL     1      22.414   2.986  48.532  1.00  0.00     0.106 A 
HETATM    5  N3  UNL     1      21.770   2.319  49.586  1.00  0.00    -0.271 NA
HETATM    6  C11 UNL     1      20.718   2.843  50.177  1.00  0.00     0.103 C 
HETATM    7  C12 UNL     1      19.771   2.574  51.239  1.00  0.00     0.144 C 
HETATM    8  C13 UNL     1      18.675   3.418  51.547  1.00  0.00     0.120 C 
HETATM    9  N4  UNL     1      17.771   4.103  51.780  1.00  0.00    -0.190 NA
HETATM   10  N5  UNL     1      19.911   1.517  51.945  1.00  0.00    -0.248 NA
HETATM   11  C14 UNL     1      20.950   0.548  51.776  1.00  0.00     0.231 C 
HETATM   12  C15 UNL     1      22.307   1.083  51.665  1.00  0.00     0.030 C 
HETATM   13  C16 UNL     1      23.596   1.497  51.709  1.00  0.00    -0.031 C 
HETATM   14  C17 UNL     1      24.678   1.214  52.725  1.00  0.00     0.113 C 
HETATM   15 BR1  UNL     1      24.979   2.814  53.756  1.00  0.00    -0.082 Br
HETATM   16  C18 UNL     1      24.259   0.138  53.672  1.00  0.00    -0.006 C 
HETATM   17  C19 UNL     1      23.523  -0.794  54.315  1.00  0.00    -0.001 C 
HETATM   18  C20 UNL     1      22.167  -1.392  54.307  1.00  0.00     0.017 C 
HETATM   19  C21 UNL     1      20.931  -1.470  53.817  1.00  0.00     0.085 C 
HETATM   20  N6  UNL     1      20.943  -0.491  52.828  1.00  0.00    -0.374 N 
HETATM   21  H23 UNL     1      19.896  -0.658  52.748  1.00  0.00     0.161 HD
ENDROOT
BRANCH   1  22
HETATM   22  N2  UNL     1      25.939   3.501  49.577  1.00  0.00    -0.333 N 
HETATM   23  C6  UNL     1      26.001   4.916  49.549  1.00  0.00     0.244 C 
HETATM   24  O1  UNL     1      25.454   5.592  50.458  1.00  0.00    -0.268 OA
HETATM   25  H11 UNL     1      26.469   3.207  48.713  1.00  0.00     0.168 HD
BRANCH  23  26
HETATM   26  C5  UNL     1      26.647   5.738  48.542  1.00  0.00     0.072 C 
BRANCH  26  27
HETATM   27  C4  UNL     1      27.695   6.441  48.216  1.00  0.00    -0.002 C 
BRANCH  27  28
HETATM   28  C3  UNL     1      28.982   6.843  47.645  1.00  0.00     0.143 C 
BRANCH  28  29
HETATM   29  N1  UNL     1      29.602   7.956  48.254  1.00  0.00    -0.418 N 
HETATM   30  C1  UNL     1      28.759   8.849  48.995  1.00  0.00     0.142 C 
HETATM   31  C2  UNL     1      30.846   7.740  48.905  1.00  0.00     0.142 C 
ENDBRANCH  28  29
ENDBRANCH  27  28
ENDBRANCH  26  27
ENDBRANCH  23  26
ENDBRANCH   1  22
TORSDOF 5
ENDMDL
MODEL 5
REMARK VINA RESULT:      -7.5      3.253      8.462
REMARK  5 active torsions:
REMARK  status: ('A' for Active; 'I' for Inactive)
REMARK    1  A    between atoms: N1_2  and  C3_4 
REMARK    2  A    between atoms: C3_4  and  C4_5 
REMARK    3  A    between atoms: C4_5  and  C5_6 
REMARK    4  A    between atoms: C5_6  and  C6_7 
REMARK       I    between atoms: C6_7  and  N2_9 
REMARK    5  A    between atoms: N2_9  and  C7_10 
ROOT
HETATM    1  C7  UNL     1      23.608   3.378  49.657  1.00  0.00     0.100 C 
HETATM    2  C8  UNL     1      24.075   2.664  50.644  1.00  0.00    -0.015 C 
HETATM    3  C9  UNL     1      25.428   2.876  50.943  1.00  0.00     0.117 A 
HETATM    4  C10 UNL     1      26.640   2.866  51.411  1.00  0.00     0.106 A 
HETATM    5  N3  UNL     1      25.920   1.872  52.093  1.00  0.00    -0.271 NA
HETATM    6  C11 UNL     1      26.337   0.625  52.110  1.00  0.00     0.103 C 
HETATM    7  C12 UNL     1      25.972  -0.678  52.626  1.00  0.00     0.144 C 
HETATM    8  C13 UNL     1      26.768  -1.839  52.461  1.00  0.00     0.120 C 
HETATM    9  N4  UNL     1      27.433  -2.780  52.338  1.00  0.00    -0.190 NA
HETATM   10  N5  UNL     1      24.879  -0.807  53.276  1.00  0.00    -0.248 NA
HETATM   11  C14 UNL     1      23.954   0.251  53.547  1.00  0.00     0.231 C 
HETATM   12  C15 UNL     1      23.591   1.086  52.402  1.00  0.00     0.030 C 
HETATM   13  C16 UNL     1      23.095   1.798  51.363  1.00  0.00    -0.031 C 
HETATM   14  C17 UNL     1      21.691   1.872  50.810  1.00  0.00     0.113 C 
HETATM   15 BR1  UNL     1      21.646   0.929  49.131  1.00  0.00    -0.082 Br
HETATM   16  C18 UNL     1      20.717   1.209  51.728  1.00  0.00    -0.006 C 
HETATM   17  C19 UNL     1      20.189   0.513  52.758  1.00  0.00    -0.001 C 
HETATM   18  C20 UNL     1      20.602  -0.221  53.978  1.00  0.00     0.017 C 
HETATM   19  C21 UNL     1      21.545  -0.673  54.803  1.00  0.00     0.085 C 
HETATM   20  N6  UNL     1      22.712  -0.224  54.191  1.00  0.00    -0.374 N 
HETATM   21  H23 UNL     1      23.231  -0.816  54.907  1.00  0.00     0.161 HD
ENDROOT
BRANCH   1  22
HETATM   22  N2  UNL     1      24.340   4.325  48.889  1.00  0.00    -0.333 N 
HETATM   23  C6  UNL     1      24.396   5.712  49.169  1.00  0.00     0.244 C 
HETATM   24  O1  UNL     1      23.771   6.185  50.153  1.00  0.00    -0.268 OA
HETATM   25  H11 UNL     1      24.943   4.216  48.030  1.00  0.00     0.168 HD
BRANCH  23  26
HETATM   26  C5  UNL     1      25.121   6.722  48.421  1.00  0.00     0.072 C 
BRANCH  26  27
HETATM   27  C4  UNL     1      25.122   7.535  47.401  1.00  0.00    -0.002 C 
BRANCH  27  28
HETATM   28  C3  UNL     1      24.716   8.262  46.198  1.00  0.00     0.143 C 
BRANCH  28  29
HETATM   29  N1  UNL     1      24.996   9.646  46.193  1.00  0.00    -0.418 N 
HETATM   30  C1  UNL     1      24.783  10.350  44.962  1.00  0.00     0.142 C 
HETATM   31  C2  UNL     1      24.578  10.406  47.317  1.00  0.00     0.142 C 
ENDBRANCH  28  29
ENDBRANCH  27  28
ENDBRANCH  26  27
ENDBRANCH  23  26
ENDBRANCH   1  22
TORSDOF 5
ENDMDL
MODEL 6
REMARK VINA RESULT:      -7.4      3.572      5.361
REMARK  5 active torsions:
REMARK  status: ('A' for Active; 'I' for Inactive)
REMARK    1  A    between atoms: N1_2  and  C3_4 
REMARK    2  A    between atoms: C3_4  and  C4_5 
REMARK    3  A    between atoms: C4_5  and  C5_6 
REMARK    4  A    between atoms: C5_6  and  C6_7 
REMARK       I    between atoms: C6_7  and  N2_9 
REMARK    5  A    between atoms: N2_9  and  C7_10 
ROOT
HETATM    1  C7  UNL     1      20.215   2.719  52.132  1.00  0.00     0.100 C 
HETATM    2  C8  UNL     1      21.481   3.018  52.232  1.00  0.00    -0.015 C 
HETATM    3  C9  UNL     1      21.800   4.355  51.960  1.00  0.00     0.117 A 
HETATM    4  C10 UNL     1      22.363   5.507  51.748  1.00  0.00     0.106 A 
HETATM    5  N3  UNL     1      23.388   4.582  52.006  1.00  0.00    -0.271 NA
HETATM    6  C11 UNL     1      24.368   4.401  51.148  1.00  0.00     0.103 C 
HETATM    7  C12 UNL     1      25.571   3.615  50.961  1.00  0.00     0.144 C 
HETATM    8  C13 UNL     1      26.442   3.766  49.853  1.00  0.00     0.120 C 
HETATM    9  N4  UNL     1      27.159   3.908  48.955  1.00  0.00    -0.190 NA
HETATM   10  N5  UNL     1      25.885   2.738  51.835  1.00  0.00    -0.248 NA
HETATM   11  C14 UNL     1      25.132   2.451  53.018  1.00  0.00     0.231 C 
HETATM   12  C15 UNL     1      23.693   2.264  52.827  1.00  0.00     0.030 C 
HETATM   13  C16 UNL     1      22.388   1.929  52.702  1.00  0.00    -0.031 C 
HETATM   14  C17 UNL     1      21.684   0.620  52.975  1.00  0.00     0.113 C 
HETATM   15 BR1  UNL     1      21.213  -0.182  51.287  1.00  0.00    -0.082 Br
HETATM   16  C18 UNL     1      22.582  -0.333  53.693  1.00  0.00    -0.006 C 
HETATM   17  C19 UNL     1      23.667  -0.887  54.276  1.00  0.00    -0.001 C 
HETATM   18  C20 UNL     1      25.094  -0.596  54.554  1.00  0.00     0.017 C 
HETATM   19  C21 UNL     1      26.159   0.200  54.472  1.00  0.00     0.085 C 
HETATM   20  N6  UNL     1      25.658   1.290  53.767  1.00  0.00    -0.374 N 
HETATM   21  H23 UNL     1      26.664   1.631  53.718  1.00  0.00     0.161 HD
ENDROOT
BRANCH   1  22
HETATM   22  N2  UNL     1      19.169   3.616  51.783  1.00  0.00    -0.333 N 
HETATM   23  C6  UNL     1      17.830   3.227  51.530  1.00  0.00     0.244 C 
HETATM   24  O1  UNL     1      17.498   2.017  51.608  1.00  0.00    -0.268 OA
HETATM   25  H11 UNL     1      19.158   4.663  51.649  1.00  0.00     0.168 HD
BRANCH  23  26
HETATM   26  C5  UNL     1      16.726   4.096  51.167  1.00  0.00     0.072 C 
BRANCH  26  27
HETATM   27  C4  UNL     1      15.433   4.267  51.143  1.00  0.00    -0.002 C 
BRANCH  27  28
HETATM   28  C3  UNL     1      13.995   4.050  51.306  1.00  0.00     0.143 C 
BRANCH  28  29
HETATM   29  N1  UNL     1      13.593   3.515  52.550  1.00  0.00    -0.418 N 
HETATM   30  C1  UNL     1      13.566   4.413  53.668  1.00  0.00     0.142 C 
HETATM   31  C2  UNL     1      12.485   2.628  52.556  1.00  0.00     0.142 C 
ENDBRANCH  28  29
ENDBRANCH  27  28
ENDBRANCH  26  27
ENDBRANCH  23  26
ENDBRANCH   1  22
TORSDOF 5
ENDMDL
MODEL 7
REMARK VINA RESULT:      -7.4      3.037      3.712
REMARK  5 active torsions:
REMARK  status: ('A' for Active; 'I' for Inactive)
REMARK    1  A    between atoms: N1_2  and  C3_4 
REMARK    2  A    between atoms: C3_4  and  C4_5 
REMARK    3  A    between atoms: C4_5  and  C5_6 
REMARK    4  A    between atoms: C5_6  and  C6_7 
REMARK       I    between atoms: C6_7  and  N2_9 
REMARK    5  A    between atoms: N2_9  and  C7_10 
ROOT
HETATM    1  C7  UNL     1      21.327   4.527  49.816  1.00  0.00     0.100 C 
HETATM    2  C8  UNL     1      22.449   3.880  49.971  1.00  0.00    -0.015 C 
HETATM    3  C9  UNL     1      22.315   2.535  50.343  1.00  0.00     0.117 A 
HETATM    4  C10 UNL     1      22.474   1.295  50.696  1.00  0.00     0.106 A 
HETATM    5  N3  UNL     1      23.751   1.873  50.611  1.00  0.00    -0.271 NA
HETATM    6  C11 UNL     1      24.577   1.847  51.635  1.00  0.00     0.103 C 
HETATM    7  C12 UNL     1      25.902   2.280  52.025  1.00  0.00     0.144 C 
HETATM    8  C13 UNL     1      26.485   1.989  53.283  1.00  0.00     0.120 C 
HETATM    9  N4  UNL     1      26.962   1.731  54.307  1.00  0.00    -0.190 NA
HETATM   10  N5  UNL     1      26.605   2.957  51.199  1.00  0.00    -0.248 NA
HETATM   11  C14 UNL     1      26.186   3.339  49.884  1.00  0.00     0.231 C 
HETATM   12  C15 UNL     1      24.853   3.934  49.789  1.00  0.00     0.030 C 
HETATM   13  C16 UNL     1      23.700   4.629  49.650  1.00  0.00    -0.031 C 
HETATM   14  C17 UNL     1      23.464   6.053  49.205  1.00  0.00     0.113 C 
HETATM   15 BR1  UNL     1      22.957   7.097  50.744  1.00  0.00    -0.082 Br
HETATM   16  C18 UNL     1      24.710   6.654  48.643  1.00  0.00    -0.006 C 
HETATM   17  C19 UNL     1      25.994   6.832  48.262  1.00  0.00    -0.001 C 
HETATM   18  C20 UNL     1      27.301   6.133  48.273  1.00  0.00     0.017 C 
HETATM   19  C21 UNL     1      28.059   5.083  48.584  1.00  0.00     0.085 C 
HETATM   20  N6  UNL     1      27.148   4.239  49.214  1.00  0.00    -0.374 N 
HETATM   21  H23 UNL     1      27.988   3.637  49.466  1.00  0.00     0.161 HD
ENDROOT
BRANCH   1  22
HETATM   22  N2  UNL     1      20.021   3.989  49.987  1.00  0.00    -0.333 N 
HETATM   23  C6  UNL     1      19.410   3.752  51.243  1.00  0.00     0.244 C 
HETATM   24  O1  UNL     1      20.026   4.018  52.307  1.00  0.00    -0.268 OA
HETATM   25  H11 UNL     1      19.292   3.680  49.289  1.00  0.00     0.168 HD
BRANCH  23  26
HETATM   26  C5  UNL     1      18.087   3.203  51.477  1.00  0.00     0.072 C 
BRANCH  26  27
HETATM   27  C4  UNL     1      16.838   3.448  51.760  1.00  0.00    -0.002 C 
BRANCH  27  28
HETATM   28  C3  UNL     1      15.630   3.960  52.408  1.00  0.00     0.143 C 
BRANCH  28  29
HETATM   29  N1  UNL     1      14.577   3.032  52.564  1.00  0.00    -0.418 N 
HETATM   30  C1  UNL     1      13.366   3.292  51.842  1.00  0.00     0.142 C 
HETATM   31  C2  UNL     1      14.911   1.652  52.558  1.00  0.00     0.142 C 
ENDBRANCH  28  29
ENDBRANCH  27  28
ENDBRANCH  26  27
ENDBRANCH  23  26
ENDBRANCH   1  22
TORSDOF 5
ENDMDL
MODEL 8
REMARK VINA RESULT:      -7.3      4.440      7.895
REMARK  5 active torsions:
REMARK  status: ('A' for Active; 'I' for Inactive)
REMARK    1  A    between atoms: N1_2  and  C3_4 
REMARK    2  A    between atoms: C3_4  and  C4_5 
REMARK    3  A    between atoms: C4_5  and  C5_6 
REMARK    4  A    between atoms: C5_6  and  C6_7 
REMARK       I    between atoms: C6_7  and  N2_9 
REMARK    5  A    between atoms: N2_9  and  C7_10 
ROOT
HETATM    1  C7  UNL     1      25.030   3.594  50.505  1.00  0.00     0.100 C 
HETATM    2  C8  UNL     1      23.946   3.837  49.822  1.00  0.00    -0.015 C 
HETATM    3  C9  UNL     1      23.122   2.725  49.597  1.00  0.00     0.117 A 
HETATM    4  C10 UNL     1      22.203   1.879  49.238  1.00  0.00     0.106 A 
HETATM    5  N3  UNL     1      21.881   3.117  48.658  1.00  0.00    -0.271 NA
HETATM    6  C11 UNL     1      21.710   3.233  47.359  1.00  0.00     0.103 C 
HETATM    7  C12 UNL     1      21.400   4.221  46.347  1.00  0.00     0.144 C 
HETATM    8  C13 UNL     1      21.241   3.914  44.973  1.00  0.00     0.120 C 
HETATM    9  N4  UNL     1      21.094   3.653  43.854  1.00  0.00    -0.190 NA
HETATM   10  N5  UNL     1      21.249   5.442  46.694  1.00  0.00    -0.248 NA
HETATM   11  C14 UNL     1      21.365   5.936  48.032  1.00  0.00     0.231 C 
HETATM   12  C15 UNL     1      22.550   5.500  48.771  1.00  0.00     0.030 C 
HETATM   13  C16 UNL     1      23.694   5.262  49.455  1.00  0.00    -0.031 C 
HETATM   14  C17 UNL     1      24.767   6.215  49.928  1.00  0.00     0.113 C 
HETATM   15 BR1  UNL     1      26.331   5.965  48.829  1.00  0.00    -0.082 Br
HETATM   16  C18 UNL     1      24.329   7.635  49.775  1.00  0.00    -0.006 C 
HETATM   17  C19 UNL     1      23.608   8.731  49.457  1.00  0.00    -0.001 C 
HETATM   18  C20 UNL     1      22.333   9.116  48.805  1.00  0.00     0.017 C 
HETATM   19  C21 UNL     1      21.202   8.798  48.179  1.00  0.00     0.085 C 
HETATM   20  N6  UNL     1      21.284   7.410  48.109  1.00  0.00    -0.374 N 
HETATM   21  H23 UNL     1      20.426   7.462  47.482  1.00  0.00     0.161 HD
ENDROOT
BRANCH   1  22
HETATM   22  N2  UNL     1      25.426   2.331  51.024  1.00  0.00    -0.333 N 
HETATM   23  C6  UNL     1      25.168   1.891  52.346  1.00  0.00     0.244 C 
HETATM   24  O1  UNL     1      24.551   2.636  53.151  1.00  0.00    -0.268 OA
HETATM   25  H11 UNL     1      25.944   1.523  50.586  1.00  0.00     0.168 HD
BRANCH  23  26
HETATM   26  C5  UNL     1      25.550   0.619  52.930  1.00  0.00     0.072 C 
BRANCH  26  27
HETATM   27  C4  UNL     1      26.494  -0.265  53.101  1.00  0.00    -0.002 C 
BRANCH  27  28
HETATM   28  C3  UNL     1      27.762  -0.987  52.996  1.00  0.00     0.143 C 
BRANCH  28  29
HETATM   29  N1  UNL     1      28.728  -0.676  53.979  1.00  0.00    -0.418 N 
HETATM   30  C1  UNL     1      30.065  -1.142  53.749  1.00  0.00     0.142 C 
HETATM   31  C2  UNL     1      28.710   0.633  54.527  1.00  0.00     0.142 C 
ENDBRANCH  28  29
ENDBRANCH  27  28
ENDBRANCH  26  27
ENDBRANCH  23  26
ENDBRANCH   1  22
TORSDOF 5
ENDMDL
MODEL 9
REMARK VINA RESULT:      -7.2      4.698      7.444
REMARK  5 active torsions:
REMARK  status: ('A' for Active; 'I' for Inactive)
REMARK    1  A    between atoms: N1_2  and  C3_4 
REMARK    2  A    between atoms: C3_4  and  C4_5 
REMARK    3  A    between atoms: C4_5  and  C5_6 
REMARK    4  A    between atoms: C5_6  and  C6_7 
REMARK       I    between atoms: C6_7  and  N2_9 
REMARK    5  A    between atoms: N2_9  and  C7_10 
ROOT
HETATM    1  C7  UNL     1      23.930   3.465  50.213  1.00  0.00     0.100 C 
HETATM    2  C8  UNL     1      24.474   4.431  49.525  1.00  0.00    -0.015 C 
HETATM    3  C9  UNL     1      25.861   4.331  49.352  1.00  0.00     0.117 A 
HETATM    4  C10 UNL     1      27.118   4.489  49.061  1.00  0.00     0.106 A 
HETATM    5  N3  UNL     1      26.434   5.621  48.590  1.00  0.00    -0.271 NA
HETATM    6  C11 UNL     1      26.787   6.831  48.966  1.00  0.00     0.103 C 
HETATM    7  C12 UNL     1      26.421   8.220  48.783  1.00  0.00     0.144 C 
HETATM    8  C13 UNL     1      27.134   9.302  49.357  1.00  0.00     0.120 C 
HETATM    9  N4  UNL     1      27.732  10.182  49.815  1.00  0.00    -0.190 NA
HETATM   10  N5  UNL     1      25.407   8.507  48.060  1.00  0.00    -0.248 NA
HETATM   11  C14 UNL     1      24.574   7.550  47.397  1.00  0.00     0.231 C 
HETATM   12  C15 UNL     1      24.121   6.426  48.216  1.00  0.00     0.030 C 
HETATM   13  C16 UNL     1      23.543   5.447  48.951  1.00  0.00    -0.031 C 
HETATM   14  C17 UNL     1      22.089   5.201  49.281  1.00  0.00     0.113 C 
HETATM   15 BR1  UNL     1      21.801   5.643  51.134  1.00  0.00    -0.082 Br
HETATM   16  C18 UNL     1      21.197   6.077  48.463  1.00  0.00    -0.006 C 
HETATM   17  C19 UNL     1      20.760   7.022  47.603  1.00  0.00    -0.001 C 
HETATM   18  C20 UNL     1      21.276   8.071  46.691  1.00  0.00     0.017 C 
HETATM   19  C21 UNL     1      22.285   8.748  46.146  1.00  0.00     0.085 C 
HETATM   20  N6  UNL     1      23.393   8.165  46.755  1.00  0.00    -0.374 N 
HETATM   21  H23 UNL     1      23.962   8.940  46.299  1.00  0.00     0.161 HD
ENDROOT
BRANCH   1  22
HETATM   22  N2  UNL     1      24.614   2.355  50.780  1.00  0.00    -0.333 N 
HETATM   23  C6  UNL     1      24.711   2.098  52.170  1.00  0.00     0.244 C 
HETATM   24  O1  UNL     1      24.172   2.878  52.997  1.00  0.00    -0.268 OA
HETATM   25  H11 UNL     1      25.145   1.557  50.338  1.00  0.00     0.168 HD
BRANCH  23  26
HETATM   26  C5  UNL     1      25.396   0.987  52.803  1.00  0.00     0.072 C 
BRANCH  26  27
HETATM   27  C4  UNL     1      26.536   0.397  53.037  1.00  0.00    -0.002 C 
BRANCH  27  28
HETATM   28  C3  UNL     1      27.547  -0.628  53.298  1.00  0.00     0.143 C 
BRANCH  28  29
HETATM   29  N1  UNL     1      28.738  -0.174  53.907  1.00  0.00    -0.418 N 
HETATM   30  C1  UNL     1      29.936  -0.911  53.628  1.00  0.00     0.142 C 
HETATM   31  C2  UNL     1      28.971   1.226  53.932  1.00  0.00     0.142 C 
ENDBRANCH  28  29
ENDBRANCH  27  28
ENDBRANCH  26  27
ENDBRANCH  23  26
ENDBRANCH   1  22
TORSDOF 5
ENDMDL
