MODEL 1
REMARK VINA RESULT:      -7.9      0.000      0.000
REMARK  6 active torsions:
REMARK  status: ('A' for Active; 'I' for Inactive)
REMARK    1  A    between atoms: N1_1  and  C1_2 
REMARK    2  A    between atoms: C6_8  and  C7_9 
REMARK    3  A    between atoms: C11_14  and  S1_15 
REMARK    4  A    between atoms: N3_16  and  C12_17 
REMARK    5  A    between atoms: C12_17  and  C13_18 
REMARK    6  A    between atoms: C13_18  and  N4_19 
ROOT
HETATM    1  C7  UNL     1      22.658   4.558  50.804  1.00  0.00     0.104 C 
HETATM    2  C8  UNL     1      21.679   4.305  49.620  1.00  0.00     0.103 C 
HETATM    3  N2  UNL     1      20.912   3.208  49.750  1.00  0.00    -0.265 NA
HETATM    4  C9  UNL     1      21.809   2.070  50.067  1.00  0.00     0.057 C 
HETATM    5  C10 UNL     1      23.080   2.499  50.106  1.00  0.00     0.047 C 
HETATM    6  C11 UNL     1      22.882   3.303  51.392  1.00  0.00     0.109 C 
HETATM    7  N3  UNL     1      23.548   2.605  52.311  1.00  0.00    -0.374 N 
HETATM    8  C18 UNL     1      23.119   1.483  52.976  1.00  0.00     0.242 C 
HETATM    9  N5  UNL     1      22.388   0.356  52.574  1.00  0.00    -0.383 N 
HETATM   10  C19 UNL     1      21.445   0.031  51.493  1.00  0.00     0.086 C 
HETATM   11  C20 UNL     1      21.137   0.796  50.388  1.00  0.00     0.048 C 
HETATM   12  H24 UNL     1      22.414  -0.569  53.074  1.00  0.00     0.160 HD
ENDROOT
BRANCH   1  13
HETATM   13  C6  UNL     1      23.764   5.405  50.290  1.00  0.00    -0.019 A 
HETATM   14  C1  UNL     1      24.512   6.339  50.970  1.00  0.00     0.034 A 
HETATM   15  C2  UNL     1      25.531   7.094  50.443  1.00  0.00     0.053 A 
HETATM   16  C3  UNL     1      25.868   6.937  49.121  1.00  0.00     0.036 A 
HETATM   17 CL1  UNL     1      27.158   7.864  48.384  1.00  0.00    -0.084 Cl
HETATM   18  C4  UNL     1      25.139   6.011  48.413  1.00  0.00     0.024 A 
HETATM   19  C5  UNL     1      24.131   5.274  48.965  1.00  0.00     0.012 A 
BRANCH  14  20
HETATM   20  N1  UNL     1      24.271   6.560  52.342  1.00  0.00    -0.399 N 
HETATM   21  H1  UNL     1      24.018   6.329  53.321  1.00  0.00     0.156 HD
HETATM   22  H2  UNL     1      24.189   7.063  53.245  1.00  0.00     0.156 HD
ENDBRANCH  14  20
ENDBRANCH   1  13
BRANCH   6  23
HETATM   23  S1  UNL     1      21.156   3.122  52.100  1.00  0.00    -0.146 SA
HETATM   24  H9  UNL     1      21.385   2.413  53.292  1.00  0.00     0.104 HD
ENDBRANCH   6  23
BRANCH   7  25
HETATM   25  C12 UNL     1      24.952   2.933  52.408  1.00  0.00     0.150 C 
BRANCH  25  26
HETATM   26  C13 UNL     1      25.763   2.169  53.386  1.00  0.00     0.292 C 
BRANCH  26  27
HETATM   27  N4  UNL     1      26.881   1.474  52.835  1.00  0.00     0.094 N 
HETATM   28  C14 UNL     1      27.967   1.339  53.793  1.00  0.00     0.298 C 
HETATM   29  C15 UNL     1      28.173   0.024  54.416  1.00  0.00     0.198 C 
HETATM   30  O1  UNL     1      27.812  -1.087  53.660  1.00  0.00    -0.388 OA
HETATM   31  C16 UNL     1      26.467  -0.871  53.321  1.00  0.00     0.198 C 
HETATM   32  C17 UNL     1      26.528   0.226  52.243  1.00  0.00     0.298 C 
ENDBRANCH  26  27
ENDBRANCH  25  26
ENDBRANCH   7  25
TORSDOF 6
ENDMDL
MODEL 2
REMARK VINA RESULT:      -7.7      3.008      5.361
REMARK  6 active torsions:
REMARK  status: ('A' for Active; 'I' for Inactive)
REMARK    1  A    between atoms: N1_1  and  C1_2 
REMARK    2  A    between atoms: C6_8  and  C7_9 
REMARK    3  A    between atoms: C11_14  and  S1_15 
REMARK    4  A    between atoms: N3_16  and  C12_17 
REMARK    5  A    between atoms: C12_17  and  C13_18 
REMARK    6  A    between atoms: C13_18  and  N4_19 
ROOT
HETATM    1  C7  UNL     1      22.358   2.996  50.715  1.00  0.00     0.104 C 
HETATM    2  C8  UNL     1      21.405   4.164  51.108  1.00  0.00     0.103 C 
HETATM    3  N2  UNL     1      21.866   5.391  50.811  1.00  0.00    -0.265 NA
HETATM    4  C9  UNL     1      23.239   5.498  51.364  1.00  0.00     0.057 C 
HETATM    5  C10 UNL     1      23.562   4.354  51.986  1.00  0.00     0.047 C 
HETATM    6  C11 UNL     1      23.648   3.548  50.688  1.00  0.00     0.109 C 
HETATM    7  N3  UNL     1      24.953   3.325  50.537  1.00  0.00    -0.374 N 
HETATM    8  C18 UNL     1      25.892   4.191  50.033  1.00  0.00     0.242 C 
HETATM    9  N5  UNL     1      26.091   5.571  50.174  1.00  0.00    -0.383 N 
HETATM   10  C19 UNL     1      25.262   6.734  50.526  1.00  0.00     0.086 C 
HETATM   11  C20 UNL     1      23.973   6.730  51.017  1.00  0.00     0.048 C 
HETATM   12  H24 UNL     1      27.016   6.049  50.020  1.00  0.00     0.160 HD
ENDROOT
BRANCH   1  13
HETATM   13  C6  UNL     1      22.007   1.833  51.568  1.00  0.00    -0.019 A 
HETATM   14  C1  UNL     1      21.080   0.845  51.326  1.00  0.00     0.034 A 
HETATM   15  C2  UNL     1      20.798  -0.216  52.152  1.00  0.00     0.053 A 
HETATM   16  C3  UNL     1      21.479  -0.342  53.338  1.00  0.00     0.036 A 
HETATM   17 CL1  UNL     1      21.173  -1.670  54.437  1.00  0.00    -0.084 Cl
HETATM   18  C4  UNL     1      22.413   0.629  53.609  1.00  0.00     0.024 A 
HETATM   19  C5  UNL     1      22.671   1.673  52.769  1.00  0.00     0.012 A 
BRANCH  14  20
HETATM   20  N1  UNL     1      20.344   0.859  50.123  1.00  0.00    -0.399 N 
HETATM   21  H1  UNL     1      19.739   0.493  49.364  1.00  0.00     0.156 HD
HETATM   22  H2  UNL     1      19.932   1.215  49.240  1.00  0.00     0.156 HD
ENDBRANCH  14  20
ENDBRANCH   1  13
BRANCH   6  23
HETATM   23  S1  UNL     1      23.365   4.601  49.163  1.00  0.00    -0.146 SA
HETATM   24  H9  UNL     1      24.336   5.609  49.301  1.00  0.00     0.104 HD
ENDBRANCH   6  23
BRANCH   7  25
HETATM   25  C12 UNL     1      25.441   2.146  51.217  1.00  0.00     0.150 C 
BRANCH  25  26
HETATM   26  C13 UNL     1      26.847   2.163  51.682  1.00  0.00     0.292 C 
BRANCH  26  27
HETATM   27  N4  UNL     1      27.022   2.422  53.074  1.00  0.00     0.094 N 
HETATM   28  C14 UNL     1      26.179   1.571  53.899  1.00  0.00     0.298 C 
HETATM   29  C15 UNL     1      26.816   0.449  54.603  1.00  0.00     0.198 C 
HETATM   30  O1  UNL     1      28.148   0.618  54.968  1.00  0.00    -0.388 OA
HETATM   31  C16 UNL     1      28.812   0.933  53.773  1.00  0.00     0.198 C 
HETATM   32  C17 UNL     1      28.387   2.384  53.483  1.00  0.00     0.298 C 
ENDBRANCH  26  27
ENDBRANCH  25  26
ENDBRANCH   7  25
TORSDOF 6
ENDMDL
MODEL 3
REMARK VINA RESULT:      -7.2      1.492      1.697
REMARK  6 active torsions:
REMARK  status: ('A' for Active; 'I' for Inactive)
REMARK    1  A    between atoms: N1_1  and  C1_2 
REMARK    2  A    between atoms: C6_8  and  C7_9 
REMARK    3  A    between atoms: C11_14  and  S1_15 
REMARK    4  A    between atoms: N3_16  and  C12_17 
REMARK    5  A    between atoms: C12_17  and  C13_18 
REMARK    6  A    between atoms: C13_18  and  N4_19 
ROOT
HETATM    1  C7  UNL     1      23.419   4.428  49.648  1.00  0.00     0.104 C 
HETATM    2  C8  UNL     1      22.682   4.011  48.341  1.00  0.00     0.103 C 
HETATM    3  N2  UNL     1      21.651   3.168  48.522  1.00  0.00    -0.265 NA
HETATM    4  C9  UNL     1      22.139   2.035  49.347  1.00  0.00     0.057 C 
HETATM    5  C10 UNL     1      23.439   2.213  49.627  1.00  0.00     0.047 C 
HETATM    6  C11 UNL     1      23.185   3.393  50.567  1.00  0.00     0.109 C 
HETATM    7  N3  UNL     1      23.439   2.898  51.778  1.00  0.00    -0.374 N 
HETATM    8  C18 UNL     1      22.606   2.131  52.555  1.00  0.00     0.242 C 
HETATM    9  N5  UNL     1      21.714   1.091  52.260  1.00  0.00    -0.383 N 
HETATM   10  C19 UNL     1      20.971   0.631  51.075  1.00  0.00     0.086 C 
HETATM   11  C20 UNL     1      21.111   1.066  49.774  1.00  0.00     0.048 C 
HETATM   12  H24 UNL     1      21.396   0.374  52.961  1.00  0.00     0.160 HD
ENDROOT
BRANCH   1  13
HETATM   13  C6  UNL     1      24.787   4.858  49.266  1.00  0.00    -0.019 A 
HETATM   14  C1  UNL     1      25.199   6.089  48.808  1.00  0.00     0.034 A 
HETATM   15  C2  UNL     1      26.485   6.435  48.472  1.00  0.00     0.053 A 
HETATM   16  C3  UNL     1      27.484   5.499  48.588  1.00  0.00     0.036 A 
HETATM   17 CL1  UNL     1      29.146   5.872  48.180  1.00  0.00    -0.084 Cl
HETATM   18  C4  UNL     1      27.105   4.259  49.044  1.00  0.00     0.024 A 
HETATM   19  C5  UNL     1      25.818   3.944  49.370  1.00  0.00     0.012 A 
BRANCH  14  20
HETATM   20  N1  UNL     1      24.261   7.134  48.680  1.00  0.00    -0.399 N 
HETATM   21  H1  UNL     1      23.432   7.639  48.315  1.00  0.00     0.156 HD
HETATM   22  H2  UNL     1      23.790   8.043  48.847  1.00  0.00     0.156 HD
ENDBRANCH  14  20
ENDBRANCH   1  13
BRANCH   6  23
HETATM   23  S1  UNL     1      21.359   3.758  50.792  1.00  0.00    -0.146 SA
HETATM   24  H9  UNL     1      20.750   2.803  49.958  1.00  0.00     0.104 HD
ENDBRANCH   6  23
BRANCH   7  25
HETATM   25  C12 UNL     1      24.826   2.974  52.175  1.00  0.00     0.150 C 
BRANCH  25  26
HETATM   26  C13 UNL     1      25.307   1.978  53.161  1.00  0.00     0.292 C 
BRANCH  26  27
HETATM   27  N4  UNL     1      26.436   1.211  52.747  1.00  0.00     0.094 N 
HETATM   28  C14 UNL     1      27.665   1.988  52.775  1.00  0.00     0.298 C 
HETATM   29  C15 UNL     1      28.610   1.741  53.874  1.00  0.00     0.198 C 
HETATM   30  O1  UNL     1      28.625   0.455  54.404  1.00  0.00    -0.388 OA
HETATM   31  C16 UNL     1      27.297   0.206  54.786  1.00  0.00     0.198 C 
HETATM   32  C17 UNL     1      26.564  -0.022  53.452  1.00  0.00     0.298 C 
ENDBRANCH  26  27
ENDBRANCH  25  26
ENDBRANCH   7  25
TORSDOF 6
ENDMDL
MODEL 4
REMARK VINA RESULT:      -7.1      3.281      6.359
REMARK  6 active torsions:
REMARK  status: ('A' for Active; 'I' for Inactive)
REMARK    1  A    between atoms: N1_1  and  C1_2 
REMARK    2  A    between atoms: C6_8  and  C7_9 
REMARK    3  A    between atoms: C11_14  and  S1_15 
REMARK    4  A    between atoms: N3_16  and  C12_17 
REMARK    5  A    between atoms: C12_17  and  C13_18 
REMARK    6  A    between atoms: C13_18  and  N4_19 
ROOT
HETATM    1  C7  UNL     1      24.468   0.794  53.628  1.00  0.00     0.104 C 
HETATM    2  C8  UNL     1      24.518  -0.719  53.992  1.00  0.00     0.103 C 
HETATM    3  N2  UNL     1      25.736  -1.176  54.332  1.00  0.00    -0.265 NA
HETATM    4  C9  UNL     1      26.681  -0.763  53.266  1.00  0.00     0.057 C 
HETATM    5  C10 UNL     1      26.017  -0.089  52.314  1.00  0.00     0.047 C 
HETATM    6  C11 UNL     1      25.764   1.129  53.204  1.00  0.00     0.109 C 
HETATM    7  N3  UNL     1      26.563   2.067  52.698  1.00  0.00    -0.374 N 
HETATM    8  C18 UNL     1      27.911   2.218  52.916  1.00  0.00     0.242 C 
HETATM    9  N5  UNL     1      28.968   1.305  53.032  1.00  0.00    -0.383 N 
HETATM   10  C19 UNL     1      29.110  -0.119  53.374  1.00  0.00     0.086 C 
HETATM   11  C20 UNL     1      28.105  -1.051  53.527  1.00  0.00     0.048 C 
HETATM   12  H24 UNL     1      29.977   1.551  52.864  1.00  0.00     0.160 HD
ENDROOT
BRANCH   1  13
HETATM   13  C6  UNL     1      23.272   1.005  52.775  1.00  0.00    -0.019 A 
HETATM   14  C1  UNL     1      22.675   2.192  52.419  1.00  0.00     0.034 A 
HETATM   15  C2  UNL     1      21.566   2.329  51.619  1.00  0.00     0.053 A 
HETATM   16  C3  UNL     1      20.966   1.205  51.106  1.00  0.00     0.036 A 
HETATM   17 CL1  UNL     1      19.552   1.306  50.078  1.00  0.00    -0.084 Cl
HETATM   18  C4  UNL     1      21.539   0.002  51.443  1.00  0.00     0.024 A 
HETATM   19  C5  UNL     1      22.641  -0.103  52.241  1.00  0.00     0.012 A 
BRANCH  14  20
HETATM   20  N1  UNL     1      23.227   3.411  52.865  1.00  0.00    -0.399 N 
HETATM   21  H1  UNL     1      23.839   4.248  52.852  1.00  0.00     0.156 HD
HETATM   22  H2  UNL     1      23.388   4.244  53.461  1.00  0.00     0.156 HD
ENDBRANCH  14  20
ENDBRANCH   1  13
BRANCH   6  23
HETATM   23  S1  UNL     1      26.557   0.967  54.895  1.00  0.00    -0.146 SA
HETATM   24  H9  UNL     1      27.129   2.237  55.089  1.00  0.00     0.104 HD
ENDBRANCH   6  23
BRANCH   7  25
HETATM   25  C12 UNL     1      25.982   2.827  51.615  1.00  0.00     0.150 C 
BRANCH  25  26
HETATM   26  C13 UNL     1      26.887   3.257  50.523  1.00  0.00     0.292 C 
BRANCH  26  27
HETATM   27  N4  UNL     1      26.234   3.702  49.335  1.00  0.00     0.094 N 
HETATM   28  C14 UNL     1      24.786   3.619  49.442  1.00  0.00     0.298 C 
HETATM   29  C15 UNL     1      24.040   4.868  49.646  1.00  0.00     0.198 C 
HETATM   30  O1  UNL     1      24.600   6.024  49.112  1.00  0.00    -0.388 OA
HETATM   31  C16 UNL     1      25.891   6.086  49.660  1.00  0.00     0.198 C 
HETATM   32  C17 UNL     1      26.668   4.991  48.908  1.00  0.00     0.298 C 
ENDBRANCH  26  27
ENDBRANCH  25  26
ENDBRANCH   7  25
TORSDOF 6
ENDMDL
MODEL 5
REMARK VINA RESULT:      -7.0      3.013      5.435
REMARK  6 active torsions:
REMARK  status: ('A' for Active; 'I' for Inactive)
REMARK    1  A    between atoms: N1_1  and  C1_2 
REMARK    2  A    between atoms: C6_8  and  C7_9 
REMARK    3  A    between atoms: C11_14  and  S1_15 
REMARK    4  A    between atoms: N3_16  and  C12_17 
REMARK    5  A    between atoms: C12_17  and  C13_18 
REMARK    6  A    between atoms: C13_18  and  N4_19 
ROOT
HETATM    1  C7  UNL     1      22.865   5.125  49.379  1.00  0.00     0.104 C 
HETATM    2  C8  UNL     1      22.177   6.302  50.132  1.00  0.00     0.103 C 
HETATM    3  N2  UNL     1      22.883   7.446  50.153  1.00  0.00    -0.265 NA
HETATM    4  C9  UNL     1      24.249   7.118  50.630  1.00  0.00     0.057 C 
HETATM    5  C10 UNL     1      24.329   5.805  50.896  1.00  0.00     0.047 C 
HETATM    6  C11 UNL     1      24.242   5.394  49.425  1.00  0.00     0.109 C 
HETATM    7  N3  UNL     1      25.471   4.967  49.140  1.00  0.00    -0.374 N 
HETATM    8  C18 UNL     1      26.569   5.734  48.836  1.00  0.00     0.242 C 
HETATM    9  N5  UNL     1      27.052   6.951  49.335  1.00  0.00    -0.383 N 
HETATM   10  C19 UNL     1      26.483   8.110  50.041  1.00  0.00     0.086 C 
HETATM   11  C20 UNL     1      25.224   8.226  50.589  1.00  0.00     0.048 C 
HETATM   12  H24 UNL     1      28.055   7.259  49.262  1.00  0.00     0.160 HD
ENDROOT
BRANCH   1  13
HETATM   13  C6  UNL     1      22.282   3.865  49.901  1.00  0.00    -0.019 A 
HETATM   14  C1  UNL     1      22.172   2.647  49.269  1.00  0.00     0.034 A 
HETATM   15  C2  UNL     1      21.624   1.507  49.804  1.00  0.00     0.053 A 
HETATM   16  C3  UNL     1      21.129   1.538  51.084  1.00  0.00     0.036 A 
HETATM   17 CL1  UNL     1      20.420   0.121  51.831  1.00  0.00    -0.084 Cl
HETATM   18  C4  UNL     1      21.224   2.739  51.744  1.00  0.00     0.024 A 
HETATM   19  C5  UNL     1      21.773   3.857  51.186  1.00  0.00     0.012 A 
BRANCH  14  20
HETATM   20  N1  UNL     1      22.676   2.494  47.960  1.00  0.00    -0.399 N 
HETATM   21  H1  UNL     1      23.039   2.782  47.032  1.00  0.00     0.156 HD
HETATM   22  H2  UNL     1      23.007   2.027  47.095  1.00  0.00     0.156 HD
ENDBRANCH  14  20
ENDBRANCH   1  13
BRANCH   6  23
HETATM   23  S1  UNL     1      24.181   6.865  48.265  1.00  0.00    -0.146 SA
HETATM   24  H9  UNL     1      22.802   7.118  48.162  1.00  0.00     0.104 HD
ENDBRANCH   6  23
BRANCH   7  25
HETATM   25  C12 UNL     1      25.704   3.573  49.441  1.00  0.00     0.150 C 
BRANCH  25  26
HETATM   26  C13 UNL     1      26.535   3.263  50.629  1.00  0.00     0.292 C 
BRANCH  26  27
HETATM   27  N4  UNL     1      26.259   2.009  51.252  1.00  0.00     0.094 N 
HETATM   28  C14 UNL     1      27.221   1.695  52.297  1.00  0.00     0.298 C 
HETATM   29  C15 UNL     1      26.789   1.844  53.694  1.00  0.00     0.198 C 
HETATM   30  O1  UNL     1      25.437   1.645  53.953  1.00  0.00    -0.388 OA
HETATM   31  C16 UNL     1      24.770   2.537  53.099  1.00  0.00     0.198 C 
HETATM   32  C17 UNL     1      24.913   1.895  51.707  1.00  0.00     0.298 C 
ENDBRANCH  26  27
ENDBRANCH  25  26
ENDBRANCH   7  25
TORSDOF 6
ENDMDL
MODEL 6
REMARK VINA RESULT:      -6.9      3.144      5.863
REMARK  6 active torsions:
REMARK  status: ('A' for Active; 'I' for Inactive)
REMARK    1  A    between atoms: N1_1  and  C1_2 
REMARK    2  A    between atoms: C6_8  and  C7_9 
REMARK    3  A    between atoms: C11_14  and  S1_15 
REMARK    4  A    between atoms: N3_16  and  C12_17 
REMARK    5  A    between atoms: C12_17  and  C13_18 
REMARK    6  A    between atoms: C13_18  and  N4_19 
ROOT
HETATM    1  C7  UNL     1      23.841   1.411  51.535  1.00  0.00     0.104 C 
HETATM    2  C8  UNL     1      22.978   0.305  52.212  1.00  0.00     0.103 C 
HETATM    3  N2  UNL     1      21.651   0.458  52.064  1.00  0.00    -0.265 NA
HETATM    4  C9  UNL     1      21.313   1.844  52.472  1.00  0.00     0.057 C 
HETATM    5  C10 UNL     1      22.428   2.480  52.864  1.00  0.00     0.047 C 
HETATM    6  C11 UNL     1      23.016   2.544  51.454  1.00  0.00     0.109 C 
HETATM    7  N3  UNL     1      22.920   3.831  51.126  1.00  0.00    -0.374 N 
HETATM    8  C18 UNL     1      21.808   4.492  50.665  1.00  0.00     0.242 C 
HETATM    9  N5  UNL     1      20.449   4.423  51.001  1.00  0.00    -0.383 N 
HETATM   10  C19 UNL     1      19.557   3.431  51.623  1.00  0.00     0.086 C 
HETATM   11  C20 UNL     1      19.914   2.254  52.246  1.00  0.00     0.048 C 
HETATM   12  H24 UNL     1      19.760   5.198  50.824  1.00  0.00     0.160 HD
ENDROOT
BRANCH   1  13
HETATM   13  C6  UNL     1      25.155   1.430  52.225  1.00  0.00    -0.019 A 
HETATM   14  C1  UNL     1      26.352   1.935  51.770  1.00  0.00     0.034 A 
HETATM   15  C2  UNL     1      27.542   1.930  52.456  1.00  0.00     0.053 A 
HETATM   16  C3  UNL     1      27.588   1.383  53.715  1.00  0.00     0.036 A 
HETATM   17 CL1  UNL     1      29.070   1.346  54.647  1.00  0.00    -0.084 Cl
HETATM   18  C4  UNL     1      26.409   0.870  54.199  1.00  0.00     0.024 A 
HETATM   19  C5  UNL     1      25.241   0.888  53.493  1.00  0.00     0.012 A 
BRANCH  14  20
HETATM   20  N1  UNL     1      26.412   2.548  50.501  1.00  0.00    -0.399 N 
HETATM   21  H1  UNL     1      26.782   3.156  49.746  1.00  0.00     0.156 HD
HETATM   22  H2  UNL     1      26.152   2.795  49.528  1.00  0.00     0.156 HD
ENDBRANCH  14  20
ENDBRANCH   1  13
BRANCH   6  23
HETATM   23  S1  UNL     1      21.862   1.837  50.156  1.00  0.00    -0.146 SA
HETATM   24  H9  UNL     1      22.518   2.158  48.954  1.00  0.00     0.104 HD
ENDBRANCH   6  23
BRANCH   7  25
HETATM   25  C12 UNL     1      24.039   4.642  51.551  1.00  0.00     0.150 C 
BRANCH  25  26
HETATM   26  C13 UNL     1      23.822   6.104  51.646  1.00  0.00     0.292 C 
BRANCH  26  27
HETATM   27  N4  UNL     1      24.763   6.904  50.930  1.00  0.00     0.094 N 
HETATM   28  C14 UNL     1      25.478   6.137  49.922  1.00  0.00     0.298 C 
HETATM   29  C15 UNL     1      25.097   6.329  48.516  1.00  0.00     0.198 C 
HETATM   30  O1  UNL     1      24.602   7.582  48.170  1.00  0.00    -0.388 OA
HETATM   31  C16 UNL     1      23.523   7.797  49.041  1.00  0.00     0.198 C 
HETATM   32  C17 UNL     1      24.191   8.095  50.394  1.00  0.00     0.298 C 
ENDBRANCH  26  27
ENDBRANCH  25  26
ENDBRANCH   7  25
TORSDOF 6
ENDMDL
MODEL 7
REMARK VINA RESULT:      -6.9      2.922      4.803
REMARK  6 active torsions:
REMARK  status: ('A' for Active; 'I' for Inactive)
REMARK    1  A    between atoms: N1_1  and  C1_2 
REMARK    2  A    between atoms: C6_8  and  C7_9 
REMARK    3  A    between atoms: C11_14  and  S1_15 
REMARK    4  A    between atoms: N3_16  and  C12_17 
REMARK    5  A    between atoms: C12_17  and  C13_18 
REMARK    6  A    between atoms: C13_18  and  N4_19 
ROOT
HETATM    1  C7  UNL     1      24.169   3.692  50.936  1.00  0.00     0.104 C 
HETATM    2  C8  UNL     1      24.746   3.716  49.490  1.00  0.00     0.103 C 
HETATM    3  N2  UNL     1      23.867   4.080  48.540  1.00  0.00    -0.265 NA
HETATM    4  C9  UNL     1      22.654   3.241  48.710  1.00  0.00     0.057 C 
HETATM    5  C10 UNL     1      22.835   2.395  49.735  1.00  0.00     0.047 C 
HETATM    6  C11 UNL     1      22.785   3.498  50.794  1.00  0.00     0.109 C 
HETATM    7  N3  UNL     1      21.618   3.302  51.405  1.00  0.00    -0.374 N 
HETATM    8  C18 UNL     1      20.376   3.695  50.973  1.00  0.00     0.242 C 
HETATM    9  N5  UNL     1      19.769   3.723  49.710  1.00  0.00    -0.383 N 
HETATM   10  C19 UNL     1      20.226   3.757  48.311  1.00  0.00     0.086 C 
HETATM   11  C20 UNL     1      21.511   3.588  47.843  1.00  0.00     0.048 C 
HETATM   12  H24 UNL     1      18.728   3.725  49.559  1.00  0.00     0.160 HD
ENDROOT
BRANCH   1  13
HETATM   13  C6  UNL     1      25.022   2.780  51.738  1.00  0.00    -0.019 A 
HETATM   14  C1  UNL     1      25.247   2.793  53.095  1.00  0.00     0.034 A 
HETATM   15  C2  UNL     1      26.047   1.917  53.788  1.00  0.00     0.053 A 
HETATM   16  C3  UNL     1      26.702   0.922  53.105  1.00  0.00     0.036 A 
HETATM   17 CL1  UNL     1      27.735  -0.230  53.924  1.00  0.00    -0.084 Cl
HETATM   18  C4  UNL     1      26.498   0.882  51.747  1.00  0.00     0.024 A 
HETATM   19  C5  UNL     1      25.697   1.766  51.085  1.00  0.00     0.012 A 
BRANCH  14  20
HETATM   20  N1  UNL     1      24.600   3.754  53.900  1.00  0.00    -0.399 N 
HETATM   21  H1  UNL     1      23.821   4.208  54.413  1.00  0.00     0.156 HD
HETATM   22  H2  UNL     1      24.466   4.599  54.487  1.00  0.00     0.156 HD
ENDBRANCH  14  20
ENDBRANCH   1  13
BRANCH   6  23
HETATM   23  S1  UNL     1      22.438   5.188  50.061  1.00  0.00    -0.146 SA
HETATM   24  H9  UNL     1      22.436   6.020  51.195  1.00  0.00     0.104 HD
ENDBRANCH   6  23
BRANCH   7  25
HETATM   25  C12 UNL     1      21.667   2.356  52.497  1.00  0.00     0.150 C 
BRANCH  25  26
HETATM   26  C13 UNL     1      20.556   1.381  52.602  1.00  0.00     0.292 C 
BRANCH  26  27
HETATM   27  N4  UNL     1      20.948   0.010  52.586  1.00  0.00     0.094 N 
HETATM   28  C14 UNL     1      22.384  -0.146  52.416  1.00  0.00     0.298 C 
HETATM   29  C15 UNL     1      23.179  -0.517  53.596  1.00  0.00     0.198 C 
HETATM   30  O1  UNL     1      22.537  -1.284  54.564  1.00  0.00    -0.388 OA
HETATM   31  C16 UNL     1      21.395  -0.546  54.910  1.00  0.00     0.198 C 
HETATM   32  C17 UNL     1      20.456  -0.726  53.703  1.00  0.00     0.298 C 
ENDBRANCH  26  27
ENDBRANCH  25  26
ENDBRANCH   7  25
TORSDOF 6
ENDMDL
MODEL 8
REMARK VINA RESULT:      -6.6      4.035      7.232
REMARK  6 active torsions:
REMARK  status: ('A' for Active; 'I' for Inactive)
REMARK    1  A    between atoms: N1_1  and  C1_2 
REMARK    2  A    between atoms: C6_8  and  C7_9 
REMARK    3  A    between atoms: C11_14  and  S1_15 
REMARK    4  A    between atoms: N3_16  and  C12_17 
REMARK    5  A    between atoms: C12_17  and  C13_18 
REMARK    6  A    between atoms: C13_18  and  N4_19 
ROOT
HETATM    1  C7  UNL     1      22.652   1.399  52.950  1.00  0.00     0.104 C 
HETATM    2  C8  UNL     1      23.709   0.293  52.658  1.00  0.00     0.103 C 
HETATM    3  N2  UNL     1      24.924   0.753  52.312  1.00  0.00    -0.265 NA
HETATM    4  C9  UNL     1      24.734   1.735  51.216  1.00  0.00     0.057 C 
HETATM    5  C10 UNL     1      23.429   1.831  50.921  1.00  0.00     0.047 C 
HETATM    6  C11 UNL     1      23.074   2.531  52.235  1.00  0.00     0.109 C 
HETATM    7  N3  UNL     1      22.802   3.782  51.867  1.00  0.00    -0.374 N 
HETATM    8  C18 UNL     1      23.702   4.786  51.604  1.00  0.00     0.242 C 
HETATM    9  N5  UNL     1      24.944   4.809  50.955  1.00  0.00    -0.383 N 
HETATM   10  C19 UNL     1      25.999   3.831  50.644  1.00  0.00     0.086 C 
HETATM   11  C20 UNL     1      25.947   2.462  50.792  1.00  0.00     0.048 C 
HETATM   12  H24 UNL     1      25.367   5.672  50.529  1.00  0.00     0.160 HD
ENDROOT
BRANCH   1  13
HETATM   13  C6  UNL     1      21.311   0.791  52.760  1.00  0.00    -0.019 A 
HETATM   14  C1  UNL     1      20.524   0.151  53.689  1.00  0.00     0.034 A 
HETATM   15  C2  UNL     1      19.283  -0.392  53.458  1.00  0.00     0.053 A 
HETATM   16  C3  UNL     1      18.740  -0.312  52.199  1.00  0.00     0.036 A 
HETATM   17 CL1  UNL     1      17.162  -0.979  51.834  1.00  0.00    -0.084 Cl
HETATM   18  C4  UNL     1      19.501   0.322  51.247  1.00  0.00     0.024 A 
HETATM   19  C5  UNL     1      20.733   0.852  51.507  1.00  0.00     0.012 A 
BRANCH  14  20
HETATM   20  N1  UNL     1      20.971   0.038  55.022  1.00  0.00    -0.399 N 
HETATM   21  H1  UNL     1      21.204  -0.427  55.920  1.00  0.00     0.156 HD
HETATM   22  H2  UNL     1      21.345   0.317  55.949  1.00  0.00     0.156 HD
ENDBRANCH  14  20
ENDBRANCH   1  13
BRANCH   6  23
HETATM   23  S1  UNL     1      24.577   2.872  53.301  1.00  0.00    -0.146 SA
HETATM   24  H9  UNL     1      24.942   1.586  53.738  1.00  0.00     0.104 HD
ENDBRANCH   6  23
BRANCH   7  25
HETATM   25  C12 UNL     1      21.432   4.002  51.463  1.00  0.00     0.150 C 
BRANCH  25  26
HETATM   26  C13 UNL     1      21.150   5.204  50.643  1.00  0.00     0.292 C 
BRANCH  26  27
HETATM   27  N4  UNL     1      20.641   4.940  49.336  1.00  0.00     0.094 N 
HETATM   28  C14 UNL     1      20.645   6.128  48.498  1.00  0.00     0.298 C 
HETATM   29  C15 UNL     1      21.680   6.232  47.460  1.00  0.00     0.198 C 
HETATM   30  O1  UNL     1      22.144   5.037  46.920  1.00  0.00    -0.388 OA
HETATM   31  C16 UNL     1      22.580   4.287  48.024  1.00  0.00     0.198 C 
HETATM   32  C17 UNL     1      21.275   3.832  48.702  1.00  0.00     0.298 C 
ENDBRANCH  26  27
ENDBRANCH  25  26
ENDBRANCH   7  25
TORSDOF 6
ENDMDL
MODEL 9
REMARK VINA RESULT:      -6.6      8.292     10.959
REMARK  6 active torsions:
REMARK  status: ('A' for Active; 'I' for Inactive)
REMARK    1  A    between atoms: N1_1  and  C1_2 
REMARK    2  A    between atoms: C6_8  and  C7_9 
REMARK    3  A    between atoms: C11_14  and  S1_15 
REMARK    4  A    between atoms: N3_16  and  C12_17 
REMARK    5  A    between atoms: C12_17  and  C13_18 
REMARK    6  A    between atoms: C13_18  and  N4_19 
ROOT
HETATM    1  C7  UNL     1      30.247   6.961  48.587  1.00  0.00     0.104 C 
HETATM    2  C8  UNL     1      29.891   5.538  48.063  1.00  0.00     0.103 C 
HETATM    3  N2  UNL     1      30.949   4.735  47.852  1.00  0.00    -0.265 NA
HETATM    4  C9  UNL     1      31.915   5.483  47.010  1.00  0.00     0.057 C 
HETATM    5  C10 UNL     1      31.417   6.696  46.725  1.00  0.00     0.047 C 
HETATM    6  C11 UNL     1      31.560   7.210  48.159  1.00  0.00     0.109 C 
HETATM    7  N3  UNL     1      32.562   8.085  48.086  1.00  0.00    -0.374 N 
HETATM    8  C18 UNL     1      33.908   7.810  48.075  1.00  0.00     0.242 C 
HETATM    9  N5  UNL     1      34.673   6.805  47.468  1.00  0.00    -0.383 N 
HETATM   10  C19 UNL     1      34.429   5.447  46.956  1.00  0.00     0.086 C 
HETATM   11  C20 UNL     1      33.214   4.819  46.784  1.00  0.00     0.048 C 
HETATM   12  H24 UNL     1      35.700   6.894  47.260  1.00  0.00     0.160 HD
ENDROOT
BRANCH   1  13
HETATM   13  C6  UNL     1      29.114   7.855  48.241  1.00  0.00    -0.019 A 
HETATM   14  C1  UNL     1      28.702   9.000  48.883  1.00  0.00     0.034 A 
HETATM   15  C2  UNL     1      27.644   9.795  48.515  1.00  0.00     0.053 A 
HETATM   16  C3  UNL     1      26.902   9.455  47.411  1.00  0.00     0.036 A 
HETATM   17 CL1  UNL     1      25.542  10.424  46.883  1.00  0.00    -0.084 Cl
HETATM   18  C4  UNL     1      27.287   8.316  46.746  1.00  0.00     0.024 A 
HETATM   19  C5  UNL     1      28.344   7.544  47.136  1.00  0.00     0.012 A 
BRANCH  14  20
HETATM   20  N1  UNL     1      29.412   9.459  50.012  1.00  0.00    -0.399 N 
HETATM   21  H1  UNL     1      30.225   9.608  50.639  1.00  0.00     0.156 HD
HETATM   22  H2  UNL     1      29.598   9.929  50.918  1.00  0.00     0.156 HD
ENDBRANCH  14  20
ENDBRANCH   1  13
BRANCH   6  23
HETATM   23  S1  UNL     1      32.365   5.957  49.298  1.00  0.00    -0.146 SA
HETATM   24  H9  UNL     1      33.345   5.377  48.474  1.00  0.00     0.104 HD
ENDBRANCH   6  23
BRANCH   7  25
HETATM   25  C12 UNL     1      32.160   9.424  47.723  1.00  0.00     0.150 C 
BRANCH  25  26
HETATM   26  C13 UNL     1      32.806  10.030  46.534  1.00  0.00     0.292 C 
BRANCH  26  27
HETATM   27  N4  UNL     1      31.968  10.152  45.386  1.00  0.00     0.094 N 
HETATM   28  C14 UNL     1      30.557  10.167  45.737  1.00  0.00     0.298 C 
HETATM   29  C15 UNL     1      29.852  11.455  45.691  1.00  0.00     0.198 C 
HETATM   30  O1  UNL     1      30.316  12.387  44.768  1.00  0.00    -0.388 OA
HETATM   31  C16 UNL     1      31.678  12.544  45.068  1.00  0.00     0.198 C 
HETATM   32  C17 UNL     1      32.325  11.248  44.547  1.00  0.00     0.298 C 
ENDBRANCH  26  27
ENDBRANCH  25  26
ENDBRANCH   7  25
TORSDOF 6
ENDMDL
