MODEL 1
REMARK VINA RESULT:      -7.4      0.000      0.000
REMARK  4 active torsions:
REMARK  status: ('A' for Active; 'I' for Inactive)
REMARK    1  A    between atoms: O1_2  and  C2_3 
REMARK    2  A    between atoms: C2_3  and  C3_4 
REMARK    3  A    between atoms: C8_9  and  N1_10 
REMARK    4  A    between atoms: N1_10  and  C9_11 
ROOT
HETATM    1  C3  UNL     1      18.911  -0.515  52.634  1.00  0.00    -0.037 C 
HETATM    2  C4  UNL     1      18.581   0.195  51.362  1.00  0.00     0.048 C 
HETATM    3  C5  UNL     1      20.155  -0.567  53.070  1.00  0.00     0.017 C 
HETATM    4  C6  UNL     1      21.113   0.145  52.187  1.00  0.00     0.088 C 
HETATM    5  C7  UNL     1      22.507   0.122  52.625  1.00  0.00     0.030 C 
HETATM    6  C8  UNL     1      23.298  -0.409  53.561  1.00  0.00     0.125 C 
HETATM    7  N2  UNL     1      22.823  -1.243  54.574  1.00  0.00    -0.227 NA
HETATM    8  C15 UNL     1      21.673  -1.634  54.945  1.00  0.00     0.209 C 
HETATM    9  N3  UNL     1      20.512  -1.198  54.258  1.00  0.00    -0.354 N 
HETATM   10  H18 UNL     1      19.678  -1.423  54.880  1.00  0.00     0.166 HD
ENDROOT
BRANCH   6  11
HETATM   11  N1  UNL     1      24.619  -0.023  53.429  1.00  0.00    -0.341 N 
HETATM   12  H12 UNL     1      24.803  -0.581  52.545  1.00  0.00     0.167 HD
BRANCH  11  13
HETATM   13  C9  UNL     1      25.911   0.474  53.458  1.00  0.00     0.034 A 
HETATM   14  C10 UNL     1      26.181   1.853  53.453  1.00  0.00     0.029 A 
HETATM   15  C11 UNL     1      27.485   2.399  53.462  1.00  0.00     0.004 A 
HETATM   16  C12 UNL     1      28.385   1.383  53.484  1.00  0.00     0.019 A 
HETATM   17  C13 UNL     1      28.308   0.023  53.494  1.00  0.00     0.013 A 
HETATM   18 BR1  UNL     1      29.794  -1.151  53.523  1.00  0.00    -0.051 Br
HETATM   19  C14 UNL     1      27.003  -0.376  53.477  1.00  0.00     0.048 A 
ENDBRANCH  11  13
ENDBRANCH   6  11
BRANCH   1  20
HETATM   20  C2  UNL     1      17.671  -1.115  53.249  1.00  0.00     0.203 C 
BRANCH  20  21
HETATM   21  O1  UNL     1      18.017  -2.370  53.767  1.00  0.00    -0.392 OA
HETATM   22  C1  UNL     1      17.135  -3.375  53.482  1.00  0.00     0.201 C 
ENDBRANCH  20  21
ENDBRANCH   1  20
TORSDOF 4
ENDMDL
MODEL 2
REMARK VINA RESULT:      -7.4      3.968      8.090
REMARK  4 active torsions:
REMARK  status: ('A' for Active; 'I' for Inactive)
REMARK    1  A    between atoms: O1_2  and  C2_3 
REMARK    2  A    between atoms: C2_3  and  C3_4 
REMARK    3  A    between atoms: C8_9  and  N1_10 
REMARK    4  A    between atoms: N1_10  and  C9_11 
ROOT
HETATM    1  C3  UNL     1      25.970   0.299  53.345  1.00  0.00    -0.037 C 
HETATM    2  C4  UNL     1      26.101   1.120  52.104  1.00  0.00     0.048 C 
HETATM    3  C5  UNL     1      24.793  -0.161  53.724  1.00  0.00     0.017 C 
HETATM    4  C6  UNL     1      23.694   0.212  52.798  1.00  0.00     0.088 C 
HETATM    5  C7  UNL     1      22.367  -0.275  53.168  1.00  0.00     0.030 C 
HETATM    6  C8  UNL     1      21.728  -0.919  54.148  1.00  0.00     0.125 C 
HETATM    7  N2  UNL     1      22.372  -1.390  55.294  1.00  0.00    -0.227 NA
HETATM    8  C15 UNL     1      23.579  -1.444  55.683  1.00  0.00     0.209 C 
HETATM    9  N3  UNL     1      24.620  -0.947  54.860  1.00  0.00    -0.354 N 
HETATM   10  H18 UNL     1      25.535  -1.326  55.250  1.00  0.00     0.166 HD
ENDROOT
BRANCH   6  11
HETATM   11  N1  UNL     1      20.381  -1.086  53.891  1.00  0.00    -0.341 N 
HETATM   12  H12 UNL     1      20.045  -0.461  54.680  1.00  0.00     0.167 HD
BRANCH  11  13
HETATM   13  C9  UNL     1      19.088  -1.368  53.480  1.00  0.00     0.034 A 
HETATM   14  C10 UNL     1      18.314  -0.440  52.763  1.00  0.00     0.029 A 
HETATM   15  C11 UNL     1      16.986  -0.681  52.344  1.00  0.00     0.004 A 
HETATM   16  C12 UNL     1      16.620  -1.927  52.743  1.00  0.00     0.019 A 
HETATM   17  C13 UNL     1      17.224  -2.939  53.427  1.00  0.00     0.013 A 
HETATM   18 BR1  UNL     1      16.421  -4.605  53.837  1.00  0.00    -0.051 Br
HETATM   19  C14 UNL     1      18.492  -2.581  53.778  1.00  0.00     0.048 A 
ENDBRANCH  11  13
ENDBRANCH   6  11
BRANCH   1  20
HETATM   20  C2  UNL     1      27.309   0.132  54.019  1.00  0.00     0.203 C 
BRANCH  20  21
HETATM   21  O1  UNL     1      27.745  -1.178  53.781  1.00  0.00    -0.392 OA
HETATM   22  C1  UNL     1      29.056  -1.291  53.412  1.00  0.00     0.201 C 
ENDBRANCH  20  21
ENDBRANCH   1  20
TORSDOF 4
ENDMDL
MODEL 3
REMARK VINA RESULT:      -7.3      3.943      8.063
REMARK  4 active torsions:
REMARK  status: ('A' for Active; 'I' for Inactive)
REMARK    1  A    between atoms: O1_2  and  C2_3 
REMARK    2  A    between atoms: C2_3  and  C3_4 
REMARK    3  A    between atoms: C8_9  and  N1_10 
REMARK    4  A    between atoms: N1_10  and  C9_11 
ROOT
HETATM    1  C3  UNL     1      27.208   0.765  53.813  1.00  0.00    -0.037 C 
HETATM    2  C4  UNL     1      27.556   1.805  52.799  1.00  0.00     0.048 C 
HETATM    3  C5  UNL     1      25.968   0.328  53.926  1.00  0.00     0.017 C 
HETATM    4  C6  UNL     1      25.036   0.959  52.959  1.00  0.00     0.088 C 
HETATM    5  C7  UNL     1      23.648   0.507  53.037  1.00  0.00     0.030 C 
HETATM    6  C8  UNL     1      22.844  -0.270  53.767  1.00  0.00     0.125 C 
HETATM    7  N2  UNL     1      23.289  -1.007  54.866  1.00  0.00    -0.227 NA
HETATM    8  C15 UNL     1      24.423  -1.227  55.394  1.00  0.00     0.209 C 
HETATM    9  N3  UNL     1      25.595  -0.655  54.839  1.00  0.00    -0.354 N 
HETATM   10  H18 UNL     1      26.425  -1.170  55.262  1.00  0.00     0.166 HD
ENDROOT
BRANCH   6  11
HETATM   11  N1  UNL     1      21.542  -0.281  53.302  1.00  0.00    -0.341 N 
HETATM   12  H12 UNL     1      21.662   0.535  52.634  1.00  0.00     0.167 HD
BRANCH  11  13
HETATM   13  C9  UNL     1      20.212  -0.451  52.955  1.00  0.00     0.034 A 
HETATM   14  C10 UNL     1      19.362  -1.320  53.657  1.00  0.00     0.029 A 
HETATM   15  C11 UNL     1      18.005  -1.536  53.322  1.00  0.00     0.004 A 
HETATM   16  C12 UNL     1      17.694  -0.770  52.244  1.00  0.00     0.019 A 
HETATM   17  C13 UNL     1      18.372   0.110  51.455  1.00  0.00     0.013 A 
HETATM   18 BR1  UNL     1      17.633   1.041  49.981  1.00  0.00    -0.051 Br
HETATM   19  C14 UNL     1      19.664   0.223  51.877  1.00  0.00     0.048 A 
ENDBRANCH  11  13
ENDBRANCH   6  11
BRANCH   1  20
HETATM   20  C2  UNL     1      28.424   0.368  54.612  1.00  0.00     0.203 C 
BRANCH  20  21
HETATM   21  O1  UNL     1      28.738  -0.957  54.278  1.00  0.00    -0.392 OA
HETATM   22  C1  UNL     1      29.858  -1.108  53.510  1.00  0.00     0.201 C 
ENDBRANCH  20  21
ENDBRANCH   1  20
TORSDOF 4
ENDMDL
MODEL 4
REMARK VINA RESULT:      -7.1      5.266      8.299
REMARK  4 active torsions:
REMARK  status: ('A' for Active; 'I' for Inactive)
REMARK    1  A    between atoms: O1_2  and  C2_3 
REMARK    2  A    between atoms: C2_3  and  C3_4 
REMARK    3  A    between atoms: C8_9  and  N1_10 
REMARK    4  A    between atoms: N1_10  and  C9_11 
ROOT
HETATM    1  C3  UNL     1      25.653   5.305  49.133  1.00  0.00    -0.037 C 
HETATM    2  C4  UNL     1      24.471   5.985  48.524  1.00  0.00     0.048 C 
HETATM    3  C5  UNL     1      25.493   4.265  49.929  1.00  0.00     0.017 C 
HETATM    4  C6  UNL     1      24.070   3.881  50.107  1.00  0.00     0.088 C 
HETATM    5  C7  UNL     1      23.834   2.730  50.977  1.00  0.00     0.030 C 
HETATM    6  C8  UNL     1      24.478   1.885  51.786  1.00  0.00     0.125 C 
HETATM    7  N2  UNL     1      25.856   1.935  51.997  1.00  0.00    -0.227 NA
HETATM    8  C15 UNL     1      26.811   2.615  51.509  1.00  0.00     0.209 C 
HETATM    9  N3  UNL     1      26.561   3.584  50.504  1.00  0.00    -0.354 N 
HETATM   10  H18 UNL     1      27.500   3.830  50.067  1.00  0.00     0.166 HD
ENDROOT
BRANCH   6  11
HETATM   11  N1  UNL     1      23.638   0.950  52.363  1.00  0.00    -0.341 N 
HETATM   12  H12 UNL     1      23.975   0.131  51.778  1.00  0.00     0.167 HD
BRANCH  11  13
HETATM   13  C9  UNL     1      22.735   0.163  53.058  1.00  0.00     0.034 A 
HETATM   14  C10 UNL     1      23.128  -0.660  54.126  1.00  0.00     0.029 A 
HETATM   15  C11 UNL     1      22.241  -1.492  54.845  1.00  0.00     0.004 A 
HETATM   16  C12 UNL     1      20.991  -1.346  54.335  1.00  0.00     0.019 A 
HETATM   17  C13 UNL     1      20.438  -0.612  53.329  1.00  0.00     0.013 A 
HETATM   18 BR1  UNL     1      18.606  -0.631  52.849  1.00  0.00    -0.051 Br
HETATM   19  C14 UNL     1      21.395   0.140  52.712  1.00  0.00     0.048 A 
ENDBRANCH  11  13
ENDBRANCH   6  11
BRANCH   1  20
HETATM   20  C2  UNL     1      26.934   5.984  48.717  1.00  0.00     0.203 C 
BRANCH  20  21
HETATM   21  O1  UNL     1      27.869   4.984  48.419  1.00  0.00    -0.392 OA
HETATM   22  C1  UNL     1      29.120   5.437  48.107  1.00  0.00     0.201 C 
ENDBRANCH  20  21
ENDBRANCH   1  20
TORSDOF 4
ENDMDL
MODEL 5
REMARK VINA RESULT:      -6.9      5.039      6.788
REMARK  4 active torsions:
REMARK  status: ('A' for Active; 'I' for Inactive)
REMARK    1  A    between atoms: O1_2  and  C2_3 
REMARK    2  A    between atoms: C2_3  and  C3_4 
REMARK    3  A    between atoms: C8_9  and  N1_10 
REMARK    4  A    between atoms: N1_10  and  C9_11 
ROOT
HETATM    1  C3  UNL     1      25.185   0.083  53.017  1.00  0.00    -0.037 C 
HETATM    2  C4  UNL     1      26.384  -0.806  53.055  1.00  0.00     0.048 C 
HETATM    3  C5  UNL     1      25.194   1.192  52.302  1.00  0.00     0.017 C 
HETATM    4  C6  UNL     1      26.471   1.408  51.577  1.00  0.00     0.088 C 
HETATM    5  C7  UNL     1      26.535   2.621  50.764  1.00  0.00     0.030 C 
HETATM    6  C8  UNL     1      25.837   3.722  50.477  1.00  0.00     0.125 C 
HETATM    7  N2  UNL     1      24.579   3.988  51.020  1.00  0.00    -0.227 NA
HETATM    8  C15 UNL     1      23.772   3.346  51.762  1.00  0.00     0.209 C 
HETATM    9  N3  UNL     1      24.097   2.044  52.217  1.00  0.00    -0.354 N 
HETATM   10  H18 UNL     1      23.198   1.608  52.584  1.00  0.00     0.166 HD
ENDROOT
BRANCH   6  11
HETATM   11  N1  UNL     1      26.481   4.546  49.573  1.00  0.00    -0.341 N 
HETATM   12  H12 UNL     1      26.160   4.023  48.707  1.00  0.00     0.167 HD
BRANCH  11  13
HETATM   13  C9  UNL     1      27.185   5.476  48.826  1.00  0.00     0.034 A 
HETATM   14  C10 UNL     1      26.572   6.622  48.292  1.00  0.00     0.029 A 
HETATM   15  C11 UNL     1      27.250   7.583  47.508  1.00  0.00     0.004 A 
HETATM   16  C12 UNL     1      28.550   7.208  47.383  1.00  0.00     0.019 A 
HETATM   17  C13 UNL     1      29.300   6.159  47.821  1.00  0.00     0.013 A 
HETATM   18 BR1  UNL     1      31.143   5.914  47.463  1.00  0.00    -0.051 Br
HETATM   19  C14 UNL     1      28.531   5.304  48.557  1.00  0.00     0.048 A 
ENDBRANCH  11  13
ENDBRANCH   6  11
BRANCH   1  20
HETATM   20  C2  UNL     1      24.081  -0.470  53.884  1.00  0.00     0.203 C 
BRANCH  20  21
HETATM   21  O1  UNL     1      23.026  -0.845  53.041  1.00  0.00    -0.392 OA
HETATM   22  C1  UNL     1      21.783  -0.480  53.476  1.00  0.00     0.201 C 
ENDBRANCH  20  21
ENDBRANCH   1  20
TORSDOF 4
ENDMDL
MODEL 6
REMARK VINA RESULT:      -6.9      5.257      6.653
REMARK  4 active torsions:
REMARK  status: ('A' for Active; 'I' for Inactive)
REMARK    1  A    between atoms: O1_2  and  C2_3 
REMARK    2  A    between atoms: C2_3  and  C3_4 
REMARK    3  A    between atoms: C8_9  and  N1_10 
REMARK    4  A    between atoms: N1_10  and  C9_11 
ROOT
HETATM    1  C3  UNL     1      23.286   0.565  52.432  1.00  0.00    -0.037 C 
HETATM    2  C4  UNL     1      21.941   0.663  51.791  1.00  0.00     0.048 C 
HETATM    3  C5  UNL     1      24.295   1.291  51.991  1.00  0.00     0.017 C 
HETATM    4  C6  UNL     1      23.927   2.173  50.855  1.00  0.00     0.088 C 
HETATM    5  C7  UNL     1      25.007   3.004  50.328  1.00  0.00     0.030 C 
HETATM    6  C8  UNL     1      26.319   3.218  50.461  1.00  0.00     0.125 C 
HETATM    7  N2  UNL     1      27.112   2.526  51.378  1.00  0.00    -0.227 NA
HETATM    8  C15 UNL     1      26.886   1.681  52.298  1.00  0.00     0.209 C 
HETATM    9  N3  UNL     1      25.562   1.252  52.567  1.00  0.00    -0.354 N 
HETATM   10  H18 UNL     1      25.576   0.769  53.515  1.00  0.00     0.166 HD
ENDROOT
BRANCH   6  11
HETATM   11  N1  UNL     1      26.790   4.206  49.618  1.00  0.00    -0.341 N 
HETATM   12  H12 UNL     1      27.405   3.565  49.038  1.00  0.00     0.167 HD
BRANCH  11  13
HETATM   13  C9  UNL     1      27.143   5.320  48.874  1.00  0.00     0.034 A 
HETATM   14  C10 UNL     1      28.445   5.507  48.382  1.00  0.00     0.029 A 
HETATM   15  C11 UNL     1      28.849   6.638  47.637  1.00  0.00     0.004 A 
HETATM   16  C12 UNL     1      27.785   7.469  47.490  1.00  0.00     0.019 A 
HETATM   17  C13 UNL     1      26.482   7.451  47.888  1.00  0.00     0.013 A 
HETATM   18 BR1  UNL     1      25.211   8.804  47.514  1.00  0.00    -0.051 Br
HETATM   19  C14 UNL     1      26.222   6.316  48.599  1.00  0.00     0.048 A 
ENDBRANCH  11  13
ENDBRANCH   6  11
BRANCH   1  20
HETATM   20  C2  UNL     1      23.270  -0.440  53.557  1.00  0.00     0.203 C 
BRANCH  20  21
HETATM   21  O1  UNL     1      22.117  -1.224  53.410  1.00  0.00    -0.392 OA
HETATM   22  C1  UNL     1      21.539  -1.625  54.582  1.00  0.00     0.201 C 
ENDBRANCH  20  21
ENDBRANCH   1  20
TORSDOF 4
ENDMDL
MODEL 7
REMARK VINA RESULT:      -6.8      5.134      6.543
REMARK  4 active torsions:
REMARK  status: ('A' for Active; 'I' for Inactive)
REMARK    1  A    between atoms: O1_2  and  C2_3 
REMARK    2  A    between atoms: C2_3  and  C3_4 
REMARK    3  A    between atoms: C8_9  and  N1_10 
REMARK    4  A    between atoms: N1_10  and  C9_11 
ROOT
HETATM    1  C3  UNL     1      23.323   0.947  52.338  1.00  0.00    -0.037 C 
HETATM    2  C4  UNL     1      21.969   1.079  51.722  1.00  0.00     0.048 C 
HETATM    3  C5  UNL     1      24.343   1.641  51.871  1.00  0.00     0.017 C 
HETATM    4  C6  UNL     1      23.978   2.523  50.735  1.00  0.00     0.088 C 
HETATM    5  C7  UNL     1      25.071   3.320  50.180  1.00  0.00     0.030 C 
HETATM    6  C8  UNL     1      26.390   3.497  50.286  1.00  0.00     0.125 C 
HETATM    7  N2  UNL     1      27.182   2.791  51.193  1.00  0.00    -0.227 NA
HETATM    8  C15 UNL     1      26.949   1.959  52.125  1.00  0.00     0.209 C 
HETATM    9  N3  UNL     1      25.619   1.570  52.423  1.00  0.00    -0.354 N 
HETATM   10  H18 UNL     1      25.638   1.095  53.375  1.00  0.00     0.166 HD
ENDROOT
BRANCH   6  11
HETATM   11  N1  UNL     1      26.872   4.465  49.425  1.00  0.00    -0.341 N 
HETATM   12  H12 UNL     1      26.135   4.316  48.677  1.00  0.00     0.167 HD
BRANCH  11  13
HETATM   13  C9  UNL     1      27.492   5.471  48.703  1.00  0.00     0.034 A 
HETATM   14  C10 UNL     1      26.792   6.596  48.238  1.00  0.00     0.029 A 
HETATM   15  C11 UNL     1      27.384   7.633  47.481  1.00  0.00     0.004 A 
HETATM   16  C12 UNL     1      28.700   7.349  47.303  1.00  0.00     0.019 A 
HETATM   17  C13 UNL     1      29.528   6.333  47.673  1.00  0.00     0.013 A 
HETATM   18 BR1  UNL     1      31.372   6.224  47.253  1.00  0.00    -0.051 Br
HETATM   19  C14 UNL     1      28.838   5.399  48.389  1.00  0.00     0.048 A 
ENDBRANCH  11  13
ENDBRANCH   6  11
BRANCH   1  20
HETATM   20  C2  UNL     1      23.300  -0.048  53.472  1.00  0.00     0.203 C 
BRANCH  20  21
HETATM   21  O1  UNL     1      22.392  -1.060  53.131  1.00  0.00    -0.392 OA
HETATM   22  C1  UNL     1      21.749  -1.638  54.189  1.00  0.00     0.201 C 
ENDBRANCH  20  21
ENDBRANCH   1  20
TORSDOF 4
ENDMDL
MODEL 8
REMARK VINA RESULT:      -6.8      6.068      9.291
REMARK  4 active torsions:
REMARK  status: ('A' for Active; 'I' for Inactive)
REMARK    1  A    between atoms: O1_2  and  C2_3 
REMARK    2  A    between atoms: C2_3  and  C3_4 
REMARK    3  A    between atoms: C8_9  and  N1_10 
REMARK    4  A    between atoms: N1_10  and  C9_11 
ROOT
HETATM    1  C3  UNL     1      27.776   6.253  48.157  1.00  0.00    -0.037 C 
HETATM    2  C4  UNL     1      29.108   5.577  48.171  1.00  0.00     0.048 C 
HETATM    3  C5  UNL     1      26.709   5.644  48.637  1.00  0.00     0.017 C 
HETATM    4  C6  UNL     1      27.001   4.291  49.174  1.00  0.00     0.088 C 
HETATM    5  C7  UNL     1      25.854   3.572  49.724  1.00  0.00     0.030 C 
HETATM    6  C8  UNL     1      24.529   3.670  49.860  1.00  0.00     0.125 C 
HETATM    7  N2  UNL     1      23.797   4.768  49.406  1.00  0.00    -0.227 NA
HETATM    8  C15 UNL     1      24.095   5.889  48.889  1.00  0.00     0.209 C 
HETATM    9  N3  UNL     1      25.450   6.238  48.666  1.00  0.00    -0.354 N 
HETATM   10  H18 UNL     1      25.477   7.286  48.484  1.00  0.00     0.166 HD
ENDROOT
BRANCH   6  11
HETATM   11  N1  UNL     1      23.976   2.586  50.516  1.00  0.00    -0.341 N 
HETATM   12  H12 UNL     1      23.607   2.111  49.642  1.00  0.00     0.167 HD
BRANCH  11  13
HETATM   13  C9  UNL     1      23.494   1.582  51.340  1.00  0.00     0.034 A 
HETATM   14  C10 UNL     1      22.185   1.087  51.226  1.00  0.00     0.029 A 
HETATM   15  C11 UNL     1      21.650   0.079  52.060  1.00  0.00     0.004 A 
HETATM   16  C12 UNL     1      22.603  -0.307  52.948  1.00  0.00     0.019 A 
HETATM   17  C13 UNL     1      23.893   0.053  53.198  1.00  0.00     0.013 A 
HETATM   18 BR1  UNL     1      24.987  -0.694  54.551  1.00  0.00    -0.051 Br
HETATM   19  C14 UNL     1      24.286   1.033  52.333  1.00  0.00     0.048 A 
ENDBRANCH  11  13
ENDBRANCH   6  11
BRANCH   1  20
HETATM   20  C2  UNL     1      27.878   7.622  47.531  1.00  0.00     0.203 C 
BRANCH  20  21
HETATM   21  O1  UNL     1      27.416   8.554  48.469  1.00  0.00    -0.392 OA
HETATM   22  C1  UNL     1      28.393   9.172  49.198  1.00  0.00     0.201 C 
ENDBRANCH  20  21
ENDBRANCH   1  20
TORSDOF 4
ENDMDL
MODEL 9
REMARK VINA RESULT:      -6.7      5.505      8.504
REMARK  4 active torsions:
REMARK  status: ('A' for Active; 'I' for Inactive)
REMARK    1  A    between atoms: O1_2  and  C2_3 
REMARK    2  A    between atoms: C2_3  and  C3_4 
REMARK    3  A    between atoms: C8_9  and  N1_10 
REMARK    4  A    between atoms: N1_10  and  C9_11 
ROOT
HETATM    1  C3  UNL     1      26.023   5.177  49.462  1.00  0.00    -0.037 C 
HETATM    2  C4  UNL     1      27.136   4.312  48.970  1.00  0.00     0.048 C 
HETATM    3  C5  UNL     1      25.071   4.676  50.226  1.00  0.00     0.017 C 
HETATM    4  C6  UNL     1      25.260   3.234  50.523  1.00  0.00     0.088 C 
HETATM    5  C7  UNL     1      24.235   2.628  51.371  1.00  0.00     0.030 C 
HETATM    6  C8  UNL     1      23.068   2.905  51.956  1.00  0.00     0.125 C 
HETATM    7  N2  UNL     1      22.449   4.153  51.866  1.00  0.00    -0.227 NA
HETATM    8  C15 UNL     1      22.771   5.277  51.369  1.00  0.00     0.209 C 
HETATM    9  N3  UNL     1      24.024   5.444  50.728  1.00  0.00    -0.354 N 
HETATM   10  H18 UNL     1      24.188   6.491  50.631  1.00  0.00     0.166 HD
ENDROOT
BRANCH   6  11
HETATM   11  N1  UNL     1      22.560   1.838  52.673  1.00  0.00    -0.341 N 
HETATM   12  H12 UNL     1      22.857   2.200  53.625  1.00  0.00     0.167 HD
BRANCH  11  13
HETATM   13  C9  UNL     1      21.988   0.699  53.216  1.00  0.00     0.034 A 
HETATM   14  C10 UNL     1      22.721  -0.199  54.008  1.00  0.00     0.029 A 
HETATM   15  C11 UNL     1      22.179  -1.382  54.563  1.00  0.00     0.004 A 
HETATM   16  C12 UNL     1      20.872  -1.474  54.205  1.00  0.00     0.019 A 
HETATM   17  C13 UNL     1      20.017  -0.717  53.463  1.00  0.00     0.013 A 
HETATM   18 BR1  UNL     1      18.198  -1.131  53.140  1.00  0.00    -0.051 Br
HETATM   19  C14 UNL     1      20.660   0.387  52.982  1.00  0.00     0.048 A 
ENDBRANCH  11  13
ENDBRANCH   6  11
BRANCH   1  20
HETATM   20  C2  UNL     1      26.175   6.588  48.949  1.00  0.00     0.203 C 
BRANCH  20  21
HETATM   21  O1  UNL     1      26.325   7.430  50.059  1.00  0.00    -0.392 OA
HETATM   22  C1  UNL     1      26.901   8.640  49.791  1.00  0.00     0.201 C 
ENDBRANCH  20  21
ENDBRANCH   1  20
TORSDOF 4
ENDMDL
