MODEL 1
REMARK VINA RESULT:      -7.9      0.000      0.000
REMARK  6 active torsions:
REMARK  status: ('A' for Active; 'I' for Inactive)
REMARK    1  A    between atoms: C5_5  and  C6_6 
REMARK    2  A    between atoms: C6_6  and  C7_7 
REMARK    3  A    between atoms: C8_8  and  C9_9 
REMARK    4  A    between atoms: N1_15  and  N2_16 
REMARK    5  A    between atoms: N2_16  and  C15_17 
REMARK    6  A    between atoms: C15_17  and  N3_18 
ROOT
HETATM    1  C6  UNL     1      26.483   2.159  52.430  1.00  0.00     0.067 C 
HETATM    2  N1  UNL     1      27.408   1.887  53.261  1.00  0.00    -0.176 NA
ENDROOT
BRANCH   1   3
HETATM    3  C5  UNL     1      25.083   1.658  52.550  1.00  0.00    -0.027 A 
HETATM    4  C4  UNL     1      24.090   2.523  52.512  1.00  0.00     0.010 A 
HETATM    5  C3  UNL     1      22.776   1.927  52.638  1.00  0.00     0.003 A 
HETATM    6  C2  UNL     1      23.005   0.639  52.756  1.00  0.00    -0.080 A 
HETATM    7  C1  UNL     1      22.129  -0.560  52.920  1.00  0.00     0.043 C 
HETATM    8  C16 UNL     1      24.445   0.361  52.715  1.00  0.00     0.074 A 
ENDBRANCH   1   3
BRANCH   1   9
HETATM    9  C7  UNL     1      26.494   2.982  51.197  1.00  0.00     0.088 C 
HETATM   10  C8  UNL     1      26.441   2.855  49.857  1.00  0.00     0.016 C 
BRANCH  10  11
HETATM   11  C9  UNL     1      26.509   4.215  49.279  1.00  0.00    -0.057 A 
HETATM   12  C10 UNL     1      25.461   5.104  49.168  1.00  0.00     0.007 A 
HETATM   13  C11 UNL     1      25.503   6.370  48.635  1.00  0.00     0.001 A 
HETATM   14  C12 UNL     1      26.712   6.819  48.154  1.00  0.00     0.000 A 
HETATM   15  C13 UNL     1      27.820   6.016  48.216  1.00  0.00     0.001 A 
HETATM   16  C14 UNL     1      27.660   4.768  48.770  1.00  0.00     0.007 A 
ENDBRANCH  10  11
ENDBRANCH   1   9
BRANCH   2  17
HETATM   17  N2  UNL     1      27.505   1.176  54.378  1.00  0.00    -0.253 N 
HETATM   18  H13 UNL     1      26.841   0.840  55.138  1.00  0.00     0.191 HD
BRANCH  17  19
HETATM   19  C15 UNL     1      28.927   0.945  54.311  1.00  0.00     0.185 C 
HETATM   20  S1  UNL     1      29.633  -0.445  53.825  1.00  0.00    -0.040 SA
BRANCH  19  21
HETATM   21  N3  UNL     1      29.711   2.048  54.708  1.00  0.00    -0.375 N 
HETATM   22  H14 UNL     1      30.564   2.351  54.180  1.00  0.00     0.158 HD
HETATM   23  H15 UNL     1      30.223   2.882  55.092  1.00  0.00     0.158 HD
ENDBRANCH  19  21
ENDBRANCH  17  19
ENDBRANCH   2  17
TORSDOF 6
ENDMDL
MODEL 2
REMARK VINA RESULT:      -7.9      2.818      6.832
REMARK  6 active torsions:
REMARK  status: ('A' for Active; 'I' for Inactive)
REMARK    1  A    between atoms: C5_5  and  C6_6 
REMARK    2  A    between atoms: C6_6  and  C7_7 
REMARK    3  A    between atoms: C8_8  and  C9_9 
REMARK    4  A    between atoms: N1_15  and  N2_16 
REMARK    5  A    between atoms: N2_16  and  C15_17 
REMARK    6  A    between atoms: C15_17  and  N3_18 
ROOT
HETATM    1  C6  UNL     1      25.500   1.845  51.956  1.00  0.00     0.067 C 
HETATM    2  N1  UNL     1      25.777   2.882  51.272  1.00  0.00    -0.176 NA
ENDROOT
BRANCH   1   3
HETATM    3  C5  UNL     1      26.517   0.858  52.421  1.00  0.00    -0.027 A 
HETATM    4  C4  UNL     1      26.240  -0.428  52.348  1.00  0.00     0.010 A 
HETATM    5  C3  UNL     1      27.298  -1.293  52.827  1.00  0.00     0.003 A 
HETATM    6  C2  UNL     1      28.253  -0.473  53.204  1.00  0.00    -0.080 A 
HETATM    7  C1  UNL     1      29.615  -0.666  53.788  1.00  0.00     0.043 C 
HETATM    8  C16 UNL     1      27.855   0.922  52.990  1.00  0.00     0.074 A 
ENDBRANCH   1   3
BRANCH   1   9
HETATM    9  C7  UNL     1      24.205   1.333  52.464  1.00  0.00     0.088 C 
HETATM   10  C8  UNL     1      22.934   1.730  52.668  1.00  0.00     0.016 C 
BRANCH  10  11
HETATM   11  C9  UNL     1      22.196   0.580  53.238  1.00  0.00    -0.057 A 
HETATM   12  C10 UNL     1      22.738  -0.444  53.984  1.00  0.00     0.007 A 
HETATM   13  C11 UNL     1      22.071  -1.519  54.521  1.00  0.00     0.001 A 
HETATM   14  C12 UNL     1      20.714  -1.601  54.302  1.00  0.00     0.000 A 
HETATM   15  C13 UNL     1      20.074  -0.634  53.574  1.00  0.00     0.001 A 
HETATM   16  C14 UNL     1      20.843   0.395  53.085  1.00  0.00     0.007 A 
ENDBRANCH  10  11
ENDBRANCH   1   9
BRANCH   2  17
HETATM   17  N2  UNL     1      26.881   3.427  50.774  1.00  0.00    -0.253 N 
HETATM   18  H13 UNL     1      27.929   3.305  50.909  1.00  0.00     0.191 HD
BRANCH  17  19
HETATM   19  C15 UNL     1      26.227   4.363  49.893  1.00  0.00     0.185 C 
HETATM   20  S1  UNL     1      24.656   4.301  49.453  1.00  0.00    -0.040 SA
BRANCH  19  21
HETATM   21  N3  UNL     1      27.068   5.387  49.411  1.00  0.00    -0.375 N 
HETATM   22  H14 UNL     1      26.781   6.395  49.406  1.00  0.00     0.158 HD
HETATM   23  H15 UNL     1      27.771   6.068  49.029  1.00  0.00     0.158 HD
ENDBRANCH  19  21
ENDBRANCH  17  19
ENDBRANCH   2  17
TORSDOF 6
ENDMDL
MODEL 3
REMARK VINA RESULT:      -7.7      1.769      2.263
REMARK  6 active torsions:
REMARK  status: ('A' for Active; 'I' for Inactive)
REMARK    1  A    between atoms: C5_5  and  C6_6 
REMARK    2  A    between atoms: C6_6  and  C7_7 
REMARK    3  A    between atoms: C8_8  and  C9_9 
REMARK    4  A    between atoms: N1_15  and  N2_16 
REMARK    5  A    between atoms: N2_16  and  C15_17 
REMARK    6  A    between atoms: C15_17  and  N3_18 
ROOT
HETATM    1  C6  UNL     1      25.942   0.444  52.539  1.00  0.00     0.067 C 
HETATM    2  N1  UNL     1      26.905  -0.281  52.948  1.00  0.00    -0.176 NA
ENDROOT
BRANCH   1   3
HETATM    3  C5  UNL     1      24.525   0.268  52.973  1.00  0.00    -0.027 A 
HETATM    4  C4  UNL     1      23.590   1.012  52.419  1.00  0.00     0.010 A 
HETATM    5  C3  UNL     1      22.254   0.757  52.916  1.00  0.00     0.003 A 
HETATM    6  C2  UNL     1      22.408  -0.191  53.812  1.00  0.00    -0.080 A 
HETATM    7  C1  UNL     1      21.471  -0.933  54.709  1.00  0.00     0.043 C 
HETATM    8  C16 UNL     1      23.819  -0.573  53.928  1.00  0.00     0.074 A 
ENDBRANCH   1   3
BRANCH   1   9
HETATM    9  C7  UNL     1      25.916   1.586  51.594  1.00  0.00     0.088 C 
HETATM   10  C8  UNL     1      26.747   2.350  50.858  1.00  0.00     0.016 C 
BRANCH  10  11
HETATM   11  C9  UNL     1      25.917   3.342  50.139  1.00  0.00    -0.057 A 
HETATM   12  C10 UNL     1      24.561   3.254  49.910  1.00  0.00     0.007 A 
HETATM   13  C11 UNL     1      23.773   4.163  49.245  1.00  0.00     0.001 A 
HETATM   14  C12 UNL     1      24.385   5.291  48.746  1.00  0.00     0.000 A 
HETATM   15  C13 UNL     1      25.731   5.479  48.919  1.00  0.00     0.001 A 
HETATM   16  C14 UNL     1      26.418   4.502  49.599  1.00  0.00     0.007 A 
ENDBRANCH  10  11
ENDBRANCH   1   9
BRANCH   2  17
HETATM   17  N2  UNL     1      27.038  -1.308  53.778  1.00  0.00    -0.253 N 
HETATM   18  H13 UNL     1      26.435  -1.790  54.511  1.00  0.00     0.191 HD
BRANCH  17  19
HETATM   19  C15 UNL     1      28.386  -1.657  53.404  1.00  0.00     0.185 C 
HETATM   20  S1  UNL     1      29.654  -0.629  53.389  1.00  0.00    -0.040 SA
BRANCH  19  21
HETATM   21  N3  UNL     1      28.552  -3.007  53.035  1.00  0.00    -0.375 N 
HETATM   22  H14 UNL     1      29.123  -3.680  53.601  1.00  0.00     0.158 HD
HETATM   23  H15 UNL     1      28.611  -3.991  52.669  1.00  0.00     0.158 HD
ENDBRANCH  19  21
ENDBRANCH  17  19
ENDBRANCH   2  17
TORSDOF 6
ENDMDL
MODEL 4
REMARK VINA RESULT:      -7.7      3.754      5.767
REMARK  6 active torsions:
REMARK  status: ('A' for Active; 'I' for Inactive)
REMARK    1  A    between atoms: C5_5  and  C6_6 
REMARK    2  A    between atoms: C6_6  and  C7_7 
REMARK    3  A    between atoms: C8_8  and  C9_9 
REMARK    4  A    between atoms: N1_15  and  N2_16 
REMARK    5  A    between atoms: N2_16  and  C15_17 
REMARK    6  A    between atoms: C15_17  and  N3_18 
ROOT
HETATM    1  C6  UNL     1      24.144   2.262  52.716  1.00  0.00     0.067 C 
HETATM    2  N1  UNL     1      24.097   3.534  52.685  1.00  0.00    -0.176 NA
ENDROOT
BRANCH   1   3
HETATM    3  C5  UNL     1      22.943   1.383  52.620  1.00  0.00    -0.027 A 
HETATM    4  C4  UNL     1      22.442   1.113  51.432  1.00  0.00     0.010 A 
HETATM    5  C3  UNL     1      21.278   0.252  51.458  1.00  0.00     0.003 A 
HETATM    6  C2  UNL     1      21.080  -0.002  52.732  1.00  0.00    -0.080 A 
HETATM    7  C1  UNL     1      20.074  -0.809  53.484  1.00  0.00     0.043 C 
HETATM    8  C16 UNL     1      22.085   0.674  53.558  1.00  0.00     0.074 A 
ENDBRANCH   1   3
BRANCH   1   9
HETATM    9  C7  UNL     1      25.293   1.334  52.843  1.00  0.00     0.088 C 
HETATM   10  C8  UNL     1      25.595   0.027  52.724  1.00  0.00     0.016 C 
BRANCH  10  11
HETATM   11  C9  UNL     1      27.036  -0.125  53.029  1.00  0.00    -0.057 A 
HETATM   12  C10 UNL     1      27.752  -1.302  53.005  1.00  0.00     0.007 A 
HETATM   13  C11 UNL     1      29.088  -1.463  53.285  1.00  0.00     0.001 A 
HETATM   14  C12 UNL     1      29.807  -0.340  53.627  1.00  0.00     0.000 A 
HETATM   15  C13 UNL     1      29.193   0.882  53.680  1.00  0.00     0.001 A 
HETATM   16  C14 UNL     1      27.851   0.924  53.381  1.00  0.00     0.007 A 
ENDBRANCH  10  11
ENDBRANCH   1   9
BRANCH   2  17
HETATM   17  N2  UNL     1      23.142   4.449  52.575  1.00  0.00    -0.253 N 
HETATM   18  H13 UNL     1      22.167   4.599  52.975  1.00  0.00     0.191 HD
BRANCH  17  19
HETATM   19  C15 UNL     1      23.833   5.306  51.643  1.00  0.00     0.185 C 
HETATM   20  S1  UNL     1      24.101   4.963  50.070  1.00  0.00    -0.040 SA
BRANCH  19  21
HETATM   21  N3  UNL     1      24.286   6.520  52.201  1.00  0.00    -0.375 N 
HETATM   22  H14 UNL     1      25.300   6.713  52.380  1.00  0.00     0.158 HD
HETATM   23  H15 UNL     1      24.514   7.456  52.620  1.00  0.00     0.158 HD
ENDBRANCH  19  21
ENDBRANCH  17  19
ENDBRANCH   2  17
TORSDOF 6
ENDMDL
MODEL 5
REMARK VINA RESULT:      -7.5      2.773      4.318
REMARK  6 active torsions:
REMARK  status: ('A' for Active; 'I' for Inactive)
REMARK    1  A    between atoms: C5_5  and  C6_6 
REMARK    2  A    between atoms: C6_6  and  C7_7 
REMARK    3  A    between atoms: C8_8  and  C9_9 
REMARK    4  A    between atoms: N1_15  and  N2_16 
REMARK    5  A    between atoms: N2_16  and  C15_17 
REMARK    6  A    between atoms: C15_17  and  N3_18 
ROOT
HETATM    1  C6  UNL     1      25.172   1.243  52.284  1.00  0.00     0.067 C 
HETATM    2  N1  UNL     1      24.161   0.616  52.737  1.00  0.00    -0.176 NA
ENDROOT
BRANCH   1   3
HETATM    3  C5  UNL     1      26.574   0.993  52.729  1.00  0.00    -0.027 A 
HETATM    4  C4  UNL     1      27.317   2.014  53.101  1.00  0.00     0.010 A 
HETATM    5  C3  UNL     1      28.659   1.656  53.512  1.00  0.00     0.003 A 
HETATM    6  C2  UNL     1      28.711   0.351  53.375  1.00  0.00    -0.080 A 
HETATM    7  C1  UNL     1      29.770  -0.676  53.613  1.00  0.00     0.043 C 
HETATM    8  C16 UNL     1      27.434  -0.171  52.879  1.00  0.00     0.074 A 
ENDBRANCH   1   3
BRANCH   1   9
HETATM    9  C7  UNL     1      25.275   2.316  51.267  1.00  0.00     0.088 C 
HETATM   10  C8  UNL     1      24.545   2.919  50.308  1.00  0.00     0.016 C 
BRANCH  10  11
HETATM   11  C9  UNL     1      25.397   3.960  49.691  1.00  0.00    -0.057 A 
HETATM   12  C10 UNL     1      25.004   5.237  49.355  1.00  0.00     0.007 A 
HETATM   13  C11 UNL     1      25.778   6.217  48.782  1.00  0.00     0.001 A 
HETATM   14  C12 UNL     1      27.092   5.911  48.506  1.00  0.00     0.000 A 
HETATM   15  C13 UNL     1      27.587   4.669  48.801  1.00  0.00     0.001 A 
HETATM   16  C14 UNL     1      26.720   3.768  49.372  1.00  0.00     0.007 A 
ENDBRANCH  10  11
ENDBRANCH   1   9
BRANCH   2  17
HETATM   17  N2  UNL     1      23.958  -0.347  53.629  1.00  0.00    -0.253 N 
HETATM   18  H13 UNL     1      24.566  -0.977  54.234  1.00  0.00     0.191 HD
BRANCH  17  19
HETATM   19  C15 UNL     1      22.518  -0.340  53.564  1.00  0.00     0.185 C 
HETATM   20  S1  UNL     1      21.637   0.084  52.256  1.00  0.00    -0.040 SA
BRANCH  19  21
HETATM   21  N3  UNL     1      21.883  -0.742  54.757  1.00  0.00    -0.375 N 
HETATM   22  H14 UNL     1      21.884  -1.737  55.087  1.00  0.00     0.158 HD
HETATM   23  H15 UNL     1      21.380  -0.933  55.659  1.00  0.00     0.158 HD
ENDBRANCH  19  21
ENDBRANCH  17  19
ENDBRANCH   2  17
TORSDOF 6
ENDMDL
MODEL 6
REMARK VINA RESULT:      -7.3      4.082      5.841
REMARK  6 active torsions:
REMARK  status: ('A' for Active; 'I' for Inactive)
REMARK    1  A    between atoms: C5_5  and  C6_6 
REMARK    2  A    between atoms: C6_6  and  C7_7 
REMARK    3  A    between atoms: C8_8  and  C9_9 
REMARK    4  A    between atoms: N1_15  and  N2_16 
REMARK    5  A    between atoms: N2_16  and  C15_17 
REMARK    6  A    between atoms: C15_17  and  N3_18 
ROOT
HETATM    1  C6  UNL     1      24.136   3.080  52.380  1.00  0.00     0.067 C 
HETATM    2  N1  UNL     1      23.883   4.239  52.843  1.00  0.00    -0.176 NA
ENDROOT
BRANCH   1   3
HETATM    3  C5  UNL     1      23.186   2.294  51.540  1.00  0.00    -0.027 A 
HETATM    4  C4  UNL     1      22.418   1.393  52.118  1.00  0.00     0.010 A 
HETATM    5  C3  UNL     1      21.537   0.690  51.209  1.00  0.00     0.003 A 
HETATM    6  C2  UNL     1      21.798   1.205  50.029  1.00  0.00    -0.080 A 
HETATM    7  C1  UNL     1      21.271   0.962  48.652  1.00  0.00     0.043 C 
HETATM    8  C16 UNL     1      22.837   2.234  50.129  1.00  0.00     0.074 A 
ENDBRANCH   1   3
BRANCH   1   9
HETATM    9  C7  UNL     1      25.338   2.222  52.509  1.00  0.00     0.088 C 
HETATM   10  C8  UNL     1      25.969   1.210  51.883  1.00  0.00     0.016 C 
BRANCH  10  11
HETATM   11  C9  UNL     1      27.176   0.883  52.674  1.00  0.00    -0.057 A 
HETATM   12  C10 UNL     1      27.985   1.784  53.332  1.00  0.00     0.007 A 
HETATM   13  C11 UNL     1      29.109   1.501  54.071  1.00  0.00     0.001 A 
HETATM   14  C12 UNL     1      29.485   0.181  54.178  1.00  0.00     0.000 A 
HETATM   15  C13 UNL     1      28.750  -0.797  53.563  1.00  0.00     0.001 A 
HETATM   16  C14 UNL     1      27.645  -0.397  52.850  1.00  0.00     0.007 A 
ENDBRANCH  10  11
ENDBRANCH   1   9
BRANCH   2  17
HETATM   17  N2  UNL     1      22.860   5.084  52.788  1.00  0.00    -0.253 N 
HETATM   18  H13 UNL     1      21.925   5.195  53.283  1.00  0.00     0.191 HD
BRANCH  17  19
HETATM   19  C15 UNL     1      23.389   5.924  51.742  1.00  0.00     0.185 C 
HETATM   20  S1  UNL     1      22.820   5.993  50.213  1.00  0.00    -0.040 SA
BRANCH  19  21
HETATM   21  N3  UNL     1      24.480   6.723  52.139  1.00  0.00    -0.375 N 
HETATM   22  H14 UNL     1      25.460   6.538  51.815  1.00  0.00     0.158 HD
HETATM   23  H15 UNL     1      25.219   7.380  52.495  1.00  0.00     0.158 HD
ENDBRANCH  19  21
ENDBRANCH  17  19
ENDBRANCH   2  17
TORSDOF 6
ENDMDL
MODEL 7
REMARK VINA RESULT:      -7.3      1.426      5.808
REMARK  6 active torsions:
REMARK  status: ('A' for Active; 'I' for Inactive)
REMARK    1  A    between atoms: C5_5  and  C6_6 
REMARK    2  A    between atoms: C6_6  and  C7_7 
REMARK    3  A    between atoms: C8_8  and  C9_9 
REMARK    4  A    between atoms: N1_15  and  N2_16 
REMARK    5  A    between atoms: N2_16  and  C15_17 
REMARK    6  A    between atoms: C15_17  and  N3_18 
ROOT
HETATM    1  C6  UNL     1      25.799   1.138  52.460  1.00  0.00     0.067 C 
HETATM    2  N1  UNL     1      26.877   0.804  53.048  1.00  0.00    -0.176 NA
ENDROOT
BRANCH   1   3
HETATM    3  C5  UNL     1      25.717   2.195  51.410  1.00  0.00    -0.027 A 
HETATM    4  C4  UNL     1      24.536   2.528  50.930  1.00  0.00     0.010 A 
HETATM    5  C3  UNL     1      24.576   3.562  49.917  1.00  0.00     0.003 A 
HETATM    6  C2  UNL     1      25.849   3.856  49.792  1.00  0.00    -0.080 A 
HETATM    7  C1  UNL     1      26.612   4.820  48.942  1.00  0.00     0.043 C 
HETATM    8  C16 UNL     1      26.663   3.039  50.697  1.00  0.00     0.074 A 
ENDBRANCH   1   3
BRANCH   1   9
HETATM    9  C7  UNL     1      24.413   0.634  52.610  1.00  0.00     0.088 C 
HETATM   10  C8  UNL     1      23.712  -0.314  53.261  1.00  0.00     0.016 C 
BRANCH  10  11
HETATM   11  C9  UNL     1      22.294  -0.168  52.865  1.00  0.00    -0.057 A 
HETATM   12  C10 UNL     1      21.832   0.320  51.662  1.00  0.00     0.007 A 
HETATM   13  C11 UNL     1      20.521   0.463  51.276  1.00  0.00     0.001 A 
HETATM   14  C12 UNL     1      19.548   0.083  52.172  1.00  0.00     0.000 A 
HETATM   15  C13 UNL     1      19.897  -0.417  53.398  1.00  0.00     0.001 A 
HETATM   16  C14 UNL     1      21.240  -0.514  53.677  1.00  0.00     0.007 A 
ENDBRANCH  10  11
ENDBRANCH   1   9
BRANCH   2  17
HETATM   17  N2  UNL     1      28.149   1.181  52.991  1.00  0.00    -0.253 N 
HETATM   18  H13 UNL     1      28.710   1.926  52.479  1.00  0.00     0.191 HD
BRANCH  17  19
HETATM   19  C15 UNL     1      28.662   0.193  53.908  1.00  0.00     0.185 C 
HETATM   20  S1  UNL     1      29.548  -1.112  53.487  1.00  0.00    -0.040 SA
BRANCH  19  21
HETATM   21  N3  UNL     1      28.336   0.434  55.258  1.00  0.00    -0.375 N 
HETATM   22  H14 UNL     1      27.394   0.784  55.556  1.00  0.00     0.158 HD
HETATM   23  H15 UNL     1      28.199   0.581  56.290  1.00  0.00     0.158 HD
ENDBRANCH  19  21
ENDBRANCH  17  19
ENDBRANCH   2  17
TORSDOF 6
ENDMDL
MODEL 8
REMARK VINA RESULT:      -7.2      3.989      6.432
REMARK  6 active torsions:
REMARK  status: ('A' for Active; 'I' for Inactive)
REMARK    1  A    between atoms: C5_5  and  C6_6 
REMARK    2  A    between atoms: C6_6  and  C7_7 
REMARK    3  A    between atoms: C8_8  and  C9_9 
REMARK    4  A    between atoms: N1_15  and  N2_16 
REMARK    5  A    between atoms: N2_16  and  C15_17 
REMARK    6  A    between atoms: C15_17  and  N3_18 
ROOT
HETATM    1  C6  UNL     1      23.464   0.947  52.707  1.00  0.00     0.067 C 
HETATM    2  N1  UNL     1      22.382   0.787  53.358  1.00  0.00    -0.176 NA
ENDROOT
BRANCH   1   3
HETATM    3  C5  UNL     1      23.577   1.773  51.470  1.00  0.00    -0.027 A 
HETATM    4  C4  UNL     1      24.695   2.433  51.242  1.00  0.00     0.010 A 
HETATM    5  C3  UNL     1      24.693   3.202  50.015  1.00  0.00     0.003 A 
HETATM    6  C2  UNL     1      23.510   2.983  49.488  1.00  0.00    -0.080 A 
HETATM    7  C1  UNL     1      22.828   3.447  48.242  1.00  0.00     0.043 C 
HETATM    8  C16 UNL     1      22.719   2.088  50.338  1.00  0.00     0.074 A 
ENDBRANCH   1   3
BRANCH   1   9
HETATM    9  C7  UNL     1      24.829   0.418  52.943  1.00  0.00     0.088 C 
HETATM   10  C8  UNL     1      25.474  -0.745  53.157  1.00  0.00     0.016 C 
BRANCH  10  11
HETATM   11  C9  UNL     1      26.913  -0.433  53.310  1.00  0.00    -0.057 A 
HETATM   12  C10 UNL     1      27.453   0.812  53.552  1.00  0.00     0.007 A 
HETATM   13  C11 UNL     1      28.784   1.122  53.697  1.00  0.00     0.001 A 
HETATM   14  C12 UNL     1      29.693   0.094  53.592  1.00  0.00     0.000 A 
HETATM   15  C13 UNL     1      29.263  -1.185  53.353  1.00  0.00     0.001 A 
HETATM   16  C14 UNL     1      27.908  -1.377  53.225  1.00  0.00     0.007 A 
ENDBRANCH  10  11
ENDBRANCH   1   9
BRANCH   2  17
HETATM   17  N2  UNL     1      21.129   1.208  53.239  1.00  0.00    -0.253 N 
HETATM   18  H13 UNL     1      20.640   2.082  52.879  1.00  0.00     0.191 HD
BRANCH  17  19
HETATM   19  C15 UNL     1      20.501   0.039  53.803  1.00  0.00     0.185 C 
HETATM   20  S1  UNL     1      19.178  -0.703  53.198  1.00  0.00    -0.040 SA
BRANCH  19  21
HETATM   21  N3  UNL     1      21.131  -0.451  54.965  1.00  0.00    -0.375 N 
HETATM   22  H14 UNL     1      21.811   0.121  55.520  1.00  0.00     0.158 HD
HETATM   23  H15 UNL     1      21.543  -0.914  55.814  1.00  0.00     0.158 HD
ENDBRANCH  19  21
ENDBRANCH  17  19
ENDBRANCH   2  17
TORSDOF 6
ENDMDL
MODEL 9
REMARK VINA RESULT:      -7.2      3.456      6.688
REMARK  6 active torsions:
REMARK  status: ('A' for Active; 'I' for Inactive)
REMARK    1  A    between atoms: C5_5  and  C6_6 
REMARK    2  A    between atoms: C6_6  and  C7_7 
REMARK    3  A    between atoms: C8_8  and  C9_9 
REMARK    4  A    between atoms: N1_15  and  N2_16 
REMARK    5  A    between atoms: N2_16  and  C15_17 
REMARK    6  A    between atoms: C15_17  and  N3_18 
ROOT
HETATM    1  C6  UNL     1      24.408   1.852  51.503  1.00  0.00     0.067 C 
HETATM    2  N1  UNL     1      23.150   1.743  51.656  1.00  0.00    -0.176 NA
ENDROOT
BRANCH   1   3
HETATM    3  C5  UNL     1      25.058   2.913  50.680  1.00  0.00    -0.027 A 
HETATM    4  C4  UNL     1      26.309   2.751  50.300  1.00  0.00     0.010 A 
HETATM    5  C3  UNL     1      26.837   3.841  49.507  1.00  0.00     0.003 A 
HETATM    6  C2  UNL     1      25.844   4.695  49.413  1.00  0.00    -0.080 A 
HETATM    7  C1  UNL     1      25.677   6.024  48.750  1.00  0.00     0.043 C 
HETATM    8  C16 UNL     1      24.663   4.201  50.129  1.00  0.00     0.074 A 
ENDBRANCH   1   3
BRANCH   1   9
HETATM    9  C7  UNL     1      25.527   1.042  52.042  1.00  0.00     0.088 C 
HETATM   10  C8  UNL     1      25.804  -0.209  52.458  1.00  0.00     0.016 C 
BRANCH  10  11
HETATM   11  C9  UNL     1      27.224  -0.235  52.872  1.00  0.00    -0.057 A 
HETATM   12  C10 UNL     1      28.006  -1.360  53.022  1.00  0.00     0.007 A 
HETATM   13  C11 UNL     1      29.326  -1.405  53.405  1.00  0.00     0.001 A 
HETATM   14  C12 UNL     1      29.953  -0.209  53.671  1.00  0.00     0.000 A 
HETATM   15  C13 UNL     1      29.268   0.971  53.551  1.00  0.00     0.001 A 
HETATM   16  C14 UNL     1      27.952   0.895  53.162  1.00  0.00     0.007 A 
ENDBRANCH  10  11
ENDBRANCH   1   9
BRANCH   2  17
HETATM   17  N2  UNL     1      22.078   2.402  51.230  1.00  0.00    -0.253 N 
HETATM   18  H13 UNL     1      21.636   3.353  51.410  1.00  0.00     0.191 HD
BRANCH  17  19
HETATM   19  C15 UNL     1      21.583   1.373  50.351  1.00  0.00     0.185 C 
HETATM   20  S1  UNL     1      21.691   1.394  48.722  1.00  0.00    -0.040 SA
BRANCH  19  21
HETATM   21  N3  UNL     1      20.969   0.291  51.015  1.00  0.00    -0.375 N 
HETATM   22  H14 UNL     1      21.516  -0.517  51.399  1.00  0.00     0.158 HD
HETATM   23  H15 UNL     1      20.413  -0.462  51.491  1.00  0.00     0.158 HD
ENDBRANCH  19  21
ENDBRANCH  17  19
ENDBRANCH   2  17
TORSDOF 6
ENDMDL
