MODEL 1
REMARK VINA RESULT:      -8.5      0.000      0.000
REMARK  6 active torsions:
REMARK  status: ('A' for Active; 'I' for Inactive)
REMARK    1  A    between atoms: P1_1  and  C1_2 
REMARK    2  A    between atoms: C4_7  and  P2_8 
REMARK    3  A    between atoms: P2_8  and  C5_9 
REMARK    4  A    between atoms: C9_16  and  C10_17 
REMARK    5  A    between atoms: C10_17  and  C11_18 
REMARK    6  A    between atoms: C11_18  and  C12_19 
ROOT
HETATM    1  C5  UNL     1      21.032   0.391  51.576  1.00  0.00     0.092 A 
HETATM    2  N3  UNL     1      19.688   0.452  51.419  1.00  0.00    -0.237 NA
HETATM    3  C6  UNL     1      18.867   0.043  52.431  1.00  0.00     0.256 A 
HETATM    4  N4  UNL     1      19.413  -0.416  53.571  1.00  0.00    -0.161 NA
HETATM    5  N5  UNL     1      20.728  -0.451  53.666  1.00  0.00    -0.241 N 
HETATM    6  C7  UNL     1      21.395  -0.905  54.738  1.00  0.00     0.119 A 
HETATM    7  C8  UNL     1      22.721  -0.785  54.425  1.00  0.00     0.029 A 
HETATM    8  C9  UNL     1      22.932  -0.252  53.141  1.00  0.00    -0.025 A 
HETATM    9  C16 UNL     1      21.619  -0.073  52.734  1.00  0.00     0.093 A 
ENDROOT
BRANCH   1  10
HETATM   10  P2  UNL     1      22.036   0.893  50.165  1.00  0.00    -0.042 P 
HETATM   11  H6  UNL     1      22.947  -0.126  49.716  1.00  0.00     0.068 HD
BRANCH  10  12
HETATM   12  C4  UNL     1      22.786   2.536  50.330  1.00  0.00    -0.044 A 
HETATM   13  C3  UNL     1      22.765   3.096  51.518  1.00  0.00     0.042 A 
HETATM   14  C2  UNL     1      23.370   4.417  51.641  1.00  0.00     0.085 A 
HETATM   15  N2  UNL     1      23.473   5.163  52.692  1.00  0.00    -0.178 NA
HETATM   16  C19 UNL     1      23.988   5.131  50.512  1.00  0.00    -0.003 A 
HETATM   17  N1  UNL     1      24.121   6.367  52.406  1.00  0.00    -0.300 N 
HETATM   18  C1  UNL     1      24.499   6.437  50.987  1.00  0.00     0.158 A 
HETATM   19  H4  UNL     1      24.273   7.075  53.172  1.00  0.00     0.183 HD
HETATM   20  C18 UNL     1      23.923   4.429  49.392  1.00  0.00    -0.010 A 
HETATM   21  C17 UNL     1      23.352   3.090  49.099  1.00  0.00     0.067 A 
BRANCH  18  22
HETATM   22  P1  UNL     1      23.479   7.815  50.252  1.00  0.00    -0.110 P 
HETATM   23  H1  UNL     1      24.174   8.316  49.068  1.00  0.00     0.057 HD
HETATM   24  H2  UNL     1      23.497   8.897  51.241  1.00  0.00     0.057 HD
ENDBRANCH  18  22
ENDBRANCH  10  12
ENDBRANCH   1  10
BRANCH   8  25
HETATM   25  C10 UNL     1      24.169   0.056  52.422  1.00  0.00     0.043 C 
BRANCH  25  26
HETATM   26  C11 UNL     1      25.478  -0.061  53.080  1.00  0.00     0.038 C 
BRANCH  26  27
HETATM   27  C12 UNL     1      25.914   1.109  53.921  1.00  0.00     0.149 C 
HETATM   28  C13 UNL     1      26.629   2.175  53.147  1.00  0.00     0.301 C 
HETATM   29  N6  UNL     1      27.828   2.544  53.915  1.00  0.00     0.087 N 
HETATM   30  C14 UNL     1      28.656   1.332  53.962  1.00  0.00     0.295 C 
HETATM   31  H17 UNL     1      27.486   2.732  54.893  1.00  0.00     0.316 HD
HETATM   32  C15 UNL     1      27.919   0.252  54.735  1.00  0.00     0.198 C 
HETATM   33  O1  UNL     1      26.625   0.669  55.053  1.00  0.00    -0.382 OA
ENDBRANCH  26  27
ENDBRANCH  25  26
ENDBRANCH   8  25
TORSDOF 6
ENDMDL
MODEL 2
REMARK VINA RESULT:      -8.4      2.879      6.953
REMARK  6 active torsions:
REMARK  status: ('A' for Active; 'I' for Inactive)
REMARK    1  A    between atoms: P1_1  and  C1_2 
REMARK    2  A    between atoms: C4_7  and  P2_8 
REMARK    3  A    between atoms: P2_8  and  C5_9 
REMARK    4  A    between atoms: C9_16  and  C10_17 
REMARK    5  A    between atoms: C10_17  and  C11_18 
REMARK    6  A    between atoms: C11_18  and  C12_19 
ROOT
HETATM    1  C5  UNL     1      23.350   3.171  50.966  1.00  0.00     0.092 A 
HETATM    2  N3  UNL     1      24.100   4.299  50.952  1.00  0.00    -0.237 NA
HETATM    3  C6  UNL     1      24.325   4.949  49.772  1.00  0.00     0.256 A 
HETATM    4  N4  UNL     1      23.796   4.453  48.640  1.00  0.00    -0.161 NA
HETATM    5  N5  UNL     1      23.075   3.352  48.716  1.00  0.00    -0.241 N 
HETATM    6  C7  UNL     1      22.510   2.745  47.661  1.00  0.00     0.119 A 
HETATM    7  C8  UNL     1      21.875   1.644  48.165  1.00  0.00     0.029 A 
HETATM    8  C9  UNL     1      22.020   1.521  49.559  1.00  0.00    -0.025 A 
HETATM    9  C16 UNL     1      22.794   2.641  49.822  1.00  0.00     0.093 A 
ENDROOT
BRANCH   1  10
HETATM   10  P2  UNL     1      23.158   2.346  52.558  1.00  0.00    -0.042 P 
HETATM   11  H6  UNL     1      22.405   3.112  53.515  1.00  0.00     0.068 HD
BRANCH  10  12
HETATM   12  C4  UNL     1      24.690   1.635  53.219  1.00  0.00    -0.044 A 
HETATM   13  C3  UNL     1      25.708   2.445  53.396  1.00  0.00     0.042 A 
HETATM   14  C2  UNL     1      26.936   1.865  53.928  1.00  0.00     0.085 A 
HETATM   15  N2  UNL     1      28.059   2.450  54.187  1.00  0.00    -0.178 NA
HETATM   16  C19 UNL     1      27.075   0.439  54.266  1.00  0.00    -0.003 A 
HETATM   17  N1  UNL     1      29.003   1.551  54.688  1.00  0.00    -0.300 N 
HETATM   18  C1  UNL     1      28.443   0.194  54.776  1.00  0.00     0.158 A 
HETATM   19  H4  UNL     1      29.967   1.891  54.943  1.00  0.00     0.183 HD
HETATM   20  C18 UNL     1      25.960  -0.233  54.027  1.00  0.00    -0.010 A 
HETATM   21  C17 UNL     1      24.642   0.198  53.497  1.00  0.00     0.067 A 
BRANCH  18  22
HETATM   22  P1  UNL     1      29.396  -0.835  53.546  1.00  0.00    -0.110 P 
HETATM   23  H1  UNL     1      29.684  -2.129  54.159  1.00  0.00     0.057 HD
HETATM   24  H2  UNL     1      30.684  -0.155  53.369  1.00  0.00     0.057 HD
ENDBRANCH  18  22
ENDBRANCH  10  12
ENDBRANCH   1  10
BRANCH   8  25
HETATM   25  C10 UNL     1      21.501   0.521  50.493  1.00  0.00     0.043 C 
BRANCH  25  26
HETATM   26  C11 UNL     1      20.057   0.386  50.734  1.00  0.00     0.038 C 
BRANCH  26  27
HETATM   27  C12 UNL     1      19.587   0.623  52.144  1.00  0.00     0.149 C 
HETATM   28  C13 UNL     1      20.205  -0.300  53.149  1.00  0.00     0.301 C 
HETATM   29  N6  UNL     1      19.121  -0.804  54.007  1.00  0.00     0.087 N 
HETATM   30  C14 UNL     1      18.236  -1.567  53.118  1.00  0.00     0.295 C 
HETATM   31  H17 UNL     1      18.595   0.052  54.321  1.00  0.00     0.316 HD
HETATM   32  C15 UNL     1      17.624  -0.628  52.094  1.00  0.00     0.198 C 
HETATM   33  O1  UNL     1      18.181   0.649  52.201  1.00  0.00    -0.382 OA
ENDBRANCH  26  27
ENDBRANCH  25  26
ENDBRANCH   8  25
TORSDOF 6
ENDMDL
MODEL 3
REMARK VINA RESULT:      -8.3      1.704      2.026
REMARK  6 active torsions:
REMARK  status: ('A' for Active; 'I' for Inactive)
REMARK    1  A    between atoms: P1_1  and  C1_2 
REMARK    2  A    between atoms: C4_7  and  P2_8 
REMARK    3  A    between atoms: P2_8  and  C5_9 
REMARK    4  A    between atoms: C9_16  and  C10_17 
REMARK    5  A    between atoms: C10_17  and  C11_18 
REMARK    6  A    between atoms: C11_18  and  C12_19 
ROOT
HETATM    1  C5  UNL     1      22.718   1.981  51.848  1.00  0.00     0.092 A 
HETATM    2  N3  UNL     1      21.738   2.842  51.486  1.00  0.00    -0.237 NA
HETATM    3  C6  UNL     1      20.517   2.776  52.096  1.00  0.00     0.256 A 
HETATM    4  N4  UNL     1      20.311   1.852  53.049  1.00  0.00    -0.161 NA
HETATM    5  N5  UNL     1      21.304   1.041  53.360  1.00  0.00    -0.241 N 
HETATM    6  C7  UNL     1      21.223   0.065  54.277  1.00  0.00     0.119 A 
HETATM    7  C8  UNL     1      22.448  -0.542  54.280  1.00  0.00     0.029 A 
HETATM    8  C9  UNL     1      23.344   0.034  53.362  1.00  0.00    -0.025 A 
HETATM    9  C16 UNL     1      22.536   1.025  52.824  1.00  0.00     0.093 A 
ENDROOT
BRANCH   1  10
HETATM   10  P2  UNL     1      24.275   2.100  50.946  1.00  0.00    -0.042 P 
HETATM   11  H6  UNL     1      25.328   1.297  51.509  1.00  0.00     0.068 HD
BRANCH  10  12
HETATM   12  C4  UNL     1      24.773   3.796  50.540  1.00  0.00    -0.044 A 
HETATM   13  C3  UNL     1      24.130   4.776  51.133  1.00  0.00     0.042 A 
HETATM   14  C2  UNL     1      24.538   6.136  50.799  1.00  0.00     0.085 A 
HETATM   15  N2  UNL     1      24.064   7.253  51.246  1.00  0.00    -0.178 NA
HETATM   16  C19 UNL     1      25.615   6.446  49.845  1.00  0.00    -0.003 A 
HETATM   17  N1  UNL     1      24.720   8.351  50.684  1.00  0.00    -0.300 N 
HETATM   18  C1  UNL     1      25.763   7.915  49.744  1.00  0.00     0.158 A 
HETATM   19  H4  UNL     1      24.435   9.328  50.959  1.00  0.00     0.183 HD
HETATM   20  C18 UNL     1      26.155   5.348  49.340  1.00  0.00    -0.010 A 
HETATM   21  C17 UNL     1      25.864   3.911  49.569  1.00  0.00     0.067 A 
BRANCH  18  22
HETATM   22  P1  UNL     1      25.205   8.488  48.059  1.00  0.00    -0.110 P 
HETATM   23  H1  UNL     1      25.340   9.942  48.002  1.00  0.00     0.057 HD
HETATM   24  H2  UNL     1      23.770   8.194  47.991  1.00  0.00     0.057 HD
ENDBRANCH  18  22
ENDBRANCH  10  12
ENDBRANCH   1  10
BRANCH   8  25
HETATM   25  C10 UNL     1      24.739  -0.284  53.054  1.00  0.00     0.043 C 
BRANCH  25  26
HETATM   26  C11 UNL     1      25.664  -0.732  54.104  1.00  0.00     0.038 C 
BRANCH  26  27
HETATM   27  C12 UNL     1      26.431   0.342  54.827  1.00  0.00     0.149 C 
HETATM   28  C13 UNL     1      26.486   1.645  54.087  1.00  0.00     0.301 C 
HETATM   29  N6  UNL     1      27.880   2.113  54.127  1.00  0.00     0.087 N 
HETATM   30  C14 UNL     1      28.657   1.101  53.400  1.00  0.00     0.295 C 
HETATM   31  H17 UNL     1      28.162   2.061  55.140  1.00  0.00     0.316 HD
HETATM   32  C15 UNL     1      28.585  -0.219  54.146  1.00  0.00     0.198 C 
HETATM   33  O1  UNL     1      27.696  -0.130  55.221  1.00  0.00    -0.382 OA
ENDBRANCH  26  27
ENDBRANCH  25  26
ENDBRANCH   8  25
TORSDOF 6
ENDMDL
MODEL 4
REMARK VINA RESULT:      -8.2      2.398      5.834
REMARK  6 active torsions:
REMARK  status: ('A' for Active; 'I' for Inactive)
REMARK    1  A    between atoms: P1_1  and  C1_2 
REMARK    2  A    between atoms: C4_7  and  P2_8 
REMARK    3  A    between atoms: P2_8  and  C5_9 
REMARK    4  A    between atoms: C9_16  and  C10_17 
REMARK    5  A    between atoms: C10_17  and  C11_18 
REMARK    6  A    between atoms: C11_18  and  C12_19 
ROOT
HETATM    1  C5  UNL     1      24.163   4.835  51.409  1.00  0.00     0.092 A 
HETATM    2  N3  UNL     1      23.621   6.073  51.332  1.00  0.00    -0.237 NA
HETATM    3  C6  UNL     1      24.105   6.971  50.424  1.00  0.00     0.256 A 
HETATM    4  N4  UNL     1      25.118   6.606  49.619  1.00  0.00    -0.161 NA
HETATM    5  N5  UNL     1      25.605   5.386  49.740  1.00  0.00    -0.241 N 
HETATM    6  C7  UNL     1      26.626   4.905  49.013  1.00  0.00     0.119 A 
HETATM    7  C8  UNL     1      26.824   3.627  49.456  1.00  0.00     0.029 A 
HETATM    8  C9  UNL     1      25.932   3.260  50.480  1.00  0.00    -0.025 A 
HETATM    9  C16 UNL     1      25.201   4.432  50.595  1.00  0.00     0.093 A 
ENDROOT
BRANCH   1  10
HETATM   10  P2  UNL     1      23.502   3.739  52.679  1.00  0.00    -0.042 P 
HETATM   11  H6  UNL     1      24.508   2.941  53.330  1.00  0.00     0.068 HD
BRANCH  10  12
HETATM   12  C4  UNL     1      22.033   2.807  52.169  1.00  0.00    -0.044 A 
HETATM   13  C3  UNL     1      20.868   3.404  52.279  1.00  0.00     0.042 A 
HETATM   14  C2  UNL     1      19.691   2.647  51.866  1.00  0.00     0.085 A 
HETATM   15  N2  UNL     1      18.451   3.012  51.879  1.00  0.00    -0.178 NA
HETATM   16  C19 UNL     1      19.757   1.272  51.344  1.00  0.00    -0.003 A 
HETATM   17  N1  UNL     1      17.613   2.001  51.403  1.00  0.00    -0.300 N 
HETATM   18  C1  UNL     1      18.388   0.809  51.025  1.00  0.00     0.158 A 
HETATM   19  H4  UNL     1      16.572   2.161  51.358  1.00  0.00     0.183 HD
HETATM   20  C18 UNL     1      21.001   0.823  51.299  1.00  0.00    -0.010 A 
HETATM   21  C17 UNL     1      22.292   1.453  51.674  1.00  0.00     0.067 A 
BRANCH  18  22
HETATM   22  P1  UNL     1      17.884  -0.531  52.221  1.00  0.00    -0.110 P 
HETATM   23  H1  UNL     1      16.431  -0.673  52.161  1.00  0.00     0.057 HD
HETATM   24  H2  UNL     1      18.204  -0.016  53.556  1.00  0.00     0.057 HD
ENDBRANCH  18  22
ENDBRANCH  10  12
ENDBRANCH   1  10
BRANCH   8  25
HETATM   25  C10 UNL     1      25.781   2.004  51.216  1.00  0.00     0.043 C 
BRANCH  25  26
HETATM   26  C11 UNL     1      26.907   1.421  51.960  1.00  0.00     0.038 C 
BRANCH  26  27
HETATM   27  C12 UNL     1      27.265   2.082  53.264  1.00  0.00     0.149 C 
HETATM   28  C13 UNL     1      28.741   2.194  53.498  1.00  0.00     0.301 C 
HETATM   29  N6  UNL     1      29.000   1.753  54.878  1.00  0.00     0.087 N 
HETATM   30  C14 UNL     1      28.600   0.341  54.923  1.00  0.00     0.295 C 
HETATM   31  H17 UNL     1      28.322   2.294  55.475  1.00  0.00     0.316 HD
HETATM   32  C15 UNL     1      27.106   0.234  54.670  1.00  0.00     0.198 C 
HETATM   33  O1  UNL     1      26.574   1.481  54.332  1.00  0.00    -0.382 OA
ENDBRANCH  26  27
ENDBRANCH  25  26
ENDBRANCH   8  25
TORSDOF 6
ENDMDL
MODEL 5
REMARK VINA RESULT:      -8.2      2.981      5.941
REMARK  6 active torsions:
REMARK  status: ('A' for Active; 'I' for Inactive)
REMARK    1  A    between atoms: P1_1  and  C1_2 
REMARK    2  A    between atoms: C4_7  and  P2_8 
REMARK    3  A    between atoms: P2_8  and  C5_9 
REMARK    4  A    between atoms: C9_16  and  C10_17 
REMARK    5  A    between atoms: C10_17  and  C11_18 
REMARK    6  A    between atoms: C11_18  and  C12_19 
ROOT
HETATM    1  C5  UNL     1      26.323   1.961  52.344  1.00  0.00     0.092 A 
HETATM    2  N3  UNL     1      27.567   2.495  52.372  1.00  0.00    -0.237 NA
HETATM    3  C6  UNL     1      28.442   2.130  53.355  1.00  0.00     0.256 A 
HETATM    4  N4  UNL     1      28.047   1.242  54.284  1.00  0.00    -0.161 NA
HETATM    5  N5  UNL     1      26.824   0.755  54.205  1.00  0.00    -0.241 N 
HETATM    6  C7  UNL     1      26.303  -0.121  55.077  1.00  0.00     0.119 A 
HETATM    7  C8  UNL     1      25.025  -0.352  54.650  1.00  0.00     0.029 A 
HETATM    8  C9  UNL     1      24.699   0.373  53.490  1.00  0.00    -0.025 A 
HETATM    9  C16 UNL     1      25.893   1.046  53.281  1.00  0.00     0.093 A 
ENDROOT
BRANCH   1  10
HETATM   10  P2  UNL     1      25.218   2.549  51.047  1.00  0.00    -0.042 P 
HETATM   11  H6  UNL     1      24.685   1.495  50.225  1.00  0.00     0.068 HD
BRANCH  10  12
HETATM   12  C4  UNL     1      25.852   3.967  50.113  1.00  0.00    -0.044 A 
HETATM   13  C3  UNL     1      27.052   3.862  49.589  1.00  0.00     0.042 A 
HETATM   14  C2  UNL     1      27.554   5.008  48.839  1.00  0.00     0.085 A 
HETATM   15  N2  UNL     1      28.690   5.144  48.237  1.00  0.00    -0.178 NA
HETATM   16  C19 UNL     1      26.786   6.250  48.652  1.00  0.00    -0.003 A 
HETATM   17  N1  UNL     1      28.802   6.396  47.627  1.00  0.00    -0.300 N 
HETATM   18  C1  UNL     1      27.589   7.199  47.848  1.00  0.00     0.158 A 
HETATM   19  H4  UNL     1      29.679   6.644  47.099  1.00  0.00     0.183 HD
HETATM   20  C18 UNL     1      25.604   6.190  49.243  1.00  0.00    -0.010 A 
HETATM   21  C17 UNL     1      24.948   5.117  50.032  1.00  0.00     0.067 A 
BRANCH  18  22
HETATM   22  P1  UNL     1      28.115   8.637  48.914  1.00  0.00    -0.110 P 
HETATM   23  H1  UNL     1      28.682   9.665  48.045  1.00  0.00     0.057 HD
HETATM   24  H2  UNL     1      29.212   8.136  49.748  1.00  0.00     0.057 HD
ENDBRANCH  18  22
ENDBRANCH  10  12
ENDBRANCH   1  10
BRANCH   8  25
HETATM   25  C10 UNL     1      23.469   0.413  52.697  1.00  0.00     0.043 C 
BRANCH  25  26
HETATM   26  C11 UNL     1      22.438  -0.624  52.844  1.00  0.00     0.038 C 
BRANCH  26  27
HETATM   27  C12 UNL     1      21.323  -0.329  53.811  1.00  0.00     0.149 C 
HETATM   28  C13 UNL     1      20.404  -1.490  54.043  1.00  0.00     0.301 C 
HETATM   29  N6  UNL     1      19.026  -0.982  53.955  1.00  0.00     0.087 N 
HETATM   30  C14 UNL     1      18.871  -0.500  52.577  1.00  0.00     0.295 C 
HETATM   31  H17 UNL     1      18.997  -0.143  54.590  1.00  0.00     0.316 HD
HETATM   32  C15 UNL     1      19.815   0.666  52.345  1.00  0.00     0.198 C 
HETATM   33  O1  UNL     1      20.650   0.852  53.449  1.00  0.00    -0.382 OA
ENDBRANCH  26  27
ENDBRANCH  25  26
ENDBRANCH   8  25
TORSDOF 6
ENDMDL
MODEL 6
REMARK VINA RESULT:      -8.1      3.055      6.198
REMARK  6 active torsions:
REMARK  status: ('A' for Active; 'I' for Inactive)
REMARK    1  A    between atoms: P1_1  and  C1_2 
REMARK    2  A    between atoms: C4_7  and  P2_8 
REMARK    3  A    between atoms: P2_8  and  C5_9 
REMARK    4  A    between atoms: C9_16  and  C10_17 
REMARK    5  A    between atoms: C10_17  and  C11_18 
REMARK    6  A    between atoms: C11_18  and  C12_19 
ROOT
HETATM    1  C5  UNL     1      23.053   4.046  50.299  1.00  0.00     0.092 A 
HETATM    2  N3  UNL     1      23.434   5.227  49.758  1.00  0.00    -0.237 NA
HETATM    3  C6  UNL     1      23.205   5.474  48.435  1.00  0.00     0.256 A 
HETATM    4  N4  UNL     1      22.601   4.532  47.689  1.00  0.00    -0.161 NA
HETATM    5  N5  UNL     1      22.252   3.401  48.271  1.00  0.00    -0.241 N 
HETATM    6  C7  UNL     1      21.663   2.376  47.637  1.00  0.00     0.119 A 
HETATM    7  C8  UNL     1      21.489   1.407  48.585  1.00  0.00     0.029 A 
HETATM    8  C9  UNL     1      21.964   1.791  49.852  1.00  0.00    -0.025 A 
HETATM    9  C16 UNL     1      22.431   3.063  49.560  1.00  0.00     0.093 A 
ENDROOT
BRANCH   1  10
HETATM   10  P2  UNL     1      23.453   3.784  52.038  1.00  0.00    -0.042 P 
HETATM   11  H6  UNL     1      23.615   5.006  52.780  1.00  0.00     0.068 HD
BRANCH  10  12
HETATM   12  C4  UNL     1      24.763   2.564  52.326  1.00  0.00    -0.044 A 
HETATM   13  C3  UNL     1      24.714   1.873  53.442  1.00  0.00     0.042 A 
HETATM   14  C2  UNL     1      25.771   0.893  53.665  1.00  0.00     0.085 A 
HETATM   15  N2  UNL     1      25.939   0.101  54.673  1.00  0.00    -0.178 NA
HETATM   16  C19 UNL     1      26.867   0.655  52.710  1.00  0.00    -0.003 A 
HETATM   17  N1  UNL     1      27.077  -0.694  54.518  1.00  0.00    -0.300 N 
HETATM   18  C1  UNL     1      27.757  -0.398  53.248  1.00  0.00     0.158 A 
HETATM   19  H4  UNL     1      27.336  -1.388  55.268  1.00  0.00     0.183 HD
HETATM   20  C18 UNL     1      26.766   1.432  51.644  1.00  0.00    -0.010 A 
HETATM   21  C17 UNL     1      25.769   2.464  51.265  1.00  0.00     0.067 A 
BRANCH  18  22
HETATM   22  P1  UNL     1      29.403   0.348  53.710  1.00  0.00    -0.110 P 
HETATM   23  H1  UNL     1      30.458  -0.552  53.248  1.00  0.00     0.057 HD
HETATM   24  H2  UNL     1      29.450   0.336  55.176  1.00  0.00     0.057 HD
ENDBRANCH  18  22
ENDBRANCH  10  12
ENDBRANCH   1  10
BRANCH   8  25
HETATM   25  C10 UNL     1      21.963   1.082  51.132  1.00  0.00     0.043 C 
BRANCH  25  26
HETATM   26  C11 UNL     1      20.968   0.040  51.421  1.00  0.00     0.038 C 
BRANCH  26  27
HETATM   27  C12 UNL     1      20.166   0.208  52.683  1.00  0.00     0.149 C 
HETATM   28  C13 UNL     1      20.765   1.182  53.653  1.00  0.00     0.301 C 
HETATM   29  N6  UNL     1      20.730   0.554  54.983  1.00  0.00     0.087 N 
HETATM   30  C14 UNL     1      21.590  -0.632  54.882  1.00  0.00     0.295 C 
HETATM   31  H17 UNL     1      19.740   0.218  55.106  1.00  0.00     0.316 HD
HETATM   32  C15 UNL     1      20.985  -1.607  53.888  1.00  0.00     0.198 C 
HETATM   33  O1  UNL     1      19.874  -1.043  53.258  1.00  0.00    -0.382 OA
ENDBRANCH  26  27
ENDBRANCH  25  26
ENDBRANCH   8  25
TORSDOF 6
ENDMDL
MODEL 7
REMARK VINA RESULT:      -8.0      3.236      4.203
REMARK  6 active torsions:
REMARK  status: ('A' for Active; 'I' for Inactive)
REMARK    1  A    between atoms: P1_1  and  C1_2 
REMARK    2  A    between atoms: C4_7  and  P2_8 
REMARK    3  A    between atoms: P2_8  and  C5_9 
REMARK    4  A    between atoms: C9_16  and  C10_17 
REMARK    5  A    between atoms: C10_17  and  C11_18 
REMARK    6  A    between atoms: C11_18  and  C12_19 
ROOT
HETATM    1  C5  UNL     1      23.421   2.750  49.793  1.00  0.00     0.092 A 
HETATM    2  N3  UNL     1      23.187   3.297  48.577  1.00  0.00    -0.237 NA
HETATM    3  C6  UNL     1      22.080   2.927  47.868  1.00  0.00     0.256 A 
HETATM    4  N4  UNL     1      21.240   2.019  48.394  1.00  0.00    -0.161 NA
HETATM    5  N5  UNL     1      21.520   1.522  49.583  1.00  0.00    -0.241 N 
HETATM    6  C7  UNL     1      20.776   0.597  50.209  1.00  0.00     0.119 A 
HETATM    7  C8  UNL     1      21.416   0.347  51.391  1.00  0.00     0.029 A 
HETATM    8  C9  UNL     1      22.588   1.108  51.549  1.00  0.00    -0.025 A 
HETATM    9  C16 UNL     1      22.576   1.820  50.359  1.00  0.00     0.093 A 
ENDROOT
BRANCH   1  10
HETATM   10  P2  UNL     1      24.938   3.253  50.629  1.00  0.00    -0.042 P 
HETATM   11  H6  UNL     1      24.756   3.545  52.026  1.00  0.00     0.068 HD
BRANCH  10  12
HETATM   12  C4  UNL     1      25.906   4.496  49.732  1.00  0.00    -0.044 A 
HETATM   13  C3  UNL     1      27.112   4.158  49.337  1.00  0.00     0.042 A 
HETATM   14  C2  UNL     1      27.883   5.165  48.616  1.00  0.00     0.085 A 
HETATM   15  N2  UNL     1      29.078   5.072  48.131  1.00  0.00    -0.178 NA
HETATM   16  C19 UNL     1      27.374   6.515  48.322  1.00  0.00    -0.003 A 
HETATM   17  N1  UNL     1      29.473   6.258  47.507  1.00  0.00    -0.300 N 
HETATM   18  C1  UNL     1      28.410   7.271  47.583  1.00  0.00     0.158 A 
HETATM   19  H4  UNL     1      30.427   6.325  47.066  1.00  0.00     0.183 HD
HETATM   20  C18 UNL     1      26.148   6.690  48.789  1.00  0.00    -0.010 A 
HETATM   21  C17 UNL     1      25.236   5.783  49.531  1.00  0.00     0.067 A 
BRANCH  18  22
HETATM   22  P1  UNL     1      29.080   8.637  48.662  1.00  0.00    -0.110 P 
HETATM   23  H1  UNL     1      30.482   8.849  48.313  1.00  0.00     0.057 HD
HETATM   24  H2  UNL     1      29.060   8.111  50.031  1.00  0.00     0.057 HD
ENDBRANCH  18  22
ENDBRANCH  10  12
ENDBRANCH   1  10
BRANCH   8  25
HETATM   25  C10 UNL     1      23.552   1.169  52.648  1.00  0.00     0.043 C 
BRANCH  25  26
HETATM   26  C11 UNL     1      24.680   0.229  52.721  1.00  0.00     0.038 C 
BRANCH  26  27
HETATM   27  C12 UNL     1      25.526   0.291  53.963  1.00  0.00     0.149 C 
HETATM   28  C13 UNL     1      26.291   1.571  54.109  1.00  0.00     0.301 C 
HETATM   29  N6  UNL     1      27.672   1.218  54.474  1.00  0.00     0.087 N 
HETATM   30  C14 UNL     1      28.199   0.458  53.334  1.00  0.00     0.295 C 
HETATM   31  H17 UNL     1      27.585   0.553  55.285  1.00  0.00     0.316 HD
HETATM   32  C15 UNL     1      27.411  -0.831  53.183  1.00  0.00     0.198 C 
HETATM   33  O1  UNL     1      26.334  -0.857  54.072  1.00  0.00    -0.382 OA
ENDBRANCH  26  27
ENDBRANCH  25  26
ENDBRANCH   8  25
TORSDOF 6
ENDMDL
MODEL 8
REMARK VINA RESULT:      -8.0      2.901      6.105
REMARK  6 active torsions:
REMARK  status: ('A' for Active; 'I' for Inactive)
REMARK    1  A    between atoms: P1_1  and  C1_2 
REMARK    2  A    between atoms: C4_7  and  P2_8 
REMARK    3  A    between atoms: P2_8  and  C5_9 
REMARK    4  A    between atoms: C9_16  and  C10_17 
REMARK    5  A    between atoms: C10_17  and  C11_18 
REMARK    6  A    between atoms: C11_18  and  C12_19 
ROOT
HETATM    1  C5  UNL     1      21.795   0.493  52.960  1.00  0.00     0.092 A 
HETATM    2  N3  UNL     1      21.987  -0.248  54.076  1.00  0.00    -0.237 NA
HETATM    3  C6  UNL     1      20.996  -1.076  54.520  1.00  0.00     0.256 A 
HETATM    4  N4  UNL     1      19.841  -1.138  53.836  1.00  0.00    -0.161 NA
HETATM    5  N5  UNL     1      19.711  -0.393  52.756  1.00  0.00    -0.241 N 
HETATM    6  C7  UNL     1      18.606  -0.348  51.998  1.00  0.00     0.119 A 
HETATM    7  C8  UNL     1      18.878   0.547  51.001  1.00  0.00     0.029 A 
HETATM    8  C9  UNL     1      20.169   1.097  51.099  1.00  0.00    -0.025 A 
HETATM    9  C16 UNL     1      20.622   0.448  52.237  1.00  0.00     0.093 A 
ENDROOT
BRANCH   1  10
HETATM   10  P2  UNL     1      23.134   1.603  52.484  1.00  0.00    -0.042 P 
HETATM   11  H6  UNL     1      23.161   1.902  51.077  1.00  0.00     0.068 HD
BRANCH  10  12
HETATM   12  C4  UNL     1      24.750   1.162  53.179  1.00  0.00    -0.044 A 
HETATM   13  C3  UNL     1      25.627   2.128  53.337  1.00  0.00     0.042 A 
HETATM   14  C2  UNL     1      26.924   1.764  53.897  1.00  0.00     0.085 A 
HETATM   15  N2  UNL     1      27.938   2.526  54.145  1.00  0.00    -0.178 NA
HETATM   16  C19 UNL     1      27.280   0.388  54.281  1.00  0.00    -0.003 A 
HETATM   17  N1  UNL     1      29.005   1.801  54.682  1.00  0.00    -0.300 N 
HETATM   18  C1  UNL     1      28.663   0.377  54.809  1.00  0.00     0.158 A 
HETATM   19  H4  UNL     1      29.901   2.297  54.932  1.00  0.00     0.183 HD
HETATM   20  C18 UNL     1      26.287  -0.458  54.057  1.00  0.00    -0.010 A 
HETATM   21  C17 UNL     1      24.925  -0.255  53.503  1.00  0.00     0.067 A 
BRANCH  18  22
HETATM   22  P1  UNL     1      29.781  -0.527  53.620  1.00  0.00    -0.110 P 
HETATM   23  H1  UNL     1      30.674   0.449  53.000  1.00  0.00     0.057 HD
HETATM   24  H2  UNL     1      28.908  -1.035  52.557  1.00  0.00     0.057 HD
ENDBRANCH  18  22
ENDBRANCH  10  12
ENDBRANCH   1  10
BRANCH   8  25
HETATM   25  C10 UNL     1      20.867   2.062  50.250  1.00  0.00     0.043 C 
BRANCH  25  26
HETATM   26  C11 UNL     1      21.307   1.702  48.894  1.00  0.00     0.038 C 
BRANCH  26  27
HETATM   27  C12 UNL     1      22.539   2.397  48.380  1.00  0.00     0.149 C 
HETATM   28  C13 UNL     1      22.876   3.654  49.123  1.00  0.00     0.301 C 
HETATM   29  N6  UNL     1      23.173   4.689  48.120  1.00  0.00     0.087 N 
HETATM   30  C14 UNL     1      21.926   4.881  47.369  1.00  0.00     0.295 C 
HETATM   31  H17 UNL     1      23.873   4.251  47.466  1.00  0.00     0.316 HD
HETATM   32  C15 UNL     1      21.583   3.599  46.631  1.00  0.00     0.198 C 
HETATM   33  O1  UNL     1      22.464   2.575  46.986  1.00  0.00    -0.382 OA
ENDBRANCH  26  27
ENDBRANCH  25  26
ENDBRANCH   8  25
TORSDOF 6
ENDMDL
MODEL 9
REMARK VINA RESULT:      -7.9      2.784      3.778
REMARK  6 active torsions:
REMARK  status: ('A' for Active; 'I' for Inactive)
REMARK    1  A    between atoms: P1_1  and  C1_2 
REMARK    2  A    between atoms: C4_7  and  P2_8 
REMARK    3  A    between atoms: P2_8  and  C5_9 
REMARK    4  A    between atoms: C9_16  and  C10_17 
REMARK    5  A    between atoms: C10_17  and  C11_18 
REMARK    6  A    between atoms: C11_18  and  C12_19 
ROOT
HETATM    1  C5  UNL     1      24.100   3.261  50.655  1.00  0.00     0.092 A 
HETATM    2  N3  UNL     1      23.191   4.187  50.270  1.00  0.00    -0.237 NA
HETATM    3  C6  UNL     1      21.931   4.162  50.797  1.00  0.00     0.256 A 
HETATM    4  N4  UNL     1      21.616   3.209  51.692  1.00  0.00    -0.161 NA
HETATM    5  N5  UNL     1      22.543   2.334  52.028  1.00  0.00    -0.241 N 
HETATM    6  C7  UNL     1      22.352   1.326  52.892  1.00  0.00     0.119 A 
HETATM    7  C8  UNL     1      23.542   0.655  52.946  1.00  0.00     0.029 A 
HETATM    8  C9  UNL     1      24.525   1.221  52.114  1.00  0.00    -0.025 A 
HETATM    9  C16 UNL     1      23.806   2.275  51.572  1.00  0.00     0.093 A 
ENDROOT
BRANCH   1  10
HETATM   10  P2  UNL     1      25.717   3.335  49.860  1.00  0.00    -0.042 P 
HETATM   11  H6  UNL     1      26.710   2.512  50.499  1.00  0.00     0.068 HD
BRANCH  10  12
HETATM   12  C4  UNL     1      26.282   5.014  49.476  1.00  0.00    -0.044 A 
HETATM   13  C3  UNL     1      25.626   6.015  50.017  1.00  0.00     0.042 A 
HETATM   14  C2  UNL     1      26.088   7.362  49.703  1.00  0.00     0.085 A 
HETATM   15  N2  UNL     1      25.613   8.494  50.109  1.00  0.00    -0.178 NA
HETATM   16  C19 UNL     1      27.234   7.638  48.820  1.00  0.00    -0.003 A 
HETATM   17  N1  UNL     1      26.332   9.570  49.584  1.00  0.00    -0.300 N 
HETATM   18  C1  UNL     1      27.425   9.102  48.719  1.00  0.00     0.158 A 
HETATM   19  H4  UNL     1      26.054  10.556  49.832  1.00  0.00     0.183 HD
HETATM   20  C18 UNL     1      27.779   6.523  48.360  1.00  0.00    -0.010 A 
HETATM   21  C17 UNL     1      27.439   5.094  48.580  1.00  0.00     0.067 A 
BRANCH  18  22
HETATM   22  P1  UNL     1      26.995   9.673  46.996  1.00  0.00    -0.110 P 
HETATM   23  H1  UNL     1      27.103   8.528  46.095  1.00  0.00     0.057 HD
HETATM   24  H2  UNL     1      28.051  10.615  46.611  1.00  0.00     0.057 HD
ENDBRANCH  18  22
ENDBRANCH  10  12
ENDBRANCH   1  10
BRANCH   8  25
HETATM   25  C10 UNL     1      25.919   0.841  51.881  1.00  0.00     0.043 C 
BRANCH  25  26
HETATM   26  C11 UNL     1      26.602  -0.116  52.762  1.00  0.00     0.038 C 
BRANCH  26  27
HETATM   27  C12 UNL     1      27.385   0.465  53.908  1.00  0.00     0.149 C 
HETATM   28  C13 UNL     1      28.241   1.634  53.522  1.00  0.00     0.301 C 
HETATM   29  N6  UNL     1      29.569   1.422  54.118  1.00  0.00     0.087 N 
HETATM   30  C14 UNL     1      30.092   0.201  53.492  1.00  0.00     0.295 C 
HETATM   31  H17 UNL     1      29.387   1.205  55.133  1.00  0.00     0.316 HD
HETATM   32  C15 UNL     1      29.213  -0.976  53.876  1.00  0.00     0.198 C 
HETATM   33  O1  UNL     1      28.092  -0.543  54.589  1.00  0.00    -0.382 OA
ENDBRANCH  26  27
ENDBRANCH  25  26
ENDBRANCH   8  25
TORSDOF 6
ENDMDL
