MODEL 1
REMARK VINA RESULT:      -7.5      0.000      0.000
REMARK  7 active torsions:
REMARK  status: ('A' for Active; 'I' for Inactive)
REMARK    1  A    between atoms: C2_2  and  C3_3 
REMARK    2  A    between atoms: C5_5  and  N1_6 
REMARK    3  A    between atoms: N1_6  and  C6_7 
REMARK    4  A    between atoms: C6_7  and  C7_8 
REMARK    5  A    between atoms: C8_9  and  C9_10 
REMARK    6  A    between atoms: N4_17  and  O1_18 
REMARK    7  A    between atoms: C16_22  and  C17_23 
ROOT
HETATM    1  C3  UNL     1      23.692   0.629  52.231  1.00  0.00     0.081 C 
HETATM    2  C4  UNL     1      23.488  -0.178  53.310  1.00  0.00     0.070 A 
HETATM    3  C5  UNL     1      22.254  -0.579  53.725  1.00  0.00     0.140 A 
HETATM    4  N2  UNL     1      22.072  -1.270  54.857  1.00  0.00    -0.224 NA
HETATM    5  C10 UNL     1      23.055  -1.620  55.656  1.00  0.00     0.235 A 
HETATM    6  N3  UNL     1      24.291  -1.236  55.266  1.00  0.00    -0.243 NA
HETATM    7  C11 UNL     1      24.530  -0.540  54.137  1.00  0.00     0.080 A 
HETATM    8  C12 UNL     1      25.884  -0.465  54.294  1.00  0.00     0.192 C 
HETATM    9  N4  UNL     1      26.990   0.075  53.605  1.00  0.00    -0.281 N 
HETATM   10  C14 UNL     1      27.190   1.474  54.014  1.00  0.00     0.153 C 
HETATM   11  C15 UNL     1      26.009   2.292  53.628  1.00  0.00     0.054 C 
HETATM   12  C16 UNL     1      25.594   2.222  52.178  1.00  0.00     0.130 C 
HETATM   13  O2  UNL     1      24.978   1.046  51.796  1.00  0.00    -0.345 OA
ENDROOT
BRANCH   3  14
HETATM   14  N1  UNL     1      21.124  -0.349  52.905  1.00  0.00    -0.364 N 
HETATM   15  H4  UNL     1      20.635  -0.294  52.014  1.00  0.00     0.162 HD
BRANCH  14  16
HETATM   16  C6  UNL     1      19.905  -0.028  53.650  1.00  0.00     0.215 C 
BRANCH  16  17
HETATM   17  C7  UNL     1      18.790  -0.902  53.389  1.00  0.00    -0.086 C 
HETATM   18  C8  UNL     1      17.876  -1.610  53.164  1.00  0.00    -0.090 C 
BRANCH  18  19
HETATM   19  C9  UNL     1      16.746  -2.506  52.862  1.00  0.00     0.208 C 
HETATM   20 CL1  UNL     1      17.060  -4.096  53.630  1.00  0.00    -0.117 Cl
ENDBRANCH  18  19
ENDBRANCH  16  17
ENDBRANCH  14  16
ENDBRANCH   3  14
BRANCH   1  21
HETATM   21  C2  UNL     1      22.564   1.114  51.450  1.00  0.00     0.029 C 
HETATM   22  C1  UNL     1      22.684   1.693  50.283  1.00  0.00     0.016 C 
ENDBRANCH   1  21
BRANCH  12  23
HETATM   23  C17 UNL     1      26.740   2.565  51.274  1.00  0.00     0.028 C 
HETATM   24  C18 UNL     1      26.362   3.163  49.954  1.00  0.00     0.007 C 
ENDBRANCH  12  23
BRANCH   9  25
HETATM   25  O1  UNL     1      27.816  -0.553  52.691  1.00  0.00    -0.287 OA
HETATM   26  C13 UNL     1      28.954  -0.935  53.392  1.00  0.00     0.237 C 
ENDBRANCH   9  25
TORSDOF 7
ENDMDL
MODEL 2
REMARK VINA RESULT:      -7.4      1.270      1.270
REMARK  7 active torsions:
REMARK  status: ('A' for Active; 'I' for Inactive)
REMARK    1  A    between atoms: C2_2  and  C3_3 
REMARK    2  A    between atoms: C5_5  and  N1_6 
REMARK    3  A    between atoms: N1_6  and  C6_7 
REMARK    4  A    between atoms: C6_7  and  C7_8 
REMARK    5  A    between atoms: C8_9  and  C9_10 
REMARK    6  A    between atoms: N4_17  and  O1_18 
REMARK    7  A    between atoms: C16_22  and  C17_23 
ROOT
HETATM    1  C3  UNL     1      23.570   0.652  52.277  1.00  0.00     0.081 C 
HETATM    2  C4  UNL     1      23.383  -0.164  53.352  1.00  0.00     0.070 A 
HETATM    3  C5  UNL     1      22.154  -0.559  53.790  1.00  0.00     0.140 A 
HETATM    4  N2  UNL     1      21.990  -1.260  54.918  1.00  0.00    -0.224 NA
HETATM    5  C10 UNL     1      22.988  -1.627  55.692  1.00  0.00     0.235 A 
HETATM    6  N3  UNL     1      24.218  -1.250  55.279  1.00  0.00    -0.243 NA
HETATM    7  C11 UNL     1      24.438  -0.543  54.153  1.00  0.00     0.080 A 
HETATM    8  C12 UNL     1      25.796  -0.482  54.280  1.00  0.00     0.192 C 
HETATM    9  N4  UNL     1      26.892   0.056  53.573  1.00  0.00    -0.281 N 
HETATM   10  C14 UNL     1      27.112   1.449  53.993  1.00  0.00     0.153 C 
HETATM   11  C15 UNL     1      25.931   2.281  53.641  1.00  0.00     0.054 C 
HETATM   12  C16 UNL     1      25.484   2.230  52.200  1.00  0.00     0.130 C 
HETATM   13  O2  UNL     1      24.850   1.063  51.819  1.00  0.00    -0.345 OA
ENDROOT
BRANCH   3  14
HETATM   14  N1  UNL     1      21.008  -0.310  52.997  1.00  0.00    -0.364 N 
HETATM   15  H4  UNL     1      20.528  -0.031  52.143  1.00  0.00     0.162 HD
BRANCH  14  16
HETATM   16  C6  UNL     1      19.744  -0.622  53.666  1.00  0.00     0.215 C 
BRANCH  16  17
HETATM   17  C7  UNL     1      18.591  -0.637  52.802  1.00  0.00    -0.086 C 
HETATM   18  C8  UNL     1      17.641  -0.655  52.107  1.00  0.00    -0.090 C 
BRANCH  18  19
HETATM   19  C9  UNL     1      16.442  -0.659  51.250  1.00  0.00     0.208 C 
HETATM   20 CL1  UNL     1      16.944  -0.288  49.569  1.00  0.00    -0.117 Cl
ENDBRANCH  18  19
ENDBRANCH  16  17
ENDBRANCH  14  16
ENDBRANCH   3  14
BRANCH   1  21
HETATM   21  C2  UNL     1      22.429   1.155  51.526  1.00  0.00     0.029 C 
HETATM   22  C1  UNL     1      22.511   1.621  50.306  1.00  0.00     0.016 C 
ENDBRANCH   1  21
BRANCH  12  23
HETATM   23  C17 UNL     1      26.613   2.573  51.275  1.00  0.00     0.028 C 
HETATM   24  C18 UNL     1      26.210   3.152  49.953  1.00  0.00     0.007 C 
ENDBRANCH  12  23
BRANCH   9  25
HETATM   25  O1  UNL     1      27.693  -0.569  52.636  1.00  0.00    -0.287 OA
HETATM   26  C13 UNL     1      28.828  -0.997  53.315  1.00  0.00     0.237 C 
ENDBRANCH   9  25
TORSDOF 7
ENDMDL
MODEL 3
REMARK VINA RESULT:      -7.1      3.588      6.416
REMARK  7 active torsions:
REMARK  status: ('A' for Active; 'I' for Inactive)
REMARK    1  A    between atoms: C2_2  and  C3_3 
REMARK    2  A    between atoms: C5_5  and  N1_6 
REMARK    3  A    between atoms: N1_6  and  C6_7 
REMARK    4  A    between atoms: C6_7  and  C7_8 
REMARK    5  A    between atoms: C8_9  and  C9_10 
REMARK    6  A    between atoms: N4_17  and  O1_18 
REMARK    7  A    between atoms: C16_22  and  C17_23 
ROOT
HETATM    1  C3  UNL     1      24.250   1.858  51.696  1.00  0.00     0.081 C 
HETATM    2  C4  UNL     1      23.216   1.366  52.435  1.00  0.00     0.070 A 
HETATM    3  C5  UNL     1      23.261   0.170  53.087  1.00  0.00     0.140 A 
HETATM    4  N2  UNL     1      22.191  -0.346  53.704  1.00  0.00    -0.224 NA
HETATM    5  C10 UNL     1      21.019   0.249  53.737  1.00  0.00     0.235 A 
HETATM    6  N3  UNL     1      20.948   1.438  53.100  1.00  0.00    -0.243 NA
HETATM    7  C11 UNL     1      21.993   2.002  52.463  1.00  0.00     0.080 A 
HETATM    8  C12 UNL     1      21.328   3.121  52.050  1.00  0.00     0.192 C 
HETATM    9  N4  UNL     1      21.606   4.293  51.317  1.00  0.00    -0.281 N 
HETATM   10  C14 UNL     1      21.407   4.036  49.882  1.00  0.00     0.153 C 
HETATM   11  C15 UNL     1      22.368   3.004  49.410  1.00  0.00     0.054 C 
HETATM   12  C16 UNL     1      23.826   3.269  49.699  1.00  0.00     0.130 C 
HETATM   13  O2  UNL     1      24.206   3.104  51.018  1.00  0.00    -0.345 OA
ENDROOT
BRANCH   3  14
HETATM   14  N1  UNL     1      24.489  -0.523  53.207  1.00  0.00    -0.364 N 
HETATM   15  H4  UNL     1      25.281  -1.052  52.848  1.00  0.00     0.162 HD
BRANCH  14  16
HETATM   16  C6  UNL     1      25.042  -0.520  54.563  1.00  0.00     0.215 C 
BRANCH  16  17
HETATM   17  C7  UNL     1      26.420  -0.108  54.652  1.00  0.00    -0.086 C 
HETATM   18  C8  UNL     1      27.547   0.222  54.738  1.00  0.00    -0.090 C 
BRANCH  18  19
HETATM   19  C9  UNL     1      28.964   0.611  54.843  1.00  0.00     0.208 C 
HETATM   20 CL1  UNL     1      29.888  -0.259  53.575  1.00  0.00    -0.117 Cl
ENDBRANCH  18  19
ENDBRANCH  16  17
ENDBRANCH  14  16
ENDBRANCH   3  14
BRANCH   1  21
HETATM   21  C2  UNL     1      25.488   1.101  51.567  1.00  0.00     0.029 C 
HETATM   22  C1  UNL     1      26.663   1.654  51.409  1.00  0.00     0.016 C 
ENDBRANCH   1  21
BRANCH  12  23
HETATM   23  C17 UNL     1      24.246   4.605  49.165  1.00  0.00     0.028 C 
HETATM   24  C18 UNL     1      25.303   5.311  49.957  1.00  0.00     0.007 C 
ENDBRANCH  12  23
BRANCH   9  25
HETATM   25  O1  UNL     1      21.989   5.531  51.799  1.00  0.00    -0.287 OA
HETATM   26  C13 UNL     1      21.567   6.464  50.860  1.00  0.00     0.237 C 
ENDBRANCH   9  25
TORSDOF 7
ENDMDL
MODEL 4
REMARK VINA RESULT:      -6.9      2.377      2.530
REMARK  7 active torsions:
REMARK  status: ('A' for Active; 'I' for Inactive)
REMARK    1  A    between atoms: C2_2  and  C3_3 
REMARK    2  A    between atoms: C5_5  and  N1_6 
REMARK    3  A    between atoms: N1_6  and  C6_7 
REMARK    4  A    between atoms: C6_7  and  C7_8 
REMARK    5  A    between atoms: C8_9  and  C9_10 
REMARK    6  A    between atoms: N4_17  and  O1_18 
REMARK    7  A    between atoms: C16_22  and  C17_23 
ROOT
HETATM    1  C3  UNL     1      23.111   1.176  51.435  1.00  0.00     0.081 C 
HETATM    2  C4  UNL     1      22.658   0.325  52.398  1.00  0.00     0.070 A 
HETATM    3  C5  UNL     1      21.339   0.035  52.585  1.00  0.00     0.140 A 
HETATM    4  N2  UNL     1      20.911  -0.708  53.612  1.00  0.00    -0.224 NA
HETATM    5  C10 UNL     1      21.714  -1.219  54.519  1.00  0.00     0.235 A 
HETATM    6  N3  UNL     1      23.028  -0.949  54.355  1.00  0.00    -0.243 NA
HETATM    7  C11 UNL     1      23.512  -0.208  53.340  1.00  0.00     0.080 A 
HETATM    8  C12 UNL     1      24.825  -0.295  53.706  1.00  0.00     0.192 C 
HETATM    9  N4  UNL     1      26.074   0.165  53.242  1.00  0.00    -0.281 N 
HETATM   10  C14 UNL     1      26.343   1.502  53.795  1.00  0.00     0.153 C 
HETATM   11  C15 UNL     1      25.326   2.471  53.306  1.00  0.00     0.054 C 
HETATM   12  C16 UNL     1      25.144   2.548  51.809  1.00  0.00     0.130 C 
HETATM   13  O2  UNL     1      24.484   1.477  51.238  1.00  0.00    -0.345 OA
ENDROOT
BRANCH   3  14
HETATM   14  N1  UNL     1      20.383   0.446  51.625  1.00  0.00    -0.364 N 
HETATM   15  H4  UNL     1      20.088   0.894  50.760  1.00  0.00     0.162 HD
BRANCH  14  16
HETATM   16  C6  UNL     1      19.016   0.017  51.927  1.00  0.00     0.215 C 
BRANCH  16  17
HETATM   17  C7  UNL     1      17.995   0.975  51.592  1.00  0.00    -0.086 C 
HETATM   18  C8  UNL     1      17.149   1.748  51.320  1.00  0.00    -0.090 C 
BRANCH  18  19
HETATM   19  C9  UNL     1      16.084   2.717  51.004  1.00  0.00     0.208 C 
HETATM   20 CL1  UNL     1      16.116   4.019  52.236  1.00  0.00    -0.117 Cl
ENDBRANCH  18  19
ENDBRANCH  16  17
ENDBRANCH  14  16
ENDBRANCH   3  14
BRANCH   1  21
HETATM   21  C2  UNL     1      22.175   1.836  50.536  1.00  0.00     0.029 C 
HETATM   22  C1  UNL     1      22.452   2.138  49.294  1.00  0.00     0.016 C 
ENDBRANCH   1  21
BRANCH  12  23
HETATM   23  C17 UNL     1      26.448   2.824  51.123  1.00  0.00     0.028 C 
HETATM   24  C18 UNL     1      26.345   3.238  49.687  1.00  0.00     0.007 C 
ENDBRANCH  12  23
BRANCH   9  25
HETATM   25  O1  UNL     1      26.970  -0.485  52.414  1.00  0.00    -0.287 OA
HETATM   26  C13 UNL     1      26.820  -1.844  52.668  1.00  0.00     0.237 C 
ENDBRANCH   9  25
TORSDOF 7
ENDMDL
MODEL 5
REMARK VINA RESULT:      -6.8      2.856      3.584
REMARK  7 active torsions:
REMARK  status: ('A' for Active; 'I' for Inactive)
REMARK    1  A    between atoms: C2_2  and  C3_3 
REMARK    2  A    between atoms: C5_5  and  N1_6 
REMARK    3  A    between atoms: N1_6  and  C6_7 
REMARK    4  A    between atoms: C6_7  and  C7_8 
REMARK    5  A    between atoms: C8_9  and  C9_10 
REMARK    6  A    between atoms: N4_17  and  O1_18 
REMARK    7  A    between atoms: C16_22  and  C17_23 
ROOT
HETATM    1  C3  UNL     1      23.752   1.953  52.566  1.00  0.00     0.081 C 
HETATM    2  C4  UNL     1      22.914   1.005  53.072  1.00  0.00     0.070 A 
HETATM    3  C5  UNL     1      21.581   1.207  53.265  1.00  0.00     0.140 A 
HETATM    4  N2  UNL     1      20.803   0.304  53.874  1.00  0.00    -0.224 NA
HETATM    5  C10 UNL     1      21.252  -0.844  54.332  1.00  0.00     0.235 A 
HETATM    6  N3  UNL     1      22.571  -1.071  54.150  1.00  0.00    -0.243 NA
HETATM    7  C11 UNL     1      23.398  -0.197  53.544  1.00  0.00     0.080 A 
HETATM    8  C12 UNL     1      24.527  -0.955  53.661  1.00  0.00     0.192 C 
HETATM    9  N4  UNL     1      25.890  -0.865  53.312  1.00  0.00    -0.281 N 
HETATM   10  C14 UNL     1      26.629  -0.179  54.385  1.00  0.00     0.153 C 
HETATM   11  C15 UNL     1      26.135   1.216  54.532  1.00  0.00     0.054 C 
HETATM   12  C16 UNL     1      26.128   2.057  53.278  1.00  0.00     0.130 C 
HETATM   13  O2  UNL     1      25.142   1.742  52.362  1.00  0.00    -0.345 OA
ENDROOT
BRANCH   3  14
HETATM   14  N1  UNL     1      20.957   2.361  52.733  1.00  0.00    -0.364 N 
HETATM   15  H4  UNL     1      20.842   3.365  52.609  1.00  0.00     0.162 HD
BRANCH  14  16
HETATM   16  C6  UNL     1      19.868   2.070  51.799  1.00  0.00     0.215 C 
BRANCH  16  17
HETATM   17  C7  UNL     1      20.213   2.208  50.407  1.00  0.00    -0.086 C 
HETATM   18  C8  UNL     1      20.488   2.307  49.267  1.00  0.00    -0.090 C 
BRANCH  18  19
HETATM   19  C9  UNL     1      20.808   2.438  47.834  1.00  0.00     0.208 C 
HETATM   20 CL1  UNL     1      22.545   2.054  47.602  1.00  0.00    -0.117 Cl
ENDBRANCH  18  19
ENDBRANCH  16  17
ENDBRANCH  14  16
ENDBRANCH   3  14
BRANCH   1  21
HETATM   21  C2  UNL     1      23.243   3.267  52.201  1.00  0.00     0.029 C 
HETATM   22  C1  UNL     1      23.646   3.936  51.152  1.00  0.00     0.016 C 
ENDBRANCH   1  21
BRANCH  12  23
HETATM   23  C17 UNL     1      27.484   2.086  52.642  1.00  0.00     0.028 C 
HETATM   24  C18 UNL     1      28.601   2.548  53.526  1.00  0.00     0.007 C 
ENDBRANCH  12  23
BRANCH   9  25
HETATM   25  O1  UNL     1      26.514  -1.339  52.173  1.00  0.00    -0.287 OA
HETATM   26  C13 UNL     1      27.335  -2.383  52.582  1.00  0.00     0.237 C 
ENDBRANCH   9  25
TORSDOF 7
ENDMDL
MODEL 6
REMARK VINA RESULT:      -6.8      5.328      7.667
REMARK  7 active torsions:
REMARK  status: ('A' for Active; 'I' for Inactive)
REMARK    1  A    between atoms: C2_2  and  C3_3 
REMARK    2  A    between atoms: C5_5  and  N1_6 
REMARK    3  A    between atoms: N1_6  and  C6_7 
REMARK    4  A    between atoms: C6_7  and  C7_8 
REMARK    5  A    between atoms: C8_9  and  C9_10 
REMARK    6  A    between atoms: N4_17  and  O1_18 
REMARK    7  A    between atoms: C16_22  and  C17_23 
ROOT
HETATM    1  C3  UNL     1      25.310   5.163  49.882  1.00  0.00     0.081 C 
HETATM    2  C4  UNL     1      24.176   5.764  50.342  1.00  0.00     0.070 A 
HETATM    3  C5  UNL     1      23.055   5.077  50.701  1.00  0.00     0.140 A 
HETATM    4  N2  UNL     1      21.916   5.695  51.034  1.00  0.00    -0.224 NA
HETATM    5  C10 UNL     1      21.780   7.003  51.045  1.00  0.00     0.235 A 
HETATM    6  N3  UNL     1      22.878   7.708  50.695  1.00  0.00    -0.243 NA
HETATM    7  C11 UNL     1      24.049   7.136  50.352  1.00  0.00     0.080 A 
HETATM    8  C12 UNL     1      24.721   8.302  50.121  1.00  0.00     0.192 C 
HETATM    9  N4  UNL     1      26.012   8.706  49.722  1.00  0.00    -0.281 N 
HETATM   10  C14 UNL     1      26.082   8.752  48.253  1.00  0.00     0.153 C 
HETATM   11  C15 UNL     1      25.870   7.392  47.690  1.00  0.00     0.054 C 
HETATM   12  C16 UNL     1      26.766   6.301  48.225  1.00  0.00     0.130 C 
HETATM   13  O2  UNL     1      26.479   5.878  49.509  1.00  0.00    -0.345 OA
ENDROOT
BRANCH   3  14
HETATM   14  N1  UNL     1      23.100   3.667  50.822  1.00  0.00    -0.364 N 
HETATM   15  H4  UNL     1      23.220   2.720  50.467  1.00  0.00     0.162 HD
BRANCH  14  16
HETATM   16  C6  UNL     1      22.902   3.182  52.190  1.00  0.00     0.215 C 
BRANCH  16  17
HETATM   17  C7  UNL     1      23.687   2.026  52.539  1.00  0.00    -0.086 C 
HETATM   18  C8  UNL     1      24.322   1.073  52.815  1.00  0.00    -0.090 C 
BRANCH  18  19
HETATM   19  C9  UNL     1      25.127  -0.118  53.138  1.00  0.00     0.208 C 
HETATM   20 CL1  UNL     1      26.540  -0.165  52.036  1.00  0.00    -0.117 Cl
ENDBRANCH  18  19
ENDBRANCH  16  17
ENDBRANCH  14  16
ENDBRANCH   3  14
BRANCH   1  21
HETATM   21  C2  UNL     1      25.374   3.715  49.749  1.00  0.00     0.029 C 
HETATM   22  C1  UNL     1      26.457   3.014  49.965  1.00  0.00     0.016 C 
ENDBRANCH   1  21
BRANCH  12  23
HETATM   23  C17 UNL     1      28.211   6.670  48.074  1.00  0.00     0.028 C 
HETATM   24  C18 UNL     1      29.184   5.544  48.245  1.00  0.00     0.007 C 
ENDBRANCH  12  23
BRANCH   9  25
HETATM   25  O1  UNL     1      27.088   9.042  50.524  1.00  0.00    -0.287 OA
HETATM   26  C13 UNL     1      27.930   9.822  49.740  1.00  0.00     0.237 C 
ENDBRANCH   9  25
TORSDOF 7
ENDMDL
MODEL 7
REMARK VINA RESULT:      -6.7      2.891      4.710
REMARK  7 active torsions:
REMARK  status: ('A' for Active; 'I' for Inactive)
REMARK    1  A    between atoms: C2_2  and  C3_3 
REMARK    2  A    between atoms: C5_5  and  N1_6 
REMARK    3  A    between atoms: N1_6  and  C6_7 
REMARK    4  A    between atoms: C6_7  and  C7_8 
REMARK    5  A    between atoms: C8_9  and  C9_10 
REMARK    6  A    between atoms: N4_17  and  O1_18 
REMARK    7  A    between atoms: C16_22  and  C17_23 
ROOT
HETATM    1  C3  UNL     1      24.087   1.805  52.608  1.00  0.00     0.081 C 
HETATM    2  C4  UNL     1      24.753   2.510  51.650  1.00  0.00     0.070 A 
HETATM    3  C5  UNL     1      24.127   3.224  50.673  1.00  0.00     0.140 A 
HETATM    4  N2  UNL     1      24.801   3.808  49.674  1.00  0.00    -0.224 NA
HETATM    5  C10 UNL     1      26.109   3.746  49.552  1.00  0.00     0.235 A 
HETATM    6  N3  UNL     1      26.753   3.046  50.510  1.00  0.00    -0.243 NA
HETATM    7  C11 UNL     1      26.125   2.439  51.536  1.00  0.00     0.080 A 
HETATM    8  C12 UNL     1      27.250   1.933  52.121  1.00  0.00     0.192 C 
HETATM    9  N4  UNL     1      27.585   1.158  53.250  1.00  0.00    -0.281 N 
HETATM   10  C14 UNL     1      27.512  -0.271  52.906  1.00  0.00     0.153 C 
HETATM   11  C15 UNL     1      26.117  -0.636  52.540  1.00  0.00     0.054 C 
HETATM   12  C16 UNL     1      25.049  -0.282  53.545  1.00  0.00     0.130 C 
HETATM   13  O2  UNL     1      24.738   1.062  53.628  1.00  0.00    -0.345 OA
ENDROOT
BRANCH   3  14
HETATM   14  N1  UNL     1      22.732   3.446  50.744  1.00  0.00    -0.364 N 
HETATM   15  H4  UNL     1      21.869   3.713  51.215  1.00  0.00     0.162 HD
BRANCH  14  16
HETATM   16  C6  UNL     1      22.030   3.230  49.476  1.00  0.00     0.215 C 
BRANCH  16  17
HETATM   17  C7  UNL     1      20.814   2.467  49.582  1.00  0.00    -0.086 C 
HETATM   18  C8  UNL     1      19.821   1.841  49.683  1.00  0.00    -0.090 C 
BRANCH  18  19
HETATM   19  C9  UNL     1      18.569   1.076  49.823  1.00  0.00     0.208 C 
HETATM   20 CL1  UNL     1      18.684   0.063  51.299  1.00  0.00    -0.117 Cl
ENDBRANCH  18  19
ENDBRANCH  16  17
ENDBRANCH  14  16
ENDBRANCH   3  14
BRANCH   1  21
HETATM   21  C2  UNL     1      22.632   1.781  52.627  1.00  0.00     0.029 C 
HETATM   22  C1  UNL     1      21.926   0.697  52.819  1.00  0.00     0.016 C 
ENDBRANCH   1  21
BRANCH  12  23
HETATM   23  C17 UNL     1      25.365  -0.860  54.892  1.00  0.00     0.028 C 
HETATM   24  C18 UNL     1      24.180  -1.262  55.715  1.00  0.00     0.007 C 
ENDBRANCH  12  23
BRANCH   9  25
HETATM   25  O1  UNL     1      27.955   1.596  54.508  1.00  0.00    -0.287 OA
HETATM   26  C13 UNL     1      29.334   1.769  54.472  1.00  0.00     0.237 C 
ENDBRANCH   9  25
TORSDOF 7
ENDMDL
MODEL 8
REMARK VINA RESULT:      -6.6      4.218      7.054
REMARK  7 active torsions:
REMARK  status: ('A' for Active; 'I' for Inactive)
REMARK    1  A    between atoms: C2_2  and  C3_3 
REMARK    2  A    between atoms: C5_5  and  N1_6 
REMARK    3  A    between atoms: N1_6  and  C6_7 
REMARK    4  A    between atoms: C6_7  and  C7_8 
REMARK    5  A    between atoms: C8_9  and  C9_10 
REMARK    6  A    between atoms: N4_17  and  O1_18 
REMARK    7  A    between atoms: C16_22  and  C17_23 
ROOT
HETATM    1  C3  UNL     1      24.222   3.360  50.737  1.00  0.00     0.081 C 
HETATM    2  C4  UNL     1      23.266   2.766  51.505  1.00  0.00     0.070 A 
HETATM    3  C5  UNL     1      23.434   1.557  52.111  1.00  0.00     0.140 A 
HETATM    4  N2  UNL     1      22.439   0.940  52.759  1.00  0.00    -0.224 NA
HETATM    5  C10 UNL     1      21.228   1.440  52.868  1.00  0.00     0.235 A 
HETATM    6  N3  UNL     1      21.035   2.640  52.278  1.00  0.00    -0.243 NA
HETATM    7  C11 UNL     1      22.001   3.304  51.614  1.00  0.00     0.080 A 
HETATM    8  C12 UNL     1      21.233   4.380  51.272  1.00  0.00     0.192 C 
HETATM    9  N4  UNL     1      21.384   5.594  50.570  1.00  0.00    -0.281 N 
HETATM   10  C14 UNL     1      21.134   5.368  49.137  1.00  0.00     0.153 C 
HETATM   11  C15 UNL     1      22.147   4.430  48.584  1.00  0.00     0.054 C 
HETATM   12  C16 UNL     1      23.593   4.797  48.814  1.00  0.00     0.130 C 
HETATM   13  O2  UNL     1      24.049   4.621  50.107  1.00  0.00    -0.345 OA
ENDROOT
BRANCH   3  14
HETATM   14  N1  UNL     1      24.716   0.958  52.149  1.00  0.00    -0.364 N 
HETATM   15  H4  UNL     1      25.659   0.791  51.805  1.00  0.00     0.162 HD
BRANCH  14  16
HETATM   16  C6  UNL     1      24.932   0.091  53.310  1.00  0.00     0.215 C 
BRANCH  16  17
HETATM   17  C7  UNL     1      26.282   0.081  53.812  1.00  0.00    -0.086 C 
HETATM   18  C8  UNL     1      27.381   0.081  54.233  1.00  0.00    -0.090 C 
BRANCH  18  19
HETATM   19  C9  UNL     1      28.750   0.069  54.781  1.00  0.00     0.208 C 
HETATM   20 CL1  UNL     1      29.802  -0.853  53.659  1.00  0.00    -0.117 Cl
ENDBRANCH  18  19
ENDBRANCH  16  17
ENDBRANCH  14  16
ENDBRANCH   3  14
BRANCH   1  21
HETATM   21  C2  UNL     1      25.505   2.707  50.523  1.00  0.00     0.029 C 
HETATM   22  C1  UNL     1      26.533   3.293  49.965  1.00  0.00     0.016 C 
ENDBRANCH   1  21
BRANCH  12  23
HETATM   23  C17 UNL     1      23.883   6.179  48.309  1.00  0.00     0.028 C 
HETATM   24  C18 UNL     1      25.289   6.655  48.509  1.00  0.00     0.007 C 
ENDBRANCH  12  23
BRANCH   9  25
HETATM   25  O1  UNL     1      21.695   6.841  51.078  1.00  0.00    -0.287 OA
HETATM   26  C13 UNL     1      21.062   7.767  50.256  1.00  0.00     0.237 C 
ENDBRANCH   9  25
TORSDOF 7
ENDMDL
MODEL 9
REMARK VINA RESULT:      -6.6      3.863      7.751
REMARK  7 active torsions:
REMARK  status: ('A' for Active; 'I' for Inactive)
REMARK    1  A    between atoms: C2_2  and  C3_3 
REMARK    2  A    between atoms: C5_5  and  N1_6 
REMARK    3  A    between atoms: N1_6  and  C6_7 
REMARK    4  A    between atoms: C6_7  and  C7_8 
REMARK    5  A    between atoms: C8_9  and  C9_10 
REMARK    6  A    between atoms: N4_17  and  O1_18 
REMARK    7  A    between atoms: C16_22  and  C17_23 
ROOT
HETATM    1  C3  UNL     1      23.376   1.796  51.696  1.00  0.00     0.081 C 
HETATM    2  C4  UNL     1      24.245   2.564  50.981  1.00  0.00     0.070 A 
HETATM    3  C5  UNL     1      25.596   2.540  51.165  1.00  0.00     0.140 A 
HETATM    4  N2  UNL     1      26.416   3.390  50.536  1.00  0.00    -0.224 NA
HETATM    5  C10 UNL     1      25.997   4.309  49.694  1.00  0.00     0.235 A 
HETATM    6  N3  UNL     1      24.662   4.352  49.492  1.00  0.00    -0.243 NA
HETATM    7  C11 UNL     1      23.792   3.521  50.099  1.00  0.00     0.080 A 
HETATM    8  C12 UNL     1      22.668   4.034  49.518  1.00  0.00     0.192 C 
HETATM    9  N4  UNL     1      21.277   3.801  49.541  1.00  0.00    -0.281 N 
HETATM   10  C14 UNL     1      20.668   4.566  50.640  1.00  0.00     0.153 C 
HETATM   11  C15 UNL     1      21.200   4.094  51.947  1.00  0.00     0.054 C 
HETATM   12  C16 UNL     1      21.091   2.613  52.215  1.00  0.00     0.130 C 
HETATM   13  O2  UNL     1      21.970   1.818  51.504  1.00  0.00    -0.345 OA
ENDROOT
BRANCH   3  14
HETATM   14  N1  UNL     1      26.181   1.536  51.972  1.00  0.00    -0.364 N 
HETATM   15  H4  UNL     1      26.268   0.589  52.337  1.00  0.00     0.162 HD
BRANCH  14  16
HETATM   16  C6  UNL     1      27.344   1.990  52.736  1.00  0.00     0.215 C 
BRANCH  16  17
HETATM   17  C7  UNL     1      28.255   0.946  53.127  1.00  0.00    -0.086 C 
HETATM   18  C8  UNL     1      29.011   0.097  53.437  1.00  0.00    -0.090 C 
BRANCH  18  19
HETATM   19  C9  UNL     1      29.970  -0.948  53.838  1.00  0.00     0.208 C 
HETATM   20 CL1  UNL     1      29.321  -2.540  53.331  1.00  0.00    -0.117 Cl
ENDBRANCH  18  19
ENDBRANCH  16  17
ENDBRANCH  14  16
ENDBRANCH   3  14
BRANCH   1  21
HETATM   21  C2  UNL     1      23.869   0.888  52.723  1.00  0.00     0.029 C 
HETATM   22  C1  UNL     1      23.219  -0.174  53.125  1.00  0.00     0.016 C 
ENDBRANCH   1  21
BRANCH  12  23
HETATM   23  C17 UNL     1      19.676   2.142  52.068  1.00  0.00     0.028 C 
HETATM   24  C18 UNL     1      19.501   0.661  51.932  1.00  0.00     0.007 C 
ENDBRANCH  12  23
BRANCH   9  25
HETATM   25  O1  UNL     1      20.530   3.009  48.690  1.00  0.00    -0.287 OA
HETATM   26  C13 UNL     1      19.265   3.583  48.633  1.00  0.00     0.237 C 
ENDBRANCH   9  25
TORSDOF 7
ENDMDL
