MODEL 1
REMARK VINA RESULT:      -7.1      0.000      0.000
REMARK  7 active torsions:
REMARK  status: ('A' for Active; 'I' for Inactive)
REMARK    1  A    between atoms: O1_2  and  C2_3 
REMARK    2  A    between atoms: C2_3  and  C3_4 
REMARK    3  A    between atoms: C3_4  and  O2_5 
REMARK    4  A    between atoms: C3_4  and  C5_7 
REMARK    5  A    between atoms: C9_13  and  N2_14 
REMARK    6  A    between atoms: N2_14  and  C10_15 
REMARK    7  A    between atoms: C11_16  and  C12_17 
ROOT
HETATM    1  C5  UNL     1      26.193   0.123  52.803  1.00  0.00     0.122 C 
HETATM    2  C6  UNL     1      25.838   1.105  51.962  1.00  0.00     0.143 C 
HETATM    3  F1  UNL     1      26.937   1.870  51.654  1.00  0.00    -0.206 F 
HETATM    4  C7  UNL     1      24.636   1.592  51.284  1.00  0.00     0.193 C 
HETATM    5  N1  UNL     1      23.392   1.271  51.954  1.00  0.00    -0.377 N 
HETATM    6  C8  UNL     1      23.045   0.437  53.064  1.00  0.00     0.129 A 
HETATM    7  C9  UNL     1      21.746   0.669  53.504  1.00  0.00     0.159 A 
HETATM    8  N3  UNL     1      21.339  -0.084  54.558  1.00  0.00    -0.222 NA
HETATM    9  C15 UNL     1      22.150  -0.976  55.113  1.00  0.00     0.238 A 
HETATM   10  N4  UNL     1      23.403  -1.197  54.685  1.00  0.00    -0.215 NA
HETATM   11  C16 UNL     1      23.894  -0.493  53.639  1.00  0.00     0.201 A 
HETATM   12  O3  UNL     1      25.221  -0.790  53.255  1.00  0.00    -0.289 OA
HETATM   13  H12 UNL     1      22.596   1.795  51.484  1.00  0.00     0.160 HD
ENDROOT
BRANCH   7  14
HETATM   14  N2  UNL     1      21.016   1.650  52.799  1.00  0.00    -0.349 N 
HETATM   15  H13 UNL     1      21.418   2.632  52.803  1.00  0.00     0.167 HD
BRANCH  14  16
HETATM   16  C10 UNL     1      19.804   1.389  52.104  1.00  0.00     0.090 C 
HETATM   17  C11 UNL     1      19.464   0.312  51.417  1.00  0.00     0.018 C 
BRANCH  17  18
HETATM   18  C12 UNL     1      18.155   0.277  50.784  1.00  0.00     0.020 C 
HETATM   19  C13 UNL     1      17.163  -0.409  51.311  1.00  0.00     0.008 C 
HETATM   20  C14 UNL     1      17.148  -1.218  52.541  1.00  0.00     0.062 C 
HETATM   21 CL1  UNL     1      15.580  -0.473  50.576  1.00  0.00    -0.089 Cl
ENDBRANCH  17  18
ENDBRANCH  14  16
ENDBRANCH   7  14
BRANCH   1  22
HETATM   22  C3  UNL     1      27.630   0.043  53.226  1.00  0.00     0.204 C 
BRANCH  22  23
HETATM   23  C2  UNL     1      27.797   0.432  54.665  1.00  0.00     0.205 C 
BRANCH  23  24
HETATM   24  O1  UNL     1      28.787   1.352  54.928  1.00  0.00    -0.393 OA
HETATM   25  C1  UNL     1      28.991   2.288  53.957  1.00  0.00     0.201 C 
ENDBRANCH  23  24
ENDBRANCH  22  23
BRANCH  22  26
HETATM   26  O2  UNL     1      28.190  -1.155  52.888  1.00  0.00    -0.382 OA
HETATM   27  C4  UNL     1      29.401  -1.482  53.406  1.00  0.00     0.202 C 
ENDBRANCH  22  26
ENDBRANCH   1  22
TORSDOF 7
ENDMDL
MODEL 2
REMARK VINA RESULT:      -6.8      5.028      8.072
REMARK  7 active torsions:
REMARK  status: ('A' for Active; 'I' for Inactive)
REMARK    1  A    between atoms: O1_2  and  C2_3 
REMARK    2  A    between atoms: C2_3  and  C3_4 
REMARK    3  A    between atoms: C3_4  and  O2_5 
REMARK    4  A    between atoms: C3_4  and  C5_7 
REMARK    5  A    between atoms: C9_13  and  N2_14 
REMARK    6  A    between atoms: N2_14  and  C10_15 
REMARK    7  A    between atoms: C11_16  and  C12_17 
ROOT
HETATM    1  C5  UNL     1      22.427   0.731  52.274  1.00  0.00     0.122 C 
HETATM    2  C6  UNL     1      22.214   1.086  50.999  1.00  0.00     0.143 C 
HETATM    3  F1  UNL     1      21.201   0.323  50.470  1.00  0.00    -0.206 F 
HETATM    4  C7  UNL     1      22.738   2.040  50.020  1.00  0.00     0.193 C 
HETATM    5  N1  UNL     1      24.110   2.444  50.246  1.00  0.00    -0.377 N 
HETATM    6  C8  UNL     1      25.043   2.249  51.314  1.00  0.00     0.129 A 
HETATM    7  C9  UNL     1      26.338   2.603  50.944  1.00  0.00     0.159 A 
HETATM    8  N3  UNL     1      27.286   2.445  51.904  1.00  0.00    -0.222 NA
HETATM    9  C15 UNL     1      26.970   1.980  53.107  1.00  0.00     0.238 A 
HETATM   10  N4  UNL     1      25.720   1.641  53.458  1.00  0.00    -0.215 NA
HETATM   11  C16 UNL     1      24.710   1.765  52.566  1.00  0.00     0.201 A 
HETATM   12  O3  UNL     1      23.426   1.384  53.020  1.00  0.00    -0.289 OA
HETATM   13  H12 UNL     1      24.452   3.003  49.410  1.00  0.00     0.160 HD
ENDROOT
BRANCH   7  14
HETATM   14  N2  UNL     1      26.500   3.084  49.629  1.00  0.00    -0.349 N 
HETATM   15  H13 UNL     1      26.421   2.368  48.850  1.00  0.00     0.167 HD
BRANCH  14  16
HETATM   16  C10 UNL     1      26.756   4.445  49.307  1.00  0.00     0.090 C 
HETATM   17  C11 UNL     1      27.729   4.947  48.566  1.00  0.00     0.018 C 
BRANCH  17  18
HETATM   18  C12 UNL     1      27.787   6.388  48.379  1.00  0.00     0.020 C 
HETATM   19  C13 UNL     1      28.893   6.978  47.977  1.00  0.00     0.008 C 
HETATM   20  C14 UNL     1      30.198   6.377  47.655  1.00  0.00     0.062 C 
HETATM   21 CL1  UNL     1      28.995   8.706  47.744  1.00  0.00    -0.089 Cl
ENDBRANCH  17  18
ENDBRANCH  14  16
ENDBRANCH   7  14
BRANCH   1  22
HETATM   22  C3  UNL     1      21.577  -0.363  52.853  1.00  0.00     0.204 C 
BRANCH  22  23
HETATM   23  C2  UNL     1      22.402  -1.328  53.651  1.00  0.00     0.205 C 
BRANCH  23  24
HETATM   24  O1  UNL     1      22.385  -1.147  55.016  1.00  0.00    -0.393 OA
HETATM   25  C1  UNL     1      23.582  -1.323  55.645  1.00  0.00     0.201 C 
ENDBRANCH  23  24
ENDBRANCH  22  23
BRANCH  22  26
HETATM   26  O2  UNL     1      20.487   0.137  53.505  1.00  0.00    -0.382 OA
HETATM   27  C4  UNL     1      19.269  -0.403  53.253  1.00  0.00     0.202 C 
ENDBRANCH  22  26
ENDBRANCH   1  22
TORSDOF 7
ENDMDL
MODEL 3
REMARK VINA RESULT:      -6.8      3.311      5.139
REMARK  7 active torsions:
REMARK  status: ('A' for Active; 'I' for Inactive)
REMARK    1  A    between atoms: O1_2  and  C2_3 
REMARK    2  A    between atoms: C2_3  and  C3_4 
REMARK    3  A    between atoms: C3_4  and  O2_5 
REMARK    4  A    between atoms: C3_4  and  C5_7 
REMARK    5  A    between atoms: C9_13  and  N2_14 
REMARK    6  A    between atoms: N2_14  and  C10_15 
REMARK    7  A    between atoms: C11_16  and  C12_17 
ROOT
HETATM    1  C5  UNL     1      22.741   0.730  53.218  1.00  0.00     0.122 C 
HETATM    2  C6  UNL     1      22.822  -0.385  53.958  1.00  0.00     0.143 C 
HETATM    3  F1  UNL     1      24.121  -0.835  53.975  1.00  0.00    -0.206 F 
HETATM    4  C7  UNL     1      21.942  -1.251  54.744  1.00  0.00     0.193 C 
HETATM    5  N1  UNL     1      20.553  -1.232  54.333  1.00  0.00    -0.377 N 
HETATM    6  C8  UNL     1      19.794  -0.431  53.422  1.00  0.00     0.129 A 
HETATM    7  C9  UNL     1      18.541  -0.978  53.167  1.00  0.00     0.159 A 
HETATM    8  N3  UNL     1      17.757  -0.276  52.307  1.00  0.00    -0.222 NA
HETATM    9  C15 UNL     1      18.186   0.855  51.761  1.00  0.00     0.238 A 
HETATM   10  N4  UNL     1      19.396   1.379  52.011  1.00  0.00    -0.215 NA
HETATM   11  C16 UNL     1      20.245   0.748  52.855  1.00  0.00     0.201 A 
HETATM   12  O3  UNL     1      21.498   1.370  53.060  1.00  0.00    -0.289 OA
HETATM   13  H12 UNL     1      20.026  -1.999  54.846  1.00  0.00     0.160 HD
ENDROOT
BRANCH   7  14
HETATM   14  N2  UNL     1      18.241  -2.184  53.834  1.00  0.00    -0.349 N 
HETATM   15  H13 UNL     1      18.831  -2.413  54.685  1.00  0.00     0.167 HD
BRANCH  14  16
HETATM   16  C10 UNL     1      17.212  -3.079  53.430  1.00  0.00     0.090 C 
HETATM   17  C11 UNL     1      16.979  -4.309  53.855  1.00  0.00     0.018 C 
BRANCH  17  18
HETATM   18  C12 UNL     1      15.855  -5.038  53.287  1.00  0.00     0.020 C 
HETATM   19  C13 UNL     1      15.148  -5.875  54.016  1.00  0.00     0.008 C 
HETATM   20  C14 UNL     1      15.312  -6.232  55.435  1.00  0.00     0.062 C 
HETATM   21 CL1  UNL     1      13.795  -6.766  53.364  1.00  0.00    -0.089 Cl
ENDBRANCH  17  18
ENDBRANCH  14  16
ENDBRANCH   7  14
BRANCH   1  22
HETATM   22  C3  UNL     1      24.000   1.249  52.586  1.00  0.00     0.204 C 
BRANCH  22  23
HETATM   23  C2  UNL     1      23.766   1.655  51.161  1.00  0.00     0.205 C 
BRANCH  23  24
HETATM   24  O1  UNL     1      24.538   2.697  50.699  1.00  0.00    -0.393 OA
HETATM   25  C1  UNL     1      23.850   3.805  50.301  1.00  0.00     0.201 C 
ENDBRANCH  23  24
ENDBRANCH  22  23
BRANCH  22  26
HETATM   26  O2  UNL     1      24.600   2.198  53.362  1.00  0.00    -0.382 OA
HETATM   27  C4  UNL     1      25.884   2.007  53.755  1.00  0.00     0.202 C 
ENDBRANCH  22  26
ENDBRANCH   1  22
TORSDOF 7
ENDMDL
MODEL 4
REMARK VINA RESULT:      -6.7      1.778      3.140
REMARK  7 active torsions:
REMARK  status: ('A' for Active; 'I' for Inactive)
REMARK    1  A    between atoms: O1_2  and  C2_3 
REMARK    2  A    between atoms: C2_3  and  C3_4 
REMARK    3  A    between atoms: C3_4  and  O2_5 
REMARK    4  A    between atoms: C3_4  and  C5_7 
REMARK    5  A    between atoms: C9_13  and  N2_14 
REMARK    6  A    between atoms: N2_14  and  C10_15 
REMARK    7  A    between atoms: C11_16  and  C12_17 
ROOT
HETATM    1  C5  UNL     1      25.562   0.774  53.690  1.00  0.00     0.122 C 
HETATM    2  C6  UNL     1      24.707  -0.202  54.027  1.00  0.00     0.143 C 
HETATM    3  F1  UNL     1      25.381  -1.198  54.692  1.00  0.00    -0.206 F 
HETATM    4  C7  UNL     1      23.281  -0.510  53.897  1.00  0.00     0.193 C 
HETATM    5  N1  UNL     1      22.628   0.120  52.768  1.00  0.00    -0.377 N 
HETATM    6  C8  UNL     1      23.019   1.120  51.822  1.00  0.00     0.129 A 
HETATM    7  C9  UNL     1      22.134   1.197  50.751  1.00  0.00     0.159 A 
HETATM    8  N3  UNL     1      22.437   2.124  49.805  1.00  0.00    -0.222 NA
HETATM    9  C15 UNL     1      23.513   2.891  49.920  1.00  0.00     0.238 A 
HETATM   10  N4  UNL     1      24.364   2.813  50.955  1.00  0.00    -0.215 NA
HETATM   11  C16 UNL     1      24.142   1.918  51.946  1.00  0.00     0.201 A 
HETATM   12  O3  UNL     1      25.088   1.904  52.996  1.00  0.00    -0.289 OA
HETATM   13  H12 UNL     1      21.651  -0.282  52.661  1.00  0.00     0.160 HD
ENDROOT
BRANCH   7  14
HETATM   14  N2  UNL     1      21.037   0.312  50.785  1.00  0.00    -0.349 N 
HETATM   15  H13 UNL     1      21.225  -0.686  50.478  1.00  0.00     0.167 HD
BRANCH  14  16
HETATM   16  C10 UNL     1      19.729   0.684  51.202  1.00  0.00     0.090 C 
HETATM   17  C11 UNL     1      18.597   0.020  51.050  1.00  0.00     0.018 C 
BRANCH  17  18
HETATM   18  C12 UNL     1      17.370   0.610  51.564  1.00  0.00     0.020 C 
HETATM   19  C13 UNL     1      16.500  -0.110  52.240  1.00  0.00     0.008 C 
HETATM   20  C14 UNL     1      16.558  -1.537  52.598  1.00  0.00     0.062 C 
HETATM   21 CL1  UNL     1      15.019   0.569  52.870  1.00  0.00    -0.089 Cl
ENDBRANCH  17  18
ENDBRANCH  14  16
ENDBRANCH   7  14
BRANCH   1  22
HETATM   22  C3  UNL     1      27.003   0.612  54.074  1.00  0.00     0.204 C 
BRANCH  22  23
HETATM   23  C2  UNL     1      27.752  -0.193  53.054  1.00  0.00     0.205 C 
BRANCH  23  24
HETATM   24  O1  UNL     1      28.387  -1.319  53.525  1.00  0.00    -0.393 OA
HETATM   25  C1  UNL     1      29.747  -1.240  53.595  1.00  0.00     0.201 C 
ENDBRANCH  23  24
ENDBRANCH  22  23
BRANCH  22  26
HETATM   26  O2  UNL     1      27.577   1.808  54.396  1.00  0.00    -0.382 OA
HETATM   27  C4  UNL     1      28.530   2.319  53.576  1.00  0.00     0.202 C 
ENDBRANCH  22  26
ENDBRANCH   1  22
TORSDOF 7
ENDMDL
MODEL 5
REMARK VINA RESULT:      -6.7      4.051      5.566
REMARK  7 active torsions:
REMARK  status: ('A' for Active; 'I' for Inactive)
REMARK    1  A    between atoms: O1_2  and  C2_3 
REMARK    2  A    between atoms: C2_3  and  C3_4 
REMARK    3  A    between atoms: C3_4  and  O2_5 
REMARK    4  A    between atoms: C3_4  and  C5_7 
REMARK    5  A    between atoms: C9_13  and  N2_14 
REMARK    6  A    between atoms: N2_14  and  C10_15 
REMARK    7  A    between atoms: C11_16  and  C12_17 
ROOT
HETATM    1  C5  UNL     1      25.443   0.541  53.204  1.00  0.00     0.122 C 
HETATM    2  C6  UNL     1      24.102   0.557  53.213  1.00  0.00     0.143 C 
HETATM    3  F1  UNL     1      23.629  -0.627  53.726  1.00  0.00    -0.206 F 
HETATM    4  C7  UNL     1      23.009   1.458  52.842  1.00  0.00     0.193 C 
HETATM    5  N1  UNL     1      23.340   2.412  51.804  1.00  0.00    -0.377 N 
HETATM    6  C8  UNL     1      24.556   2.794  51.153  1.00  0.00     0.129 A 
HETATM    7  C9  UNL     1      24.319   3.570  50.022  1.00  0.00     0.159 A 
HETATM    8  N3  UNL     1      25.425   3.973  49.344  1.00  0.00    -0.222 NA
HETATM    9  C15 UNL     1      26.640   3.634  49.756  1.00  0.00     0.238 A 
HETATM   10  N4  UNL     1      26.863   2.886  50.848  1.00  0.00    -0.215 NA
HETATM   11  C16 UNL     1      25.821   2.439  51.586  1.00  0.00     0.201 A 
HETATM   12  O3  UNL     1      26.147   1.658  52.718  1.00  0.00    -0.289 OA
HETATM   13  H12 UNL     1      22.455   2.909  51.491  1.00  0.00     0.160 HD
ENDROOT
BRANCH   7  14
HETATM   14  N2  UNL     1      22.967   3.843  49.726  1.00  0.00    -0.349 N 
HETATM   15  H13 UNL     1      22.398   4.303  50.495  1.00  0.00     0.167 HD
BRANCH  14  16
HETATM   16  C10 UNL     1      22.350   3.540  48.481  1.00  0.00     0.090 C 
HETATM   17  C11 UNL     1      22.357   4.250  47.366  1.00  0.00     0.018 C 
BRANCH  17  18
HETATM   18  C12 UNL     1      21.645   3.730  46.208  1.00  0.00     0.020 C 
HETATM   19  C13 UNL     1      21.512   4.448  45.113  1.00  0.00     0.008 C 
HETATM   20  C14 UNL     1      22.004   5.807  44.831  1.00  0.00     0.062 C 
HETATM   21 CL1  UNL     1      20.663   3.853  43.707  1.00  0.00    -0.089 Cl
ENDBRANCH  17  18
ENDBRANCH  14  16
ENDBRANCH   7  14
BRANCH   1  22
HETATM   22  C3  UNL     1      26.137  -0.685  53.722  1.00  0.00     0.204 C 
BRANCH  22  23
HETATM   23  C2  UNL     1      27.018  -1.295  52.673  1.00  0.00     0.205 C 
BRANCH  23  24
HETATM   24  O1  UNL     1      27.444  -2.581  52.919  1.00  0.00    -0.393 OA
HETATM   25  C1  UNL     1      28.790  -2.735  53.069  1.00  0.00     0.201 C 
ENDBRANCH  23  24
ENDBRANCH  22  23
BRANCH  22  26
HETATM   26  O2  UNL     1      26.747  -0.452  54.920  1.00  0.00    -0.382 OA
HETATM   27  C4  UNL     1      27.919   0.232  54.936  1.00  0.00     0.202 C 
ENDBRANCH  22  26
ENDBRANCH   1  22
TORSDOF 7
ENDMDL
MODEL 6
REMARK VINA RESULT:      -6.7      2.123      3.330
REMARK  7 active torsions:
REMARK  status: ('A' for Active; 'I' for Inactive)
REMARK    1  A    between atoms: O1_2  and  C2_3 
REMARK    2  A    between atoms: C2_3  and  C3_4 
REMARK    3  A    between atoms: C3_4  and  O2_5 
REMARK    4  A    between atoms: C3_4  and  C5_7 
REMARK    5  A    between atoms: C9_13  and  N2_14 
REMARK    6  A    between atoms: N2_14  and  C10_15 
REMARK    7  A    between atoms: C11_16  and  C12_17 
ROOT
HETATM    1  C5  UNL     1      25.078   0.448  53.587  1.00  0.00     0.122 C 
HETATM    2  C6  UNL     1      24.663  -0.594  54.320  1.00  0.00     0.143 C 
HETATM    3  F1  UNL     1      25.686  -1.501  54.455  1.00  0.00    -0.206 F 
HETATM    4  C7  UNL     1      23.453  -1.041  55.013  1.00  0.00     0.193 C 
HETATM    5  N1  UNL     1      22.218  -0.509  54.474  1.00  0.00    -0.377 N 
HETATM    6  C8  UNL     1      21.905   0.495  53.503  1.00  0.00     0.129 A 
HETATM    7  C9  UNL     1      20.566   0.456  53.127  1.00  0.00     0.159 A 
HETATM    8  N3  UNL     1      20.188   1.379  52.204  1.00  0.00    -0.222 NA
HETATM    9  C15 UNL     1      21.061   2.248  51.711  1.00  0.00     0.238 A 
HETATM   10  N4  UNL     1      22.352   2.282  52.077  1.00  0.00    -0.215 NA
HETATM   11  C16 UNL     1      22.818   1.400  52.992  1.00  0.00     0.201 A 
HETATM   12  O3  UNL     1      24.189   1.506  53.318  1.00  0.00    -0.289 OA
HETATM   13  H12 UNL     1      21.396  -1.006  54.929  1.00  0.00     0.160 HD
ENDROOT
BRANCH   7  14
HETATM   14  N2  UNL     1      19.772  -0.528  53.752  1.00  0.00    -0.349 N 
HETATM   15  H13 UNL     1      20.112  -0.883  54.692  1.00  0.00     0.167 HD
BRANCH  14  16
HETATM   16  C10 UNL     1      18.572  -1.050  53.196  1.00  0.00     0.090 C 
HETATM   17  C11 UNL     1      17.843  -2.068  53.621  1.00  0.00     0.018 C 
BRANCH  17  18
HETATM   18  C12 UNL     1      16.643  -2.421  52.878  1.00  0.00     0.020 C 
HETATM   19  C13 UNL     1      16.144  -3.637  52.929  1.00  0.00     0.008 C 
HETATM   20  C14 UNL     1      16.635  -4.809  53.675  1.00  0.00     0.062 C 
HETATM   21 CL1  UNL     1      14.706  -4.092  52.049  1.00  0.00    -0.089 Cl
ENDBRANCH  17  18
ENDBRANCH  14  16
ENDBRANCH   7  14
BRANCH   1  22
HETATM   22  C3  UNL     1      26.490   0.436  53.080  1.00  0.00     0.204 C 
BRANCH  22  23
HETATM   23  C2  UNL     1      26.565   0.930  51.666  1.00  0.00     0.205 C 
BRANCH  23  24
HETATM   24  O1  UNL     1      27.094   2.190  51.498  1.00  0.00    -0.393 OA
HETATM   25  C1  UNL     1      26.312   3.068  50.807  1.00  0.00     0.201 C 
ENDBRANCH  23  24
ENDBRANCH  22  23
BRANCH  22  26
HETATM   26  O2  UNL     1      27.344   1.050  53.949  1.00  0.00    -0.382 OA
HETATM   27  C4  UNL     1      28.458   0.389  54.351  1.00  0.00     0.202 C 
ENDBRANCH  22  26
ENDBRANCH   1  22
TORSDOF 7
ENDMDL
MODEL 7
REMARK VINA RESULT:      -6.6      2.960      3.903
REMARK  7 active torsions:
REMARK  status: ('A' for Active; 'I' for Inactive)
REMARK    1  A    between atoms: O1_2  and  C2_3 
REMARK    2  A    between atoms: C2_3  and  C3_4 
REMARK    3  A    between atoms: C3_4  and  O2_5 
REMARK    4  A    between atoms: C3_4  and  C5_7 
REMARK    5  A    between atoms: C9_13  and  N2_14 
REMARK    6  A    between atoms: N2_14  and  C10_15 
REMARK    7  A    between atoms: C11_16  and  C12_17 
ROOT
HETATM    1  C5  UNL     1      25.994  -0.069  52.931  1.00  0.00     0.122 C 
HETATM    2  C6  UNL     1      25.860   0.898  52.011  1.00  0.00     0.143 C 
HETATM    3  F1  UNL     1      27.074   1.505  51.800  1.00  0.00    -0.206 F 
HETATM    4  C7  UNL     1      24.811   1.486  51.176  1.00  0.00     0.193 C 
HETATM    5  N1  UNL     1      23.471   1.357  51.711  1.00  0.00    -0.377 N 
HETATM    6  C8  UNL     1      22.901   0.637  52.809  1.00  0.00     0.129 A 
HETATM    7  C9  UNL     1      21.601   1.050  53.084  1.00  0.00     0.159 A 
HETATM    8  N3  UNL     1      20.989   0.414  54.117  1.00  0.00    -0.222 NA
HETATM    9  C15 UNL     1      21.615  -0.535  54.802  1.00  0.00     0.238 A 
HETATM   10  N4  UNL     1      22.869  -0.930  54.533  1.00  0.00    -0.215 NA
HETATM   11  C16 UNL     1      23.557  -0.352  53.521  1.00  0.00     0.201 A 
HETATM   12  O3  UNL     1      24.871  -0.829  53.307  1.00  0.00    -0.289 OA
HETATM   13  H12 UNL     1      22.804   1.943  51.128  1.00  0.00     0.160 HD
ENDROOT
BRANCH   7  14
HETATM   14  N2  UNL     1      21.083   2.067  52.256  1.00  0.00    -0.349 N 
HETATM   15  H13 UNL     1      20.280   1.795  51.619  1.00  0.00     0.167 HD
BRANCH  14  16
HETATM   16  C10 UNL     1      21.573   3.402  52.238  1.00  0.00     0.090 C 
HETATM   17  C11 UNL     1      21.426   4.320  51.299  1.00  0.00     0.018 C 
BRANCH  17  18
HETATM   18  C12 UNL     1      22.025   5.629  51.507  1.00  0.00     0.020 C 
HETATM   19  C13 UNL     1      23.144   5.969  50.903  1.00  0.00     0.008 C 
HETATM   20  C14 UNL     1      23.968   5.183  49.970  1.00  0.00     0.062 C 
HETATM   21 CL1  UNL     1      23.890   7.532  51.133  1.00  0.00    -0.089 Cl
ENDBRANCH  17  18
ENDBRANCH  14  16
ENDBRANCH   7  14
BRANCH   1  22
HETATM   22  C3  UNL     1      27.354  -0.296  53.522  1.00  0.00     0.204 C 
BRANCH  22  23
HETATM   23  C2  UNL     1      27.462   0.311  54.889  1.00  0.00     0.205 C 
BRANCH  23  24
HETATM   24  O1  UNL     1      28.662   0.916  55.185  1.00  0.00    -0.393 OA
HETATM   25  C1  UNL     1      29.181   1.703  54.200  1.00  0.00     0.201 C 
ENDBRANCH  23  24
ENDBRANCH  22  23
BRANCH  22  26
HETATM   26  O2  UNL     1      27.725  -1.607  53.445  1.00  0.00    -0.382 OA
HETATM   27  C4  UNL     1      29.023  -1.906  53.188  1.00  0.00     0.202 C 
ENDBRANCH  22  26
ENDBRANCH   1  22
TORSDOF 7
ENDMDL
MODEL 8
REMARK VINA RESULT:      -6.5      1.500      1.771
REMARK  7 active torsions:
REMARK  status: ('A' for Active; 'I' for Inactive)
REMARK    1  A    between atoms: O1_2  and  C2_3 
REMARK    2  A    between atoms: C2_3  and  C3_4 
REMARK    3  A    between atoms: C3_4  and  O2_5 
REMARK    4  A    between atoms: C3_4  and  C5_7 
REMARK    5  A    between atoms: C9_13  and  N2_14 
REMARK    6  A    between atoms: N2_14  and  C10_15 
REMARK    7  A    between atoms: C11_16  and  C12_17 
ROOT
HETATM    1  C5  UNL     1      26.032  -0.110  52.793  1.00  0.00     0.122 C 
HETATM    2  C6  UNL     1      25.848   0.928  51.965  1.00  0.00     0.143 C 
HETATM    3  F1  UNL     1      27.051   1.547  51.724  1.00  0.00    -0.206 F 
HETATM    4  C7  UNL     1      24.752   1.586  51.251  1.00  0.00     0.193 C 
HETATM    5  N1  UNL     1      23.448   1.418  51.860  1.00  0.00    -0.377 N 
HETATM    6  C8  UNL     1      22.945   0.613  52.931  1.00  0.00     0.129 A 
HETATM    7  C9  UNL     1      21.669   1.007  53.323  1.00  0.00     0.159 A 
HETATM    8  N3  UNL     1      21.120   0.292  54.339  1.00  0.00    -0.222 NA
HETATM    9  C15 UNL     1      21.781  -0.711  54.903  1.00  0.00     0.238 A 
HETATM   10  N4  UNL     1      23.011  -1.088  54.522  1.00  0.00    -0.215 NA
HETATM   11  C16 UNL     1      23.637  -0.432  53.516  1.00  0.00     0.201 A 
HETATM   12  O3  UNL     1      24.930  -0.894  53.180  1.00  0.00    -0.289 OA
HETATM   13  H12 UNL     1      22.750   2.052  51.371  1.00  0.00     0.160 HD
ENDROOT
BRANCH   7  14
HETATM   14  N2  UNL     1      21.107   2.090  52.616  1.00  0.00    -0.349 N 
HETATM   15  H13 UNL     1      21.736   2.931  52.461  1.00  0.00     0.167 HD
BRANCH  14  16
HETATM   16  C10 UNL     1      19.777   2.106  52.114  1.00  0.00     0.090 C 
HETATM   17  C11 UNL     1      19.060   3.143  51.716  1.00  0.00     0.018 C 
BRANCH  17  18
HETATM   18  C12 UNL     1      17.706   2.908  51.238  1.00  0.00     0.020 C 
HETATM   19  C13 UNL     1      17.429   2.909  49.952  1.00  0.00     0.008 C 
HETATM   20  C14 UNL     1      18.333   3.126  48.810  1.00  0.00     0.062 C 
HETATM   21 CL1  UNL     1      15.814   2.632  49.346  1.00  0.00    -0.089 Cl
ENDBRANCH  17  18
ENDBRANCH  14  16
ENDBRANCH   7  14
BRANCH   1  22
HETATM   22  C3  UNL     1      27.427  -0.389  53.273  1.00  0.00     0.204 C 
BRANCH  22  23
HETATM   23  C2  UNL     1      27.645   0.155  54.654  1.00  0.00     0.205 C 
BRANCH  23  24
HETATM   24  O1  UNL     1      28.088   1.457  54.723  1.00  0.00    -0.393 OA
HETATM   25  C1  UNL     1      29.281   1.704  54.111  1.00  0.00     0.201 C 
ENDBRANCH  23  24
ENDBRANCH  22  23
BRANCH  22  26
HETATM   26  O2  UNL     1      27.762  -1.702  53.114  1.00  0.00    -0.382 OA
HETATM   27  C4  UNL     1      29.062  -2.067  53.246  1.00  0.00     0.202 C 
ENDBRANCH  22  26
ENDBRANCH   1  22
TORSDOF 7
ENDMDL
MODEL 9
REMARK VINA RESULT:      -6.4      6.987      9.608
REMARK  7 active torsions:
REMARK  status: ('A' for Active; 'I' for Inactive)
REMARK    1  A    between atoms: O1_2  and  C2_3 
REMARK    2  A    between atoms: C2_3  and  C3_4 
REMARK    3  A    between atoms: C3_4  and  O2_5 
REMARK    4  A    between atoms: C3_4  and  C5_7 
REMARK    5  A    between atoms: C9_13  and  N2_14 
REMARK    6  A    between atoms: N2_14  and  C10_15 
REMARK    7  A    between atoms: C11_16  and  C12_17 
ROOT
HETATM    1  C5  UNL     1      24.914   2.952  50.974  1.00  0.00     0.122 C 
HETATM    2  C6  UNL     1      26.135   2.906  50.423  1.00  0.00     0.143 C 
HETATM    3  F1  UNL     1      26.785   1.768  50.835  1.00  0.00    -0.206 F 
HETATM    4  C7  UNL     1      26.967   3.705  49.521  1.00  0.00     0.193 C 
HETATM    5  N1  UNL     1      26.655   5.120  49.507  1.00  0.00    -0.377 N 
HETATM    6  C8  UNL     1      25.601   5.913  50.061  1.00  0.00     0.129 A 
HETATM    7  C9  UNL     1      25.888   7.273  50.003  1.00  0.00     0.159 A 
HETATM    8  N3  UNL     1      24.934   8.097  50.511  1.00  0.00    -0.222 NA
HETATM    9  C15 UNL     1      23.812   7.608  51.024  1.00  0.00     0.238 A 
HETATM   10  N4  UNL     1      23.540   6.295  51.077  1.00  0.00    -0.215 NA
HETATM   11  C16 UNL     1      24.432   5.399  50.594  1.00  0.00     0.201 A 
HETATM   12  O3  UNL     1      24.064   4.038  50.691  1.00  0.00    -0.289 OA
HETATM   13  H12 UNL     1      27.402   5.636  48.955  1.00  0.00     0.160 HD
ENDROOT
BRANCH   7  14
HETATM   14  N2  UNL     1      27.124   7.625  49.421  1.00  0.00    -0.349 N 
HETATM   15  H13 UNL     1      27.641   6.853  48.909  1.00  0.00     0.167 HD
BRANCH  14  16
HETATM   16  C10 UNL     1      27.690   8.927  49.487  1.00  0.00     0.090 C 
HETATM   17  C11 UNL     1      28.084   9.705  48.493  1.00  0.00     0.018 C 
BRANCH  17  18
HETATM   18  C12 UNL     1      28.640  11.011  48.811  1.00  0.00     0.020 C 
HETATM   19  C13 UNL     1      29.940  11.217  48.803  1.00  0.00     0.008 C 
HETATM   20  C14 UNL     1      31.025  10.270  48.500  1.00  0.00     0.062 C 
HETATM   21 CL1  UNL     1      30.638  12.772  49.181  1.00  0.00    -0.089 Cl
ENDBRANCH  17  18
ENDBRANCH  14  16
ENDBRANCH   7  14
BRANCH   1  22
HETATM   22  C3  UNL     1      24.506   1.827  51.879  1.00  0.00     0.204 C 
BRANCH  22  23
HETATM   23  C2  UNL     1      24.633   2.216  53.322  1.00  0.00     0.205 C 
BRANCH  23  24
HETATM   24  O1  UNL     1      25.892   2.102  53.867  1.00  0.00    -0.393 OA
HETATM   25  C1  UNL     1      26.277   0.835  54.196  1.00  0.00     0.201 C 
ENDBRANCH  23  24
ENDBRANCH  22  23
BRANCH  22  26
HETATM   26  O2  UNL     1      23.293   1.311  51.528  1.00  0.00    -0.382 OA
HETATM   27  C4  UNL     1      22.689   0.428  52.363  1.00  0.00     0.202 C 
ENDBRANCH  22  26
ENDBRANCH   1  22
TORSDOF 7
ENDMDL
