MODEL 1
REMARK VINA RESULT:      -7.8      0.000      0.000
REMARK  4 active torsions:
REMARK  status: ('A' for Active; 'I' for Inactive)
REMARK    1  A    between atoms: C2_2  and  C3_3 
REMARK    2  A    between atoms: C3_3  and  N1_5 
REMARK    3  A    between atoms: N1_5  and  C4_6 
REMARK    4  A    between atoms: C9_11  and  O1_12 
ROOT
HETATM    1  C4  UNL     1      26.116   0.379  52.495  1.00  0.00     0.064 A 
HETATM    2  C5  UNL     1      26.473   1.335  51.569  1.00  0.00     0.047 A 
HETATM    3  C6  UNL     1      25.754   2.499  51.369  1.00  0.00     0.014 A 
HETATM    4  C7  UNL     1      24.638   2.659  52.161  1.00  0.00     0.093 A 
HETATM    5  C8  UNL     1      24.229   1.743  53.102  1.00  0.00     0.073 A 
HETATM    6  C9  UNL     1      24.973   0.586  53.276  1.00  0.00     0.097 A 
HETATM    7  N2  UNL     1      23.864   3.677  52.106  1.00  0.00    -0.155 NA
HETATM    8  N3  UNL     1      24.049   4.740  51.246  1.00  0.00    -0.201 N 
HETATM    9  C11 UNL     1      23.477   5.958  50.940  1.00  0.00     0.200 C 
HETATM   10  C12 UNL     1      22.158   6.217  50.410  1.00  0.00    -0.004 C 
HETATM   11  C13 UNL     1      21.820   6.688  49.185  1.00  0.00    -0.003 C 
HETATM   12  C14 UNL     1      22.592   7.044  47.997  1.00  0.00    -0.003 C 
HETATM   13  C15 UNL     1      23.921   6.823  47.781  1.00  0.00    -0.015 C 
HETATM   14  C16 UNL     1      25.213   6.243  48.263  1.00  0.00     0.069 C 
HETATM   15  C17 UNL     1      25.686   5.468  49.293  1.00  0.00     0.018 C 
HETATM   16  C18 UNL     1      27.122   5.445  48.938  1.00  0.00     0.066 C 
HETATM   17  N4  UNL     1      25.182   4.638  50.397  1.00  0.00    -0.256 N 
HETATM   18  C19 UNL     1      26.004   3.459  50.524  1.00  0.00     0.131 A 
ENDROOT
BRANCH   1  19
HETATM   19  N1  UNL     1      26.929  -0.802  52.632  1.00  0.00    -0.370 N 
HETATM   20  H7  UNL     1      26.442  -1.705  52.399  1.00  0.00     0.161 HD
BRANCH  19  21
HETATM   21  C3  UNL     1      28.314  -0.796  53.055  1.00  0.00     0.178 C 
HETATM   22 CL1  UNL     1      28.917  -2.481  53.121  1.00  0.00    -0.103 Cl
BRANCH  21  23
HETATM   23  C2  UNL     1      28.385  -0.170  54.432  1.00  0.00     0.037 C 
HETATM   24  C1  UNL     1      29.155   1.123  54.366  1.00  0.00     0.008 C 
ENDBRANCH  21  23
ENDBRANCH  19  21
ENDBRANCH   1  19
BRANCH   6  25
HETATM   25  O1  UNL     1      24.626  -0.387  54.205  1.00  0.00    -0.354 OA
HETATM   26  C10 UNL     1      23.315  -0.805  54.446  1.00  0.00     0.210 C 
ENDBRANCH   6  25
TORSDOF 4
ENDMDL
MODEL 2
REMARK VINA RESULT:      -7.7      2.376      2.702
REMARK  4 active torsions:
REMARK  status: ('A' for Active; 'I' for Inactive)
REMARK    1  A    between atoms: C2_2  and  C3_3 
REMARK    2  A    between atoms: C3_3  and  N1_5 
REMARK    3  A    between atoms: N1_5  and  C4_6 
REMARK    4  A    between atoms: C9_11  and  O1_12 
ROOT
HETATM    1  C4  UNL     1      26.048   1.014  54.067  1.00  0.00     0.064 A 
HETATM    2  C5  UNL     1      25.899   2.152  53.305  1.00  0.00     0.047 A 
HETATM    3  C6  UNL     1      24.831   2.354  52.450  1.00  0.00     0.014 A 
HETATM    4  C7  UNL     1      23.903   1.337  52.399  1.00  0.00     0.093 A 
HETATM    5  C8  UNL     1      23.995   0.178  53.134  1.00  0.00     0.073 A 
HETATM    6  C9  UNL     1      25.080   0.008  53.980  1.00  0.00     0.097 A 
HETATM    7  N2  UNL     1      22.856   1.364  51.663  1.00  0.00    -0.155 NA
HETATM    8  N3  UNL     1      22.528   2.412  50.828  1.00  0.00    -0.201 N 
HETATM    9  C11 UNL     1      21.524   2.792  49.959  1.00  0.00     0.200 C 
HETATM   10  C12 UNL     1      21.117   2.150  48.730  1.00  0.00    -0.004 C 
HETATM   11  C13 UNL     1      21.250   2.602  47.460  1.00  0.00    -0.003 C 
HETATM   12  C14 UNL     1      21.852   3.800  46.877  1.00  0.00    -0.003 C 
HETATM   13  C15 UNL     1      22.612   4.735  47.517  1.00  0.00    -0.015 C 
HETATM   14  C16 UNL     1      23.285   5.190  48.773  1.00  0.00     0.069 C 
HETATM   15  C17 UNL     1      23.538   4.733  50.042  1.00  0.00     0.018 C 
HETATM   16  C18 UNL     1      24.252   5.909  50.585  1.00  0.00     0.066 C 
HETATM   17  N4  UNL     1      23.446   3.495  50.830  1.00  0.00    -0.256 N 
HETATM   18  C19 UNL     1      24.599   3.386  51.690  1.00  0.00     0.131 A 
ENDROOT
BRANCH   1  19
HETATM   19  N1  UNL     1      27.196   0.894  54.931  1.00  0.00    -0.370 N 
HETATM   20  H7  UNL     1      26.975   0.857  55.958  1.00  0.00     0.161 HD
BRANCH  19  21
HETATM   21  C3  UNL     1      28.565   0.830  54.464  1.00  0.00     0.178 C 
HETATM   22 CL1  UNL     1      29.056   2.442  53.857  1.00  0.00    -0.103 Cl
BRANCH  21  23
HETATM   23  C2  UNL     1      28.636  -0.185  53.343  1.00  0.00     0.037 C 
HETATM   24  C1  UNL     1      29.755  -1.158  53.605  1.00  0.00     0.008 C 
ENDBRANCH  21  23
ENDBRANCH  19  21
ENDBRANCH   1  19
BRANCH   6  25
HETATM   25  O1  UNL     1      25.244  -1.134  54.755  1.00  0.00    -0.354 OA
HETATM   26  C10 UNL     1      24.406  -1.485  55.816  1.00  0.00     0.210 C 
ENDBRANCH   6  25
TORSDOF 4
ENDMDL
MODEL 3
REMARK VINA RESULT:      -7.5      3.228      7.127
REMARK  4 active torsions:
REMARK  status: ('A' for Active; 'I' for Inactive)
REMARK    1  A    between atoms: C2_2  and  C3_3 
REMARK    2  A    between atoms: C3_3  and  N1_5 
REMARK    3  A    between atoms: N1_5  and  C4_6 
REMARK    4  A    between atoms: C9_11  and  O1_12 
ROOT
HETATM    1  C4  UNL     1      25.578   5.116  49.724  1.00  0.00     0.064 A 
HETATM    2  C5  UNL     1      25.820   4.041  50.552  1.00  0.00     0.047 A 
HETATM    3  C6  UNL     1      24.867   3.082  50.842  1.00  0.00     0.014 A 
HETATM    4  C7  UNL     1      23.637   3.258  50.248  1.00  0.00     0.093 A 
HETATM    5  C8  UNL     1      23.333   4.308  49.413  1.00  0.00     0.073 A 
HETATM    6  C9  UNL     1      24.312   5.253  49.144  1.00  0.00     0.097 A 
HETATM    7  N2  UNL     1      22.646   2.463  50.408  1.00  0.00    -0.155 NA
HETATM    8  N3  UNL     1      22.686   1.332  51.197  1.00  0.00    -0.201 N 
HETATM    9  C11 UNL     1      21.877   0.277  51.567  1.00  0.00     0.200 C 
HETATM   10  C12 UNL     1      20.636   0.319  52.306  1.00  0.00    -0.004 C 
HETATM   11  C13 UNL     1      20.387  -0.134  53.559  1.00  0.00    -0.003 C 
HETATM   12  C14 UNL     1      21.220  -0.750  54.589  1.00  0.00    -0.003 C 
HETATM   13  C15 UNL     1      22.578  -0.882  54.581  1.00  0.00    -0.015 C 
HETATM   14  C16 UNL     1      23.882  -0.610  53.902  1.00  0.00     0.069 C 
HETATM   15  C17 UNL     1      24.369   0.090  52.826  1.00  0.00     0.018 C 
HETATM   16  C18 UNL     1      25.800  -0.268  52.932  1.00  0.00     0.066 C 
HETATM   17  N4  UNL     1      23.927   1.092  51.844  1.00  0.00    -0.256 N 
HETATM   18  C19 UNL     1      24.993   2.035  51.608  1.00  0.00     0.131 A 
ENDROOT
BRANCH   1  19
HETATM   19  N1  UNL     1      26.635   6.064  49.480  1.00  0.00    -0.370 N 
HETATM   20  H7  UNL     1      26.841   6.714  50.281  1.00  0.00     0.161 HD
BRANCH  19  21
HETATM   21  C3  UNL     1      27.382   6.154  48.244  1.00  0.00     0.178 C 
HETATM   22 CL1  UNL     1      28.850   5.133  48.368  1.00  0.00    -0.103 Cl
BRANCH  21  23
HETATM   23  C2  UNL     1      27.778   7.600  48.033  1.00  0.00     0.037 C 
HETATM   24  C1  UNL     1      28.652   7.718  46.812  1.00  0.00     0.008 C 
ENDBRANCH  21  23
ENDBRANCH  19  21
ENDBRANCH   1  19
BRANCH   6  25
HETATM   25  O1  UNL     1      24.083   6.342  48.311  1.00  0.00    -0.354 OA
HETATM   26  C10 UNL     1      22.946   7.149  48.376  1.00  0.00     0.210 C 
ENDBRANCH   6  25
TORSDOF 4
ENDMDL
MODEL 4
REMARK VINA RESULT:      -7.5      2.227      4.108
REMARK  4 active torsions:
REMARK  status: ('A' for Active; 'I' for Inactive)
REMARK    1  A    between atoms: C2_2  and  C3_3 
REMARK    2  A    between atoms: C3_3  and  N1_5 
REMARK    3  A    between atoms: N1_5  and  C4_6 
REMARK    4  A    between atoms: C9_11  and  O1_12 
ROOT
HETATM    1  C4  UNL     1      24.834   1.130  52.757  1.00  0.00     0.064 A 
HETATM    2  C5  UNL     1      24.227   2.350  52.553  1.00  0.00     0.047 A 
HETATM    3  C6  UNL     1      24.685   3.277  51.633  1.00  0.00     0.014 A 
HETATM    4  C7  UNL     1      25.802   2.909  50.916  1.00  0.00     0.093 A 
HETATM    5  C8  UNL     1      26.452   1.707  51.073  1.00  0.00     0.073 A 
HETATM    6  C9  UNL     1      25.967   0.802  52.005  1.00  0.00     0.097 A 
HETATM    7  N2  UNL     1      26.353   3.646  50.026  1.00  0.00    -0.155 NA
HETATM    8  N3  UNL     1      25.898   4.900  49.675  1.00  0.00    -0.201 N 
HETATM    9  C11 UNL     1      26.194   5.918  48.791  1.00  0.00     0.200 C 
HETATM   10  C12 UNL     1      27.393   6.721  48.722  1.00  0.00    -0.004 C 
HETATM   11  C13 UNL     1      27.540   8.040  48.997  1.00  0.00    -0.003 C 
HETATM   12  C14 UNL     1      26.627   9.074  49.479  1.00  0.00    -0.003 C 
HETATM   13  C15 UNL     1      25.356   8.900  49.944  1.00  0.00    -0.015 C 
HETATM   14  C16 UNL     1      24.244   7.965  50.298  1.00  0.00     0.069 C 
HETATM   15  C17 UNL     1      24.011   6.616  50.397  1.00  0.00     0.018 C 
HETATM   16  C18 UNL     1      22.586   6.645  50.793  1.00  0.00     0.066 C 
HETATM   17  N4  UNL     1      24.749   5.343  50.381  1.00  0.00    -0.256 N 
HETATM   18  C19 UNL     1      24.189   4.451  51.366  1.00  0.00     0.131 A 
ENDROOT
BRANCH   1  19
HETATM   19  N1  UNL     1      24.283   0.230  53.738  1.00  0.00    -0.370 N 
HETATM   20  H7  UNL     1      24.703   0.310  54.699  1.00  0.00     0.161 HD
BRANCH  19  21
HETATM   21  C3  UNL     1      23.232  -0.729  53.467  1.00  0.00     0.178 C 
HETATM   22 CL1  UNL     1      22.194  -0.106  52.146  1.00  0.00    -0.103 Cl
BRANCH  21  23
HETATM   23  C2  UNL     1      22.411  -0.901  54.728  1.00  0.00     0.037 C 
HETATM   24  C1  UNL     1      21.138  -1.641  54.411  1.00  0.00     0.008 C 
ENDBRANCH  21  23
ENDBRANCH  19  21
ENDBRANCH   1  19
BRANCH   6  25
HETATM   25  O1  UNL     1      26.568  -0.432  52.223  1.00  0.00    -0.354 OA
HETATM   26  C10 UNL     1      27.705  -0.619  53.012  1.00  0.00     0.210 C 
ENDBRANCH   6  25
TORSDOF 4
ENDMDL
MODEL 5
REMARK VINA RESULT:      -7.3      3.846      7.489
REMARK  4 active torsions:
REMARK  status: ('A' for Active; 'I' for Inactive)
REMARK    1  A    between atoms: C2_2  and  C3_3 
REMARK    2  A    between atoms: C3_3  and  N1_5 
REMARK    3  A    between atoms: N1_5  and  C4_6 
REMARK    4  A    between atoms: C9_11  and  O1_12 
ROOT
HETATM    1  C4  UNL     1      23.614   6.344  51.118  1.00  0.00     0.064 A 
HETATM    2  C5  UNL     1      24.152   5.158  51.569  1.00  0.00     0.047 A 
HETATM    3  C6  UNL     1      23.427   3.982  51.649  1.00  0.00     0.014 A 
HETATM    4  C7  UNL     1      22.112   4.059  51.245  1.00  0.00     0.093 A 
HETATM    5  C8  UNL     1      21.518   5.211  50.786  1.00  0.00     0.073 A 
HETATM    6  C9  UNL     1      22.273   6.372  50.719  1.00  0.00     0.097 A 
HETATM    7  N2  UNL     1      21.304   3.066  51.254  1.00  0.00    -0.155 NA
HETATM    8  N3  UNL     1      21.649   1.797  51.670  1.00  0.00    -0.201 N 
HETATM    9  C11 UNL     1      21.091   0.539  51.784  1.00  0.00     0.200 C 
HETATM   10  C12 UNL     1      19.981   0.126  52.612  1.00  0.00    -0.004 C 
HETATM   11  C13 UNL     1      19.995  -0.690  53.694  1.00  0.00    -0.003 C 
HETATM   12  C14 UNL     1      21.060  -1.380  54.419  1.00  0.00    -0.003 C 
HETATM   13  C15 UNL     1      22.406  -1.225  54.251  1.00  0.00    -0.015 C 
HETATM   14  C16 UNL     1      23.533  -0.520  53.567  1.00  0.00     0.069 C 
HETATM   15  C17 UNL     1      23.734   0.529  52.704  1.00  0.00     0.018 C 
HETATM   16  C18 UNL     1      25.205   0.455  52.572  1.00  0.00     0.066 C 
HETATM   17  N4  UNL     1      22.992   1.648  52.103  1.00  0.00    -0.256 N 
HETATM   18  C19 UNL     1      23.837   2.816  52.060  1.00  0.00     0.131 A 
ENDROOT
BRANCH   1  19
HETATM   19  N1  UNL     1      24.449   7.517  51.069  1.00  0.00    -0.370 N 
HETATM   20  H7  UNL     1      24.094   8.337  51.625  1.00  0.00     0.161 HD
BRANCH  19  21
HETATM   21  C3  UNL     1      25.688   7.607  50.325  1.00  0.00     0.178 C 
HETATM   22 CL1  UNL     1      26.099   9.333  50.075  1.00  0.00    -0.103 Cl
BRANCH  21  23
HETATM   23  C2  UNL     1      25.487   6.927  48.987  1.00  0.00     0.037 C 
HETATM   24  C1  UNL     1      26.635   5.993  48.712  1.00  0.00     0.008 C 
ENDBRANCH  21  23
ENDBRANCH  19  21
ENDBRANCH   1  19
BRANCH   6  25
HETATM   25  O1  UNL     1      21.746   7.575  50.267  1.00  0.00    -0.354 OA
HETATM   26  C10 UNL     1      20.526   7.691  49.597  1.00  0.00     0.210 C 
ENDBRANCH   6  25
TORSDOF 4
ENDMDL
MODEL 6
REMARK VINA RESULT:      -7.2      4.979      6.955
REMARK  4 active torsions:
REMARK  status: ('A' for Active; 'I' for Inactive)
REMARK    1  A    between atoms: C2_2  and  C3_3 
REMARK    2  A    between atoms: C3_3  and  N1_5 
REMARK    3  A    between atoms: N1_5  and  C4_6 
REMARK    4  A    between atoms: C9_11  and  O1_12 
ROOT
HETATM    1  C4  UNL     1      23.629   1.031  52.590  1.00  0.00     0.064 A 
HETATM    2  C5  UNL     1      22.501   0.384  53.046  1.00  0.00     0.047 A 
HETATM    3  C6  UNL     1      21.308   0.364  52.346  1.00  0.00     0.014 A 
HETATM    4  C7  UNL     1      21.306   1.036  51.143  1.00  0.00     0.093 A 
HETATM    5  C8  UNL     1      22.398   1.700  50.635  1.00  0.00     0.073 A 
HETATM    6  C9  UNL     1      23.578   1.701  51.363  1.00  0.00     0.097 A 
HETATM    7  N2  UNL     1      20.287   1.114  50.371  1.00  0.00    -0.155 NA
HETATM    8  N3  UNL     1      19.066   0.536  50.648  1.00  0.00    -0.201 N 
HETATM    9  C11 UNL     1      17.819   0.386  50.076  1.00  0.00     0.200 C 
HETATM   10  C12 UNL     1      16.859   1.414  49.742  1.00  0.00    -0.004 C 
HETATM   11  C13 UNL     1      15.653   1.656  50.311  1.00  0.00    -0.003 C 
HETATM   12  C14 UNL     1      14.928   1.051  51.426  1.00  0.00    -0.003 C 
HETATM   13  C15 UNL     1      15.403   0.132  52.316  1.00  0.00    -0.015 C 
HETATM   14  C16 UNL     1      16.551  -0.687  52.814  1.00  0.00     0.069 C 
HETATM   15  C17 UNL     1      17.897  -0.835  52.592  1.00  0.00     0.018 C 
HETATM   16  C18 UNL     1      18.182  -1.924  53.552  1.00  0.00     0.066 C 
HETATM   17  N4  UNL     1      18.998  -0.172  51.877  1.00  0.00    -0.256 N 
HETATM   18  C19 UNL     1      20.191  -0.213  52.686  1.00  0.00     0.131 A 
ENDROOT
BRANCH   1  19
HETATM   19  N1  UNL     1      24.827   0.996  53.390  1.00  0.00    -0.370 N 
HETATM   20  H7  UNL     1      25.126   1.925  53.781  1.00  0.00     0.161 HD
BRANCH  19  21
HETATM   21  C3  UNL     1      25.594  -0.202  53.660  1.00  0.00     0.178 C 
HETATM   22 CL1  UNL     1      26.700   0.105  55.036  1.00  0.00    -0.103 Cl
BRANCH  21  23
HETATM   23  C2  UNL     1      26.396  -0.540  52.421  1.00  0.00     0.037 C 
HETATM   24  C1  UNL     1      26.983  -1.921  52.553  1.00  0.00     0.008 C 
ENDBRANCH  21  23
ENDBRANCH  19  21
ENDBRANCH   1  19
BRANCH   6  25
HETATM   25  O1  UNL     1      24.724   2.348  50.917  1.00  0.00    -0.354 OA
HETATM   26  C10 UNL     1      24.820   3.730  50.736  1.00  0.00     0.210 C 
ENDBRANCH   6  25
TORSDOF 4
ENDMDL
MODEL 7
REMARK VINA RESULT:      -7.1      5.396      7.914
REMARK  4 active torsions:
REMARK  status: ('A' for Active; 'I' for Inactive)
REMARK    1  A    between atoms: C2_2  and  C3_3 
REMARK    2  A    between atoms: C3_3  and  N1_5 
REMARK    3  A    between atoms: N1_5  and  C4_6 
REMARK    4  A    between atoms: C9_11  and  O1_12 
ROOT
HETATM    1  C4  UNL     1      31.569   6.185  47.182  1.00  0.00     0.064 A 
HETATM    2  C5  UNL     1      30.607   5.441  47.831  1.00  0.00     0.047 A 
HETATM    3  C6  UNL     1      29.289   5.846  47.942  1.00  0.00     0.014 A 
HETATM    4  C7  UNL     1      28.980   7.055  47.358  1.00  0.00     0.093 A 
HETATM    5  C8  UNL     1      29.895   7.841  46.698  1.00  0.00     0.073 A 
HETATM    6  C9  UNL     1      31.208   7.407  46.605  1.00  0.00     0.097 A 
HETATM    7  N2  UNL     1      27.810   7.573  47.367  1.00  0.00    -0.155 NA
HETATM    8  N3  UNL     1      26.713   6.987  47.964  1.00  0.00    -0.201 N 
HETATM    9  C11 UNL     1      25.363   7.216  48.141  1.00  0.00     0.200 C 
HETATM   10  C12 UNL     1      24.727   8.302  48.852  1.00  0.00    -0.004 C 
HETATM   11  C13 UNL     1      24.024   8.253  50.009  1.00  0.00    -0.003 C 
HETATM   12  C14 UNL     1      23.699   7.178  50.944  1.00  0.00    -0.003 C 
HETATM   13  C15 UNL     1      24.198   5.908  50.943  1.00  0.00    -0.015 C 
HETATM   14  C16 UNL     1      25.130   4.903  50.344  1.00  0.00     0.069 C 
HETATM   15  C17 UNL     1      26.130   4.841  49.406  1.00  0.00     0.018 C 
HETATM   16  C18 UNL     1      26.444   3.398  49.483  1.00  0.00     0.066 C 
HETATM   17  N4  UNL     1      26.962   5.737  48.590  1.00  0.00    -0.256 N 
HETATM   18  C19 UNL     1      28.308   5.223  48.532  1.00  0.00     0.131 A 
ENDROOT
BRANCH   1  19
HETATM   19  N1  UNL     1      32.918   5.680  47.118  1.00  0.00    -0.370 N 
HETATM   20  H7  UNL     1      33.563   6.219  46.486  1.00  0.00     0.161 HD
BRANCH  19  21
HETATM   21  C3  UNL     1      33.392   4.522  47.846  1.00  0.00     0.178 C 
HETATM   22 CL1  UNL     1      34.891   4.954  48.726  1.00  0.00    -0.103 Cl
BRANCH  21  23
HETATM   23  C2  UNL     1      33.681   3.420  46.849  1.00  0.00     0.037 C 
HETATM   24  C1  UNL     1      32.520   2.462  46.796  1.00  0.00     0.008 C 
ENDBRANCH  21  23
ENDBRANCH  19  21
ENDBRANCH   1  19
BRANCH   6  25
HETATM   25  O1  UNL     1      32.190   8.144  45.955  1.00  0.00    -0.354 OA
HETATM   26  C10 UNL     1      32.166   9.535  45.827  1.00  0.00     0.210 C 
ENDBRANCH   6  25
TORSDOF 4
ENDMDL
MODEL 8
REMARK VINA RESULT:      -7.1      3.983      7.207
REMARK  4 active torsions:
REMARK  status: ('A' for Active; 'I' for Inactive)
REMARK    1  A    between atoms: C2_2  and  C3_3 
REMARK    2  A    between atoms: C3_3  and  N1_5 
REMARK    3  A    between atoms: N1_5  and  C4_6 
REMARK    4  A    between atoms: C9_11  and  O1_12 
ROOT
HETATM    1  C4  UNL     1      24.470   5.102  49.611  1.00  0.00     0.064 A 
HETATM    2  C5  UNL     1      25.183   6.186  49.147  1.00  0.00     0.047 A 
HETATM    3  C6  UNL     1      26.518   6.115  48.791  1.00  0.00     0.014 A 
HETATM    4  C7  UNL     1      27.110   4.878  48.926  1.00  0.00     0.093 A 
HETATM    5  C8  UNL     1      26.453   3.760  49.382  1.00  0.00     0.073 A 
HETATM    6  C9  UNL     1      25.115   3.867  49.731  1.00  0.00     0.097 A 
HETATM    7  N2  UNL     1      28.335   4.639  48.639  1.00  0.00    -0.155 NA
HETATM    8  N3  UNL     1      29.214   5.589  48.162  1.00  0.00    -0.201 N 
HETATM    9  C11 UNL     1      30.523   5.693  47.736  1.00  0.00     0.200 C 
HETATM   10  C12 UNL     1      31.731   5.469  48.497  1.00  0.00    -0.004 C 
HETATM   11  C13 UNL     1      32.659   6.376  48.888  1.00  0.00    -0.003 C 
HETATM   12  C14 UNL     1      32.771   7.826  48.745  1.00  0.00    -0.003 C 
HETATM   13  C15 UNL     1      31.816   8.684  48.284  1.00  0.00    -0.015 C 
HETATM   14  C16 UNL     1      30.421   8.894  47.788  1.00  0.00     0.069 C 
HETATM   15  C17 UNL     1      29.256   8.185  47.629  1.00  0.00     0.018 C 
HETATM   16  C18 UNL     1      28.411   9.241  47.030  1.00  0.00     0.066 C 
HETATM   17  N4  UNL     1      28.668   6.890  48.002  1.00  0.00    -0.256 N 
HETATM   18  C19 UNL     1      27.279   7.074  48.346  1.00  0.00     0.131 A 
ENDROOT
BRANCH   1  19
HETATM   19  N1  UNL     1      23.081   5.274  49.956  1.00  0.00    -0.370 N 
HETATM   20  H7  UNL     1      22.399   4.894  49.252  1.00  0.00     0.161 HD
BRANCH  19  21
HETATM   21  C3  UNL     1      22.615   5.915  51.168  1.00  0.00     0.178 C 
HETATM   22 CL1  UNL     1      21.962   4.670  52.278  1.00  0.00    -0.103 Cl
BRANCH  21  23
HETATM   23  C2  UNL     1      21.523   6.895  50.795  1.00  0.00     0.037 C 
HETATM   24  C1  UNL     1      22.108   8.036  50.005  1.00  0.00     0.008 C 
ENDBRANCH  21  23
ENDBRANCH  19  21
ENDBRANCH   1  19
BRANCH   6  25
HETATM   25  O1  UNL     1      24.382   2.783  50.200  1.00  0.00    -0.354 OA
HETATM   26  C10 UNL     1      24.603   2.166  51.433  1.00  0.00     0.210 C 
ENDBRANCH   6  25
TORSDOF 4
ENDMDL
MODEL 9
REMARK VINA RESULT:      -6.9      4.761      8.371
REMARK  4 active torsions:
REMARK  status: ('A' for Active; 'I' for Inactive)
REMARK    1  A    between atoms: C2_2  and  C3_3 
REMARK    2  A    between atoms: C3_3  and  N1_5 
REMARK    3  A    between atoms: N1_5  and  C4_6 
REMARK    4  A    between atoms: C9_11  and  O1_12 
ROOT
HETATM    1  C4  UNL     1      20.418   2.542  48.196  1.00  0.00     0.064 A 
HETATM    2  C5  UNL     1      20.603   1.813  49.351  1.00  0.00     0.047 A 
HETATM    3  C6  UNL     1      21.782   1.832  50.074  1.00  0.00     0.014 A 
HETATM    4  C7  UNL     1      22.782   2.635  49.571  1.00  0.00     0.093 A 
HETATM    5  C8  UNL     1      22.659   3.385  48.426  1.00  0.00     0.073 A 
HETATM    6  C9  UNL     1      21.464   3.342  47.724  1.00  0.00     0.097 A 
HETATM    7  N2  UNL     1      23.932   2.768  50.118  1.00  0.00    -0.155 NA
HETATM    8  N3  UNL     1      24.313   2.124  51.277  1.00  0.00    -0.201 N 
HETATM    9  C11 UNL     1      25.394   2.048  52.132  1.00  0.00     0.200 C 
HETATM   10  C12 UNL     1      26.728   1.571  51.847  1.00  0.00    -0.004 C 
HETATM   11  C13 UNL     1      27.339   0.454  52.312  1.00  0.00    -0.003 C 
HETATM   12  C14 UNL     1      26.908  -0.643  53.176  1.00  0.00    -0.003 C 
HETATM   13  C15 UNL     1      25.644  -0.890  53.625  1.00  0.00    -0.015 C 
HETATM   14  C16 UNL     1      24.194  -0.520  53.625  1.00  0.00     0.069 C 
HETATM   15  C17 UNL     1      23.342   0.349  52.989  1.00  0.00     0.018 C 
HETATM   16  C18 UNL     1      22.083   0.003  53.683  1.00  0.00     0.066 C 
HETATM   17  N4  UNL     1      23.328   1.276  51.847  1.00  0.00    -0.256 N 
HETATM   18  C19 UNL     1      22.058   1.184  51.170  1.00  0.00     0.131 A 
ENDROOT
BRANCH   1  19
HETATM   19  N1  UNL     1      19.152   2.458  47.511  1.00  0.00    -0.370 N 
HETATM   20  H7  UNL     1      19.122   1.767  46.719  1.00  0.00     0.161 HD
BRANCH  19  21
HETATM   21  C3  UNL     1      17.987   3.247  47.851  1.00  0.00     0.178 C 
HETATM   22 CL1  UNL     1      18.492   4.641  48.857  1.00  0.00    -0.103 Cl
BRANCH  21  23
HETATM   23  C2  UNL     1      17.032   2.368  48.632  1.00  0.00     0.037 C 
HETATM   24  C1  UNL     1      17.041   2.769  50.083  1.00  0.00     0.008 C 
ENDBRANCH  21  23
ENDBRANCH  19  21
ENDBRANCH   1  19
BRANCH   6  25
HETATM   25  O1  UNL     1      21.261   4.072  46.558  1.00  0.00    -0.354 OA
HETATM   26  C10 UNL     1      21.859   3.768  45.333  1.00  0.00     0.210 C 
ENDBRANCH   6  25
TORSDOF 4
ENDMDL
