MODEL 1
REMARK VINA RESULT:      -8.3      0.000      0.000
REMARK  1 active torsions:
REMARK  status: ('A' for Active; 'I' for Inactive)
REMARK    1  A    between atoms: C16_21  and  C17_22 
ROOT
HETATM    1  C1  UNL     1      26.906  -1.556  52.685  1.00  0.00     0.038 C 
HETATM    2  C2  UNL     1      26.563  -0.221  52.187  1.00  0.00    -0.001 C 
HETATM    3  C3  UNL     1      25.669   0.332  52.926  1.00  0.00     0.032 C 
HETATM    4  N1  UNL     1      24.948  -0.010  54.063  1.00  0.00    -0.386 N 
HETATM    5  C4  UNL     1      23.806  -0.796  53.571  1.00  0.00     0.147 C 
HETATM    6  C5  UNL     1      22.769  -1.016  54.609  1.00  0.00    -0.011 C 
HETATM    7  C6  UNL     1      21.593  -0.417  54.252  1.00  0.00    -0.023 C 
HETATM    8  C7  UNL     1      20.756   0.389  53.312  1.00  0.00     0.043 C 
HETATM    9  C8  UNL     1      20.980   0.987  52.089  1.00  0.00    -0.018 C 
HETATM   10  C9  UNL     1      19.831   1.707  51.513  1.00  0.00     0.020 C 
HETATM   11  C10 UNL     1      19.361   1.232  50.184  1.00  0.00     0.115 C 
HETATM   12  N2  UNL     1      20.273   1.259  49.111  1.00  0.00    -0.404 N 
HETATM   13  C11 UNL     1      20.732   2.485  48.586  1.00  0.00     0.266 C 
HETATM   14  N3  UNL     1      21.673   3.240  49.326  1.00  0.00    -0.264 NA
HETATM   15  C12 UNL     1      21.540   4.491  49.546  1.00  0.00     0.230 C 
HETATM   16  N4  UNL     1      22.775   4.285  50.227  1.00  0.00    -0.231 NA
HETATM   17  C13 UNL     1      23.737   5.123  49.997  1.00  0.00     0.252 C 
HETATM   18  O1  UNL     1      24.625   4.462  50.873  1.00  0.00    -0.341 OA
HETATM   19  C14 UNL     1      25.544   3.559  50.340  1.00  0.00     0.204 C 
HETATM   20  C15 UNL     1      25.705   2.359  51.141  1.00  0.00     0.011 C 
HETATM   21  C16 UNL     1      25.517   1.529  52.126  1.00  0.00    -0.005 C 
HETATM   22  H5  UNL     1      25.665   0.509  54.605  1.00  0.00     0.160 HD
HETATM   23  H16 UNL     1      20.971   0.485  49.098  1.00  0.00     0.154 HD
ENDROOT
BRANCH  21  24
HETATM   24  C17 UNL     1      24.900   2.407  53.106  1.00  0.00     0.262 C 
HETATM   25  F1  UNL     1      23.547   2.521  52.915  1.00  0.00    -0.251 F 
ENDBRANCH  21  24
TORSDOF 1
ENDMDL
MODEL 2
REMARK VINA RESULT:      -7.3      1.918      4.703
REMARK  1 active torsions:
REMARK  status: ('A' for Active; 'I' for Inactive)
REMARK    1  A    between atoms: C16_21  and  C17_22 
ROOT
HETATM    1  C1  UNL     1      22.483  -0.993  55.362  1.00  0.00     0.038 C 
HETATM    2  C2  UNL     1      21.657  -0.351  54.336  1.00  0.00    -0.001 C 
HETATM    3  C3  UNL     1      22.284  -0.280  53.217  1.00  0.00     0.032 C 
HETATM    4  N1  UNL     1      23.534  -0.648  52.736  1.00  0.00    -0.386 N 
HETATM    5  C4  UNL     1      24.430   0.457  53.109  1.00  0.00     0.147 C 
HETATM    6  C5  UNL     1      25.751   0.378  52.438  1.00  0.00    -0.011 C 
HETATM    7  C6  UNL     1      25.940   1.451  51.613  1.00  0.00    -0.023 C 
HETATM    8  C7  UNL     1      25.488   2.735  50.995  1.00  0.00     0.043 C 
HETATM    9  C8  UNL     1      24.351   3.509  51.098  1.00  0.00    -0.018 C 
HETATM   10  C9  UNL     1      24.336   4.731  50.274  1.00  0.00     0.020 C 
HETATM   11  C10 UNL     1      24.189   6.015  51.009  1.00  0.00     0.115 C 
HETATM   12  N2  UNL     1      23.038   6.198  51.800  1.00  0.00    -0.404 N 
HETATM   13  C11 UNL     1      21.766   6.317  51.202  1.00  0.00     0.266 C 
HETATM   14  N3  UNL     1      21.145   5.162  50.671  1.00  0.00    -0.264 NA
HETATM   15  C12 UNL     1      20.621   5.128  49.506  1.00  0.00     0.230 C 
HETATM   16  N4  UNL     1      20.343   3.788  49.904  1.00  0.00    -0.231 NA
HETATM   17  C13 UNL     1      19.143   3.339  49.709  1.00  0.00     0.252 C 
HETATM   18  O1  UNL     1      19.444   2.073  50.256  1.00  0.00    -0.341 OA
HETATM   19  C14 UNL     1      19.115   1.821  51.587  1.00  0.00     0.204 C 
HETATM   20  C15 UNL     1      20.137   1.083  52.306  1.00  0.00     0.011 C 
HETATM   21  C16 UNL     1      21.259   0.453  52.503  1.00  0.00    -0.005 C 
HETATM   22  H5  UNL     1      23.082  -1.514  52.386  1.00  0.00     0.160 HD
HETATM   23  H16 UNL     1      23.048   5.714  52.723  1.00  0.00     0.154 HD
ENDROOT
BRANCH  21  24
HETATM   24  C17 UNL     1      21.656   0.170  51.135  1.00  0.00     0.262 C 
HETATM   25  F1  UNL     1      22.337   1.217  50.569  1.00  0.00    -0.251 F 
ENDBRANCH  21  24
TORSDOF 1
ENDMDL
MODEL 3
REMARK VINA RESULT:      -6.8      6.518     10.065
REMARK  1 active torsions:
REMARK  status: ('A' for Active; 'I' for Inactive)
REMARK    1  A    between atoms: C16_21  and  C17_22 
ROOT
HETATM    1  C1  UNL     1      23.131   7.060  50.771  1.00  0.00     0.038 C 
HETATM    2  C2  UNL     1      23.724   8.095  49.920  1.00  0.00    -0.001 C 
HETATM    3  C3  UNL     1      24.438   7.573  48.989  1.00  0.00     0.032 C 
HETATM    4  N1  UNL     1      24.792   6.291  48.587  1.00  0.00    -0.386 N 
HETATM    5  C4  UNL     1      25.940   5.928  49.431  1.00  0.00     0.147 C 
HETATM    6  C5  UNL     1      26.636   4.704  48.961  1.00  0.00    -0.011 C 
HETATM    7  C6  UNL     1      27.917   4.991  48.582  1.00  0.00    -0.023 C 
HETATM    8  C7  UNL     1      29.050   5.945  48.380  1.00  0.00     0.043 C 
HETATM    9  C8  UNL     1      29.221   7.299  48.583  1.00  0.00    -0.018 C 
HETATM   10  C9  UNL     1      30.548   7.833  48.227  1.00  0.00     0.020 C 
HETATM   11  C10 UNL     1      31.307   8.486  49.327  1.00  0.00     0.115 C 
HETATM   12  N2  UNL     1      30.722   9.596  49.967  1.00  0.00    -0.404 N 
HETATM   13  C11 UNL     1      30.543  10.813  49.277  1.00  0.00     0.266 C 
HETATM   14  N3  UNL     1      29.517  10.908  48.306  1.00  0.00    -0.264 NA
HETATM   15  C12 UNL     1      29.709  11.390  47.139  1.00  0.00     0.230 C 
HETATM   16  N4  UNL     1      28.323  11.082  47.017  1.00  0.00    -0.231 NA
HETATM   17  C13 UNL     1      27.545  11.991  46.519  1.00  0.00     0.252 C 
HETATM   18  O1  UNL     1      26.394  11.182  46.641  1.00  0.00    -0.341 OA
HETATM   19  C14 UNL     1      25.566  11.355  47.750  1.00  0.00     0.204 C 
HETATM   20  C15 UNL     1      25.080  10.107  48.308  1.00  0.00     0.011 C 
HETATM   21  C16 UNL     1      24.916   8.822  48.433  1.00  0.00    -0.005 C 
HETATM   22  H5  UNL     1      24.011   6.350  47.906  1.00  0.00     0.160 HD
HETATM   23  H16 UNL     1      29.980   9.370  50.664  1.00  0.00     0.154 HD
ENDROOT
BRANCH  21  24
HETATM   24  C17 UNL     1      25.332   8.366  47.117  1.00  0.00     0.262 C 
HETATM   25  F1  UNL     1      26.687   8.176  47.042  1.00  0.00    -0.251 F 
ENDBRANCH  21  24
TORSDOF 1
ENDMDL
MODEL 4
REMARK VINA RESULT:      -6.8      2.341      3.694
REMARK  1 active torsions:
REMARK  status: ('A' for Active; 'I' for Inactive)
REMARK    1  A    between atoms: C16_21  and  C17_22 
ROOT
HETATM    1  C1  UNL     1      26.789   3.588  49.395  1.00  0.00     0.038 C 
HETATM    2  C2  UNL     1      25.544   4.359  49.358  1.00  0.00    -0.001 C 
HETATM    3  C3  UNL     1      24.927   4.293  50.482  1.00  0.00     0.032 C 
HETATM    4  N1  UNL     1      25.133   3.680  51.711  1.00  0.00    -0.386 N 
HETATM    5  C4  UNL     1      24.621   2.311  51.548  1.00  0.00     0.147 C 
HETATM    6  C5  UNL     1      24.498   1.585  52.837  1.00  0.00    -0.011 C 
HETATM    7  C6  UNL     1      23.191   1.278  53.096  1.00  0.00    -0.023 C 
HETATM    8  C7  UNL     1      21.739   1.290  52.743  1.00  0.00     0.043 C 
HETATM    9  C8  UNL     1      21.006   1.781  51.682  1.00  0.00    -0.018 C 
HETATM   10  C9  UNL     1      19.551   1.564  51.759  1.00  0.00     0.020 C 
HETATM   11  C10 UNL     1      18.946   0.781  50.649  1.00  0.00     0.115 C 
HETATM   12  N2  UNL     1      19.085   1.276  49.337  1.00  0.00    -0.404 N 
HETATM   13  C11 UNL     1      18.436   2.464  48.943  1.00  0.00     0.266 C 
HETATM   14  N3  UNL     1      18.937   3.706  49.401  1.00  0.00    -0.264 NA
HETATM   15  C12 UNL     1      18.193   4.611  49.910  1.00  0.00     0.230 C 
HETATM   16  N4  UNL     1      19.443   5.288  50.001  1.00  0.00    -0.231 NA
HETATM   17  C13 UNL     1      19.492   6.518  49.596  1.00  0.00     0.252 C 
HETATM   18  O1  UNL     1      20.865   6.645  49.902  1.00  0.00    -0.341 OA
HETATM   19  C14 UNL     1      21.798   6.474  48.879  1.00  0.00     0.204 C 
HETATM   20  C15 UNL     1      22.969   5.720  49.286  1.00  0.00     0.011 C 
HETATM   21  C16 UNL     1      23.763   5.050  50.072  1.00  0.00    -0.005 C 
HETATM   22  H5  UNL     1      25.539   4.581  52.029  1.00  0.00     0.160 HD
HETATM   23  H16 UNL     1      20.015   1.114  48.895  1.00  0.00     0.154 HD
ENDROOT
BRANCH  21  24
HETATM   24  C17 UNL     1      23.241   5.432  51.373  1.00  0.00     0.262 C 
HETATM   25  F1  UNL     1      22.173   4.658  51.747  1.00  0.00    -0.251 F 
ENDBRANCH  21  24
TORSDOF 1
ENDMDL
MODEL 5
REMARK VINA RESULT:      -6.8      2.604      5.165
REMARK  1 active torsions:
REMARK  status: ('A' for Active; 'I' for Inactive)
REMARK    1  A    between atoms: C16_21  and  C17_22 
ROOT
HETATM    1  C1  UNL     1      18.751  -0.137  52.347  1.00  0.00     0.038 C 
HETATM    2  C2  UNL     1      19.095   0.578  51.114  1.00  0.00    -0.001 C 
HETATM    3  C3  UNL     1      20.360   0.543  50.898  1.00  0.00     0.032 C 
HETATM    4  N1  UNL     1      21.477   0.010  51.530  1.00  0.00    -0.386 N 
HETATM    5  C4  UNL     1      21.854   1.004  52.546  1.00  0.00     0.147 C 
HETATM    6  C5  UNL     1      23.191   0.745  53.137  1.00  0.00    -0.011 C 
HETATM    7  C6  UNL     1      24.053   1.765  52.850  1.00  0.00    -0.023 C 
HETATM    8  C7  UNL     1      24.375   3.080  52.216  1.00  0.00     0.043 C 
HETATM    9  C8  UNL     1      23.662   3.992  51.466  1.00  0.00    -0.018 C 
HETATM   10  C9  UNL     1      24.411   5.185  51.034  1.00  0.00     0.020 C 
HETATM   11  C10 UNL     1      23.874   6.496  51.490  1.00  0.00     0.115 C 
HETATM   12  N2  UNL     1      22.561   6.840  51.114  1.00  0.00    -0.404 N 
HETATM   13  C11 UNL     1      22.242   7.102  49.765  1.00  0.00     0.266 C 
HETATM   14  N3  UNL     1      22.155   6.020  48.857  1.00  0.00    -0.264 NA
HETATM   15  C12 UNL     1      22.729   6.023  47.716  1.00  0.00     0.230 C 
HETATM   16  N4  UNL     1      22.116   4.739  47.642  1.00  0.00    -0.231 NA
HETATM   17  C13 UNL     1      21.475   4.438  46.557  1.00  0.00     0.252 C 
HETATM   18  O1  UNL     1      21.116   3.158  47.031  1.00  0.00    -0.341 OA
HETATM   19  C14 UNL     1      19.853   2.982  47.596  1.00  0.00     0.204 C 
HETATM   20  C15 UNL     1      19.861   2.140  48.777  1.00  0.00     0.011 C 
HETATM   21  C16 UNL     1      20.346   1.380  49.717  1.00  0.00    -0.005 C 
HETATM   22  H5  UNL     1      21.382  -0.801  50.889  1.00  0.00     0.160 HD
HETATM   23  H16 UNL     1      21.804   6.381  51.664  1.00  0.00     0.154 HD
ENDROOT
BRANCH  21  24
HETATM   24  C17 UNL     1      21.628   1.016  49.137  1.00  0.00     0.262 C 
HETATM   25  F1  UNL     1      22.590   1.963  49.379  1.00  0.00    -0.251 F 
ENDBRANCH  21  24
TORSDOF 1
ENDMDL
MODEL 6
REMARK VINA RESULT:      -6.7      9.325     12.412
REMARK  1 active torsions:
REMARK  status: ('A' for Active; 'I' for Inactive)
REMARK    1  A    between atoms: C16_21  and  C17_22 
ROOT
HETATM    1  C1  UNL     1      27.401   5.860  48.609  1.00  0.00     0.038 C 
HETATM    2  C2  UNL     1      28.704   5.302  48.239  1.00  0.00    -0.001 C 
HETATM    3  C3  UNL     1      29.624   6.198  48.299  1.00  0.00     0.032 C 
HETATM    4  N1  UNL     1      29.697   7.547  48.619  1.00  0.00    -0.386 N 
HETATM    5  C4  UNL     1      29.332   8.255  47.383  1.00  0.00     0.147 C 
HETATM    6  C5  UNL     1      29.623   9.709  47.445  1.00  0.00    -0.011 C 
HETATM    7  C6  UNL     1      30.566  10.054  46.516  1.00  0.00    -0.023 C 
HETATM    8  C7  UNL     1      31.511   9.716  45.410  1.00  0.00     0.043 C 
HETATM    9  C8  UNL     1      31.846   8.554  44.745  1.00  0.00    -0.018 C 
HETATM   10  C9  UNL     1      32.866   8.694  43.692  1.00  0.00     0.020 C 
HETATM   11  C10 UNL     1      32.451   8.293  42.321  1.00  0.00     0.115 C 
HETATM   12  N2  UNL     1      32.024   6.967  42.120  1.00  0.00    -0.404 N 
HETATM   13  C11 UNL     1      32.931   5.893  42.232  1.00  0.00     0.266 C 
HETATM   14  N3  UNL     1      33.369   5.494  43.517  1.00  0.00    -0.264 NA
HETATM   15  C12 UNL     1      34.598   5.298  43.803  1.00  0.00     0.230 C 
HETATM   16  N4  UNL     1      34.033   4.993  45.075  1.00  0.00    -0.231 NA
HETATM   17  C13 UNL     1      34.432   3.912  45.668  1.00  0.00     0.252 C 
HETATM   18  O1  UNL     1      33.594   4.123  46.785  1.00  0.00    -0.341 OA
HETATM   19  C14 UNL     1      32.364   3.467  46.835  1.00  0.00     0.204 C 
HETATM   20  C15 UNL     1      31.286   4.300  47.333  1.00  0.00     0.011 C 
HETATM   21  C16 UNL     1      30.697   5.361  47.805  1.00  0.00    -0.005 C 
HETATM   22  H5  UNL     1      29.976   7.248  49.573  1.00  0.00     0.160 HD
HETATM   23  H16 UNL     1      31.052   6.757  42.434  1.00  0.00     0.154 HD
ENDROOT
BRANCH  21  24
HETATM   24  C17 UNL     1      31.843   6.119  48.279  1.00  0.00     0.262 C 
HETATM   25  F1  UNL     1      32.427   6.850  47.277  1.00  0.00    -0.251 F 
ENDBRANCH  21  24
TORSDOF 1
ENDMDL
MODEL 7
REMARK VINA RESULT:      -6.5      2.334      6.728
REMARK  1 active torsions:
REMARK  status: ('A' for Active; 'I' for Inactive)
REMARK    1  A    between atoms: C16_21  and  C17_22 
ROOT
HETATM    1  C1  UNL     1      19.678   3.670  47.398  1.00  0.00     0.038 C 
HETATM    2  C2  UNL     1      19.582   2.772  48.551  1.00  0.00    -0.001 C 
HETATM    3  C3  UNL     1      19.813   3.401  49.647  1.00  0.00     0.032 C 
HETATM    4  N1  UNL     1      20.132   4.702  50.015  1.00  0.00    -0.386 N 
HETATM    5  C4  UNL     1      21.591   4.799  49.854  1.00  0.00     0.147 C 
HETATM    6  C5  UNL     1      22.156   6.028  50.465  1.00  0.00    -0.011 C 
HETATM    7  C6  UNL     1      23.008   5.713  51.487  1.00  0.00    -0.023 C 
HETATM    8  C7  UNL     1      23.707   4.724  52.362  1.00  0.00     0.043 C 
HETATM    9  C8  UNL     1      23.723   3.347  52.445  1.00  0.00    -0.018 C 
HETATM   10  C9  UNL     1      24.583   2.782  53.500  1.00  0.00     0.020 C 
HETATM   11  C10 UNL     1      25.665   1.869  53.044  1.00  0.00     0.115 C 
HETATM   12  N2  UNL     1      25.298   0.710  52.333  1.00  0.00    -0.404 N 
HETATM   13  C11 UNL     1      24.594  -0.333  52.971  1.00  0.00     0.266 C 
HETATM   14  N3  UNL     1      23.223  -0.154  53.270  1.00  0.00    -0.264 NA
HETATM   15  C12 UNL     1      22.721  -0.418  54.415  1.00  0.00     0.230 C 
HETATM   16  N4  UNL     1      21.535   0.023  53.760  1.00  0.00    -0.231 NA
HETATM   17  C13 UNL     1      20.471  -0.706  53.886  1.00  0.00     0.252 C 
HETATM   18  O1  UNL     1      19.690   0.158  53.087  1.00  0.00    -0.341 OA
HETATM   19  C14 UNL     1      19.510  -0.155  51.740  1.00  0.00     0.204 C 
HETATM   20  C15 UNL     1      19.589   1.000  50.863  1.00  0.00     0.011 C 
HETATM   21  C16 UNL     1      19.729   2.246  50.517  1.00  0.00    -0.005 C 
HETATM   22  H5  UNL     1      19.119   4.840  50.192  1.00  0.00     0.160 HD
HETATM   23  H16 UNL     1      25.053   0.859  51.331  1.00  0.00     0.154 HD
ENDROOT
BRANCH  21  24
HETATM   24  C17 UNL     1      19.505   2.909  51.790  1.00  0.00     0.262 C 
HETATM   25  F1  UNL     1      20.642   2.958  52.554  1.00  0.00    -0.251 F 
ENDBRANCH  21  24
TORSDOF 1
ENDMDL
MODEL 8
REMARK VINA RESULT:      -6.2      7.766      9.741
REMARK  1 active torsions:
REMARK  status: ('A' for Active; 'I' for Inactive)
REMARK    1  A    between atoms: C16_21  and  C17_22 
ROOT
HETATM    1  C1  UNL     1      31.829   6.813  47.048  1.00  0.00     0.038 C 
HETATM    2  C2  UNL     1      31.242   8.101  47.428  1.00  0.00    -0.001 C 
HETATM    3  C3  UNL     1      30.297   7.942  48.284  1.00  0.00     0.032 C 
HETATM    4  N1  UNL     1      29.692   6.872  48.931  1.00  0.00    -0.386 N 
HETATM    5  C4  UNL     1      28.684   6.371  47.985  1.00  0.00     0.147 C 
HETATM    6  C5  UNL     1      27.742   5.405  48.604  1.00  0.00    -0.011 C 
HETATM    7  C6  UNL     1      26.467   5.898  48.594  1.00  0.00    -0.023 C 
HETATM    8  C7  UNL     1      25.467   6.959  48.270  1.00  0.00     0.043 C 
HETATM    9  C8  UNL     1      25.535   8.201  47.672  1.00  0.00    -0.018 C 
HETATM   10  C9  UNL     1      24.256   8.925  47.562  1.00  0.00     0.020 C 
HETATM   11  C10 UNL     1      23.822   9.282  46.185  1.00  0.00     0.115 C 
HETATM   12  N2  UNL     1      24.671  10.098  45.413  1.00  0.00    -0.404 N 
HETATM   13  C11 UNL     1      24.891  11.446  45.765  1.00  0.00     0.266 C 
HETATM   14  N3  UNL     1      25.716  11.740  46.876  1.00  0.00    -0.264 NA
HETATM   15  C12 UNL     1      25.380  12.563  47.794  1.00  0.00     0.230 C 
HETATM   16  N4  UNL     1      26.658  12.190  48.301  1.00  0.00    -0.231 NA
HETATM   17  C13 UNL     1      27.451  13.138  48.691  1.00  0.00     0.252 C 
HETATM   18  O1  UNL     1      28.475  12.237  49.056  1.00  0.00    -0.341 OA
HETATM   19  C14 UNL     1      29.513  12.002  48.156  1.00  0.00     0.204 C 
HETATM   20  C15 UNL     1      29.910  10.608  48.083  1.00  0.00     0.011 C 
HETATM   21  C16 UNL     1      29.908   9.335  48.355  1.00  0.00    -0.005 C 
HETATM   22  H5  UNL     1      30.330   7.065  49.727  1.00  0.00     0.160 HD
HETATM   23  H16 UNL     1      25.491   9.614  44.988  1.00  0.00     0.154 HD
ENDROOT
BRANCH  21  24
HETATM   24  C17 UNL     1      29.189   9.329  49.618  1.00  0.00     0.262 C 
HETATM   25  F1  UNL     1      27.830   9.311  49.437  1.00  0.00    -0.251 F 
ENDBRANCH  21  24
TORSDOF 1
ENDMDL
MODEL 9
REMARK VINA RESULT:      -6.2      9.192     12.360
REMARK  1 active torsions:
REMARK  status: ('A' for Active; 'I' for Inactive)
REMARK    1  A    between atoms: C16_21  and  C17_22 
ROOT
HETATM    1  C1  UNL     1      35.552   5.786  48.958  1.00  0.00     0.038 C 
HETATM    2  C2  UNL     1      34.100   5.747  48.763  1.00  0.00    -0.001 C 
HETATM    3  C3  UNL     1      33.767   6.319  47.662  1.00  0.00     0.032 C 
HETATM    4  N1  UNL     1      34.423   6.962  46.621  1.00  0.00    -0.386 N 
HETATM    5  C4  UNL     1      34.609   8.347  47.082  1.00  0.00     0.147 C 
HETATM    6  C5  UNL     1      35.042   9.261  45.996  1.00  0.00    -0.011 C 
HETATM    7  C6  UNL     1      34.097  10.222  45.766  1.00  0.00    -0.023 C 
HETATM    8  C7  UNL     1      32.781  10.870  46.048  1.00  0.00     0.043 C 
HETATM    9  C8  UNL     1      31.753  10.624  46.934  1.00  0.00    -0.018 C 
HETATM   10  C9  UNL     1      30.608  11.548  46.853  1.00  0.00     0.020 C 
HETATM   11  C10 UNL     1      30.290  12.307  48.092  1.00  0.00     0.115 C 
HETATM   12  N2  UNL     1      29.977  11.576  49.255  1.00  0.00    -0.404 N 
HETATM   13  C11 UNL     1      28.788  10.821  49.333  1.00  0.00     0.266 C 
HETATM   14  N3  UNL     1      28.699   9.605  48.615  1.00  0.00    -0.264 NA
HETATM   15  C12 UNL     1      27.699   9.304  47.878  1.00  0.00     0.230 C 
HETATM   16  N4  UNL     1      28.472   8.123  47.680  1.00  0.00    -0.231 NA
HETATM   17  C13 UNL     1      27.866   6.983  47.785  1.00  0.00     0.252 C 
HETATM   18  O1  UNL     1      29.040   6.247  47.513  1.00  0.00    -0.341 OA
HETATM   19  C14 UNL     1      29.776   5.737  48.582  1.00  0.00     0.204 C 
HETATM   20  C15 UNL     1      31.211   5.866  48.411  1.00  0.00     0.011 C 
HETATM   21  C16 UNL     1      32.336   6.183  47.837  1.00  0.00    -0.005 C 
HETATM   22  H5  UNL     1      34.393   6.056  46.117  1.00  0.00     0.160 HD
HETATM   23  H16 UNL     1      30.793  11.167  49.759  1.00  0.00     0.154 HD
ENDROOT
BRANCH  21  24
HETATM   24  C17 UNL     1      31.898   6.361  46.463  1.00  0.00     0.262 C 
HETATM   25  F1  UNL     1      31.391   7.615  46.242  1.00  0.00    -0.251 F 
ENDBRANCH  21  24
TORSDOF 1
ENDMDL
