MODEL 1
REMARK VINA RESULT:      -7.3      0.000      0.000
REMARK  8 active torsions:
REMARK  status: ('A' for Active; 'I' for Inactive)
REMARK    1  A    between atoms: C6_6  and  C7_7 
REMARK    2  A    between atoms: C7_7  and  N1_8 
REMARK    3  A    between atoms: N1_8  and  C9_10 
REMARK    4  A    between atoms: C9_10  and  C10_11 
REMARK    5  A    between atoms: C10_11  and  C11_12 
REMARK    6  A    between atoms: C11_12  and  N2_14 
REMARK    7  A    between atoms: N2_14  and  C12_15 
REMARK    8  A    between atoms: C18_21  and  O1_22 
ROOT
HETATM    1  N1  UNL     1      24.283   0.509  53.463  1.00  0.00     0.088 N 
HETATM    2  C8  UNL     1      23.978  -0.708  54.178  1.00  0.00     0.310 C 
ENDROOT
BRANCH   1   3
HETATM    3  C7  UNL     1      25.318   0.218  52.496  1.00  0.00     0.313 C 
BRANCH   3   4
HETATM    4  C6  UNL     1      26.657   0.677  52.939  1.00  0.00     0.004 A 
HETATM    5  C5  UNL     1      27.095   1.948  53.149  1.00  0.00     0.012 A 
HETATM    6  C4  UNL     1      28.370   2.244  53.556  1.00  0.00     0.001 A 
HETATM    7  C3  UNL     1      29.259   1.210  53.764  1.00  0.00     0.009 A 
HETATM    8  C2  UNL     1      28.844  -0.101  53.558  1.00  0.00    -0.028 A 
HETATM    9  C1  UNL     1      29.890  -1.128  53.811  1.00  0.00     0.051 C 
HETATM   10  C18 UNL     1      27.537  -0.377  53.143  1.00  0.00     0.079 A 
BRANCH  10  11
HETATM   11  O1  UNL     1      27.262  -1.750  52.977  1.00  0.00    -0.360 OA
HETATM   12  H22 UNL     1      27.193  -2.162  52.043  1.00  0.00     0.217 HD
ENDBRANCH  10  11
ENDBRANCH   3   4
ENDBRANCH   1   3
BRANCH   1  13
HETATM   13  C9  UNL     1      23.172   1.103  52.803  1.00  0.00     0.279 C 
BRANCH  13  14
HETATM   14  C10 UNL     1      23.527   1.744  51.482  1.00  0.00     0.100 C 
BRANCH  14  15
HETATM   15  C11 UNL     1      23.495   3.227  51.590  1.00  0.00     0.079 C 
HETATM   16  S1  UNL     1      22.118   4.038  51.885  1.00  0.00    -0.065 SA
BRANCH  15  17
HETATM   17  N2  UNL     1      24.673   3.991  51.440  1.00  0.00    -0.351 N 
HETATM   18  H16 UNL     1      25.192   4.408  52.241  1.00  0.00     0.166 HD
BRANCH  17  19
HETATM   19  C12 UNL     1      25.551   4.478  50.460  1.00  0.00     0.032 A 
HETATM   20  C13 UNL     1      26.559   3.810  49.820  1.00  0.00     0.029 A 
HETATM   21  C14 UNL     1      27.357   4.413  48.853  1.00  0.00     0.002 A 
HETATM   22  C15 UNL     1      27.093   5.741  48.552  1.00  0.00     0.000 A 
HETATM   23  C16 UNL     1      26.100   6.477  49.149  1.00  0.00     0.002 A 
HETATM   24  C17 UNL     1      25.338   5.805  50.111  1.00  0.00     0.029 A 
ENDBRANCH  17  19
ENDBRANCH  15  17
ENDBRANCH  14  15
ENDBRANCH  13  14
ENDBRANCH   1  13
TORSDOF 8
ENDMDL
MODEL 2
REMARK VINA RESULT:      -7.2      1.922      5.150
REMARK  8 active torsions:
REMARK  status: ('A' for Active; 'I' for Inactive)
REMARK    1  A    between atoms: C6_6  and  C7_7 
REMARK    2  A    between atoms: C7_7  and  N1_8 
REMARK    3  A    between atoms: N1_8  and  C9_10 
REMARK    4  A    between atoms: C9_10  and  C10_11 
REMARK    5  A    between atoms: C10_11  and  C11_12 
REMARK    6  A    between atoms: C11_12  and  N2_14 
REMARK    7  A    between atoms: N2_14  and  C12_15 
REMARK    8  A    between atoms: C18_21  and  O1_22 
ROOT
HETATM    1  N1  UNL     1      25.792   2.496  50.991  1.00  0.00     0.088 N 
HETATM    2  C8  UNL     1      26.526   3.165  49.944  1.00  0.00     0.310 C 
ENDROOT
BRANCH   1   3
HETATM    3  C7  UNL     1      26.667   2.341  52.131  1.00  0.00     0.313 C 
BRANCH   3   4
HETATM    4  C6  UNL     1      26.994   0.922  52.409  1.00  0.00     0.004 A 
HETATM    5  C5  UNL     1      26.218  -0.182  52.234  1.00  0.00     0.012 A 
HETATM    6  C4  UNL     1      26.637  -1.451  52.539  1.00  0.00     0.001 A 
HETATM    7  C3  UNL     1      27.906  -1.627  53.049  1.00  0.00     0.009 A 
HETATM    8  C2  UNL     1      28.727  -0.521  53.241  1.00  0.00    -0.028 A 
HETATM    9  C1  UNL     1      30.069  -0.835  53.799  1.00  0.00     0.051 C 
HETATM   10  C18 UNL     1      28.275   0.764  52.922  1.00  0.00     0.079 A 
BRANCH  10  11
HETATM   11  O1  UNL     1      29.215   1.785  53.170  1.00  0.00    -0.360 OA
HETATM   12  H22 UNL     1      30.094   1.582  53.653  1.00  0.00     0.217 HD
ENDBRANCH  10  11
ENDBRANCH   3   4
ENDBRANCH   1   3
BRANCH   1  13
HETATM   13  C9  UNL     1      24.600   3.159  51.396  1.00  0.00     0.279 C 
BRANCH  13  14
HETATM   14  C10 UNL     1      23.347   2.563  50.798  1.00  0.00     0.100 C 
BRANCH  14  15
HETATM   15  C11 UNL     1      22.150   2.947  51.593  1.00  0.00     0.079 C 
HETATM   16  S1  UNL     1      21.516   4.443  51.525  1.00  0.00    -0.065 SA
BRANCH  15  17
HETATM   17  N2  UNL     1      21.514   2.017  52.443  1.00  0.00    -0.351 N 
HETATM   18  H16 UNL     1      20.528   2.112  52.762  1.00  0.00     0.166 HD
BRANCH  17  19
HETATM   19  C12 UNL     1      21.749   0.816  53.131  1.00  0.00     0.032 A 
HETATM   20  C13 UNL     1      22.940   0.323  53.591  1.00  0.00     0.029 A 
HETATM   21  C14 UNL     1      23.034  -0.886  54.271  1.00  0.00     0.002 A 
HETATM   22  C15 UNL     1      21.857  -1.593  54.473  1.00  0.00     0.000 A 
HETATM   23  C16 UNL     1      20.626  -1.164  54.044  1.00  0.00     0.002 A 
HETATM   24  C17 UNL     1      20.608   0.061  53.367  1.00  0.00     0.029 A 
ENDBRANCH  17  19
ENDBRANCH  15  17
ENDBRANCH  14  15
ENDBRANCH  13  14
ENDBRANCH   1  13
TORSDOF 8
ENDMDL
MODEL 3
REMARK VINA RESULT:      -7.0      2.597      5.700
REMARK  8 active torsions:
REMARK  status: ('A' for Active; 'I' for Inactive)
REMARK    1  A    between atoms: C6_6  and  C7_7 
REMARK    2  A    between atoms: C7_7  and  N1_8 
REMARK    3  A    between atoms: N1_8  and  C9_10 
REMARK    4  A    between atoms: C9_10  and  C10_11 
REMARK    5  A    between atoms: C10_11  and  C11_12 
REMARK    6  A    between atoms: C11_12  and  N2_14 
REMARK    7  A    between atoms: N2_14  and  C12_15 
REMARK    8  A    between atoms: C18_21  and  O1_22 
ROOT
HETATM    1  N1  UNL     1      22.558   2.996  51.746  1.00  0.00     0.088 N 
HETATM    2  C8  UNL     1      21.438   3.628  51.090  1.00  0.00     0.310 C 
ENDROOT
BRANCH   1   3
HETATM    3  C7  UNL     1      22.641   1.629  51.286  1.00  0.00     0.313 C 
BRANCH   3   4
HETATM    4  C6  UNL     1      22.570   0.648  52.396  1.00  0.00     0.004 A 
HETATM    5  C5  UNL     1      23.564   0.227  53.225  1.00  0.00     0.012 A 
HETATM    6  C4  UNL     1      23.371  -0.698  54.218  1.00  0.00     0.001 A 
HETATM    7  C3  UNL     1      22.112  -1.234  54.392  1.00  0.00     0.009 A 
HETATM    8  C2  UNL     1      21.073  -0.826  53.563  1.00  0.00    -0.028 A 
HETATM    9  C1  UNL     1      19.765  -1.474  53.844  1.00  0.00     0.051 C 
HETATM   10  C18 UNL     1      21.296   0.120  52.556  1.00  0.00     0.079 A 
BRANCH  10  11
HETATM   11  O1  UNL     1      20.151   0.435  51.797  1.00  0.00    -0.360 OA
HETATM   12  H22 UNL     1      19.816  -0.197  51.065  1.00  0.00     0.217 HD
ENDBRANCH  10  11
ENDBRANCH   3   4
ENDBRANCH   1   3
BRANCH   1  13
HETATM   13  C9  UNL     1      23.808   3.643  51.538  1.00  0.00     0.279 C 
BRANCH  13  14
HETATM   14  C10 UNL     1      24.549   3.145  50.319  1.00  0.00     0.100 C 
BRANCH  14  15
HETATM   15  C11 UNL     1      25.997   3.467  50.415  1.00  0.00     0.079 C 
HETATM   16  S1  UNL     1      26.767   4.314  49.261  1.00  0.00    -0.065 SA
BRANCH  15  17
HETATM   17  N2  UNL     1      26.763   3.045  51.523  1.00  0.00    -0.351 N 
HETATM   18  H16 UNL     1      27.265   3.701  52.157  1.00  0.00     0.166 HD
BRANCH  17  19
HETATM   19  C12 UNL     1      27.167   1.886  52.203  1.00  0.00     0.032 A 
HETATM   20  C13 UNL     1      26.792   0.591  51.967  1.00  0.00     0.029 A 
HETATM   21  C14 UNL     1      27.278  -0.475  52.716  1.00  0.00     0.002 A 
HETATM   22  C15 UNL     1      28.174  -0.179  53.734  1.00  0.00     0.000 A 
HETATM   23  C16 UNL     1      28.598   1.093  54.031  1.00  0.00     0.002 A 
HETATM   24  C17 UNL     1      28.067   2.114  53.236  1.00  0.00     0.029 A 
ENDBRANCH  17  19
ENDBRANCH  15  17
ENDBRANCH  14  15
ENDBRANCH  13  14
ENDBRANCH   1  13
TORSDOF 8
ENDMDL
MODEL 4
REMARK VINA RESULT:      -6.9      2.375      5.636
REMARK  8 active torsions:
REMARK  status: ('A' for Active; 'I' for Inactive)
REMARK    1  A    between atoms: C6_6  and  C7_7 
REMARK    2  A    between atoms: C7_7  and  N1_8 
REMARK    3  A    between atoms: N1_8  and  C9_10 
REMARK    4  A    between atoms: C9_10  and  C10_11 
REMARK    5  A    between atoms: C10_11  and  C11_12 
REMARK    6  A    between atoms: C11_12  and  N2_14 
REMARK    7  A    between atoms: N2_14  and  C12_15 
REMARK    8  A    between atoms: C18_21  and  O1_22 
ROOT
HETATM    1  N1  UNL     1      22.174   3.059  52.266  1.00  0.00     0.088 N 
HETATM    2  C8  UNL     1      20.982   3.802  51.933  1.00  0.00     0.310 C 
ENDROOT
BRANCH   1   3
HETATM    3  C7  UNL     1      22.086   1.759  51.642  1.00  0.00     0.313 C 
BRANCH   3   4
HETATM    4  C6  UNL     1      21.565   0.719  52.562  1.00  0.00     0.004 A 
HETATM    5  C5  UNL     1      20.299   0.229  52.663  1.00  0.00     0.012 A 
HETATM    6  C4  UNL     1      19.939  -0.736  53.568  1.00  0.00     0.001 A 
HETATM    7  C3  UNL     1      20.899  -1.239  54.422  1.00  0.00     0.009 A 
HETATM    8  C2  UNL     1      22.202  -0.760  54.345  1.00  0.00    -0.028 A 
HETATM    9  C1  UNL     1      23.146  -1.375  55.316  1.00  0.00     0.051 C 
HETATM   10  C18 UNL     1      22.545   0.225  53.413  1.00  0.00     0.079 A 
BRANCH  10  11
HETATM   11  O1  UNL     1      23.900   0.611  53.452  1.00  0.00    -0.360 OA
HETATM   12  H22 UNL     1      24.526   0.409  52.669  1.00  0.00     0.217 HD
ENDBRANCH  10  11
ENDBRANCH   3   4
ENDBRANCH   1   3
BRANCH   1  13
HETATM   13  C9  UNL     1      23.391   3.688  51.882  1.00  0.00     0.279 C 
BRANCH  13  14
HETATM   14  C10 UNL     1      24.103   2.984  50.752  1.00  0.00     0.100 C 
BRANCH  14  15
HETATM   15  C11 UNL     1      25.577   3.026  50.949  1.00  0.00     0.079 C 
HETATM   16  S1  UNL     1      26.586   3.537  49.782  1.00  0.00    -0.065 SA
BRANCH  15  17
HETATM   17  N2  UNL     1      26.157   2.621  52.171  1.00  0.00    -0.351 N 
HETATM   18  H16 UNL     1      25.904   3.037  53.091  1.00  0.00     0.166 HD
BRANCH  17  19
HETATM   19  C12 UNL     1      27.098   1.723  52.697  1.00  0.00     0.032 A 
HETATM   20  C13 UNL     1      27.151   0.365  52.542  1.00  0.00     0.029 A 
HETATM   21  C14 UNL     1      28.150  -0.413  53.117  1.00  0.00     0.002 A 
HETATM   22  C15 UNL     1      29.113   0.245  53.868  1.00  0.00     0.000 A 
HETATM   23  C16 UNL     1      29.128   1.603  54.068  1.00  0.00     0.002 A 
HETATM   24  C17 UNL     1      28.092   2.321  53.461  1.00  0.00     0.029 A 
ENDBRANCH  17  19
ENDBRANCH  15  17
ENDBRANCH  14  15
ENDBRANCH  13  14
ENDBRANCH   1  13
TORSDOF 8
ENDMDL
MODEL 5
REMARK VINA RESULT:      -6.8      2.304      4.766
REMARK  8 active torsions:
REMARK  status: ('A' for Active; 'I' for Inactive)
REMARK    1  A    between atoms: C6_6  and  C7_7 
REMARK    2  A    between atoms: C7_7  and  N1_8 
REMARK    3  A    between atoms: N1_8  and  C9_10 
REMARK    4  A    between atoms: C9_10  and  C10_11 
REMARK    5  A    between atoms: C10_11  and  C11_12 
REMARK    6  A    between atoms: C11_12  and  N2_14 
REMARK    7  A    between atoms: N2_14  and  C12_15 
REMARK    8  A    between atoms: C18_21  and  O1_22 
ROOT
HETATM    1  N1  UNL     1      25.098   2.557  52.051  1.00  0.00     0.088 N 
HETATM    2  C8  UNL     1      24.223   3.025  53.100  1.00  0.00     0.310 C 
ENDROOT
BRANCH   1   3
HETATM    3  C7  UNL     1      25.518   1.213  52.378  1.00  0.00     0.313 C 
BRANCH   3   4
HETATM    4  C6  UNL     1      26.897   1.164  52.921  1.00  0.00     0.004 A 
HETATM    5  C5  UNL     1      27.660   2.183  53.402  1.00  0.00     0.012 A 
HETATM    6  C4  UNL     1      28.935   2.008  53.874  1.00  0.00     0.001 A 
HETATM    7  C3  UNL     1      29.479   0.740  53.864  1.00  0.00     0.009 A 
HETATM    8  C2  UNL     1      28.727  -0.324  53.380  1.00  0.00    -0.028 A 
HETATM    9  C1  UNL     1      29.420  -1.640  53.418  1.00  0.00     0.051 C 
HETATM   10  C18 UNL     1      27.428  -0.119  52.904  1.00  0.00     0.079 A 
BRANCH  10  11
HETATM   11  O1  UNL     1      26.789  -1.289  52.446  1.00  0.00    -0.360 OA
HETATM   12  H22 UNL     1      26.500  -2.020  53.101  1.00  0.00     0.217 HD
ENDBRANCH  10  11
ENDBRANCH   3   4
ENDBRANCH   1   3
BRANCH   1  13
HETATM   13  C9  UNL     1      24.523   2.570  50.750  1.00  0.00     0.279 C 
BRANCH  13  14
HETATM   14  C10 UNL     1      23.053   2.919  50.744  1.00  0.00     0.100 C 
BRANCH  14  15
HETATM   15  C11 UNL     1      22.244   1.784  50.225  1.00  0.00     0.079 C 
HETATM   16  S1  UNL     1      21.499   1.850  48.782  1.00  0.00    -0.065 SA
BRANCH  15  17
HETATM   17  N2  UNL     1      22.094   0.598  50.974  1.00  0.00    -0.351 N 
HETATM   18  H16 UNL     1      22.072  -0.352  50.547  1.00  0.00     0.166 HD
BRANCH  17  19
HETATM   19  C12 UNL     1      21.939   0.141  52.292  1.00  0.00     0.032 A 
HETATM   20  C13 UNL     1      22.630  -0.853  52.930  1.00  0.00     0.029 A 
HETATM   21  C14 UNL     1      22.381  -1.205  54.252  1.00  0.00     0.002 A 
HETATM   22  C15 UNL     1      21.388  -0.501  54.919  1.00  0.00     0.000 A 
HETATM   23  C16 UNL     1      20.653   0.508  54.348  1.00  0.00     0.002 A 
HETATM   24  C17 UNL     1      20.959   0.806  53.016  1.00  0.00     0.029 A 
ENDBRANCH  17  19
ENDBRANCH  15  17
ENDBRANCH  14  15
ENDBRANCH  13  14
ENDBRANCH   1  13
TORSDOF 8
ENDMDL
MODEL 6
REMARK VINA RESULT:      -6.6      2.706      5.816
REMARK  8 active torsions:
REMARK  status: ('A' for Active; 'I' for Inactive)
REMARK    1  A    between atoms: C6_6  and  C7_7 
REMARK    2  A    between atoms: C7_7  and  N1_8 
REMARK    3  A    between atoms: N1_8  and  C9_10 
REMARK    4  A    between atoms: C9_10  and  C10_11 
REMARK    5  A    between atoms: C10_11  and  C11_12 
REMARK    6  A    between atoms: C11_12  and  N2_14 
REMARK    7  A    between atoms: N2_14  and  C12_15 
REMARK    8  A    between atoms: C18_21  and  O1_22 
ROOT
HETATM    1  N1  UNL     1      22.427   1.308  50.336  1.00  0.00     0.088 N 
HETATM    2  C8  UNL     1      21.710   1.306  49.082  1.00  0.00     0.310 C 
ENDROOT
BRANCH   1   3
HETATM    3  C7  UNL     1      22.713   2.679  50.692  1.00  0.00     0.313 C 
BRANCH   3   4
HETATM    4  C6  UNL     1      24.096   3.083  50.342  1.00  0.00     0.004 A 
HETATM    5  C5  UNL     1      25.263   2.431  50.594  1.00  0.00     0.012 A 
HETATM    6  C4  UNL     1      26.490   2.916  50.221  1.00  0.00     0.001 A 
HETATM    7  C3  UNL     1      26.553   4.124  49.559  1.00  0.00     0.009 A 
HETATM    8  C2  UNL     1      25.380   4.818  49.285  1.00  0.00    -0.028 A 
HETATM    9  C1  UNL     1      25.575   6.107  48.570  1.00  0.00     0.051 C 
HETATM   10  C18 UNL     1      24.140   4.301  49.676  1.00  0.00     0.079 A 
BRANCH  10  11
HETATM   11  O1  UNL     1      23.041   5.113  49.331  1.00  0.00    -0.360 OA
HETATM   12  H22 UNL     1      23.180   6.019  48.875  1.00  0.00     0.217 HD
ENDBRANCH  10  11
ENDBRANCH   3   4
ENDBRANCH   1   3
BRANCH   1  13
HETATM   13  C9  UNL     1      21.745   0.671  51.409  1.00  0.00     0.279 C 
BRANCH  13  14
HETATM   14  C10 UNL     1      22.177   1.160  52.772  1.00  0.00     0.100 C 
BRANCH  14  15
HETATM   15  C11 UNL     1      22.625   0.025  53.622  1.00  0.00     0.079 C 
HETATM   16  S1  UNL     1      21.597  -0.781  54.590  1.00  0.00    -0.065 SA
BRANCH  15  17
HETATM   17  N2  UNL     1      23.971  -0.398  53.616  1.00  0.00    -0.351 N 
HETATM   18  H16 UNL     1      24.260  -1.394  53.713  1.00  0.00     0.166 HD
BRANCH  17  19
HETATM   19  C12 UNL     1      25.280   0.098  53.511  1.00  0.00     0.032 A 
HETATM   20  C13 UNL     1      25.756   1.318  53.906  1.00  0.00     0.029 A 
HETATM   21  C14 UNL     1      27.088   1.685  53.751  1.00  0.00     0.002 A 
HETATM   22  C15 UNL     1      27.938   0.754  53.170  1.00  0.00     0.000 A 
HETATM   23  C16 UNL     1      27.536  -0.489  52.750  1.00  0.00     0.002 A 
HETATM   24  C17 UNL     1      26.182  -0.788  52.938  1.00  0.00     0.029 A 
ENDBRANCH  17  19
ENDBRANCH  15  17
ENDBRANCH  14  15
ENDBRANCH  13  14
ENDBRANCH   1  13
TORSDOF 8
ENDMDL
MODEL 7
REMARK VINA RESULT:      -6.4      2.573      7.049
REMARK  8 active torsions:
REMARK  status: ('A' for Active; 'I' for Inactive)
REMARK    1  A    between atoms: C6_6  and  C7_7 
REMARK    2  A    between atoms: C7_7  and  N1_8 
REMARK    3  A    between atoms: N1_8  and  C9_10 
REMARK    4  A    between atoms: C9_10  and  C10_11 
REMARK    5  A    between atoms: C10_11  and  C11_12 
REMARK    6  A    between atoms: C11_12  and  N2_14 
REMARK    7  A    between atoms: N2_14  and  C12_15 
REMARK    8  A    between atoms: C18_21  and  O1_22 
ROOT
HETATM    1  N1  UNL     1      24.955   5.018  49.540  1.00  0.00     0.088 N 
HETATM    2  C8  UNL     1      24.322   5.936  50.457  1.00  0.00     0.310 C 
ENDROOT
BRANCH   1   3
HETATM    3  C7  UNL     1      26.379   5.264  49.564  1.00  0.00     0.313 C 
BRANCH   3   4
HETATM    4  C6  UNL     1      26.801   6.270  48.560  1.00  0.00     0.004 A 
HETATM    5  C5  UNL     1      26.035   7.160  47.872  1.00  0.00     0.012 A 
HETATM    6  C4  UNL     1      26.548   8.042  46.957  1.00  0.00     0.001 A 
HETATM    7  C3  UNL     1      27.906   8.034  46.715  1.00  0.00     0.009 A 
HETATM    8  C2  UNL     1      28.719   7.138  47.401  1.00  0.00    -0.028 A 
HETATM    9  C1  UNL     1      30.163   7.221  47.055  1.00  0.00     0.051 C 
HETATM   10  C18 UNL     1      28.170   6.247  48.330  1.00  0.00     0.079 A 
BRANCH  10  11
HETATM   11  O1  UNL     1      29.114   5.400  48.945  1.00  0.00    -0.360 OA
HETATM   12  H22 UNL     1      30.034   5.246  48.524  1.00  0.00     0.217 HD
ENDBRANCH  10  11
ENDBRANCH   3   4
ENDBRANCH   1   3
BRANCH   1  13
HETATM   13  C9  UNL     1      24.706   3.644  49.811  1.00  0.00     0.279 C 
BRANCH  13  14
HETATM   14  C10 UNL     1      25.891   2.923  50.410  1.00  0.00     0.100 C 
BRANCH  14  15
HETATM   15  C11 UNL     1      25.653   2.620  51.846  1.00  0.00     0.079 C 
HETATM   16  S1  UNL     1      24.166   2.677  52.501  1.00  0.00    -0.065 SA
BRANCH  15  17
HETATM   17  N2  UNL     1      26.720   2.267  52.700  1.00  0.00    -0.351 N 
HETATM   18  H16 UNL     1      27.104   2.901  53.431  1.00  0.00     0.166 HD
BRANCH  17  19
HETATM   19  C12 UNL     1      27.601   1.211  52.981  1.00  0.00     0.032 A 
HETATM   20  C13 UNL     1      28.861   1.279  53.510  1.00  0.00     0.029 A 
HETATM   21  C14 UNL     1      29.631   0.146  53.747  1.00  0.00     0.002 A 
HETATM   22  C15 UNL     1      29.071  -1.082  53.424  1.00  0.00     0.000 A 
HETATM   23  C16 UNL     1      27.815  -1.230  52.891  1.00  0.00     0.002 A 
HETATM   24  C17 UNL     1      27.098  -0.048  52.679  1.00  0.00     0.029 A 
ENDBRANCH  17  19
ENDBRANCH  15  17
ENDBRANCH  14  15
ENDBRANCH  13  14
ENDBRANCH   1  13
TORSDOF 8
ENDMDL
MODEL 8
REMARK VINA RESULT:      -6.3      2.803      6.666
REMARK  8 active torsions:
REMARK  status: ('A' for Active; 'I' for Inactive)
REMARK    1  A    between atoms: C6_6  and  C7_7 
REMARK    2  A    between atoms: C7_7  and  N1_8 
REMARK    3  A    between atoms: N1_8  and  C9_10 
REMARK    4  A    between atoms: C9_10  and  C10_11 
REMARK    5  A    between atoms: C10_11  and  C11_12 
REMARK    6  A    between atoms: C11_12  and  N2_14 
REMARK    7  A    between atoms: N2_14  and  C12_15 
REMARK    8  A    between atoms: C18_21  and  O1_22 
ROOT
HETATM    1  N1  UNL     1      22.611   2.807  51.908  1.00  0.00     0.088 N 
HETATM    2  C8  UNL     1      21.203   2.488  51.882  1.00  0.00     0.310 C 
ENDROOT
BRANCH   1   3
HETATM    3  C7  UNL     1      22.748   4.239  52.055  1.00  0.00     0.313 C 
BRANCH   3   4
HETATM    4  C6  UNL     1      23.323   4.882  50.849  1.00  0.00     0.004 A 
HETATM    5  C5  UNL     1      23.166   4.537  49.542  1.00  0.00     0.012 A 
HETATM    6  C4  UNL     1      23.762   5.215  48.510  1.00  0.00     0.001 A 
HETATM    7  C3  UNL     1      24.562   6.300  48.802  1.00  0.00     0.009 A 
HETATM    8  C2  UNL     1      24.744   6.681  50.127  1.00  0.00    -0.028 A 
HETATM    9  C1  UNL     1      25.628   7.861  50.317  1.00  0.00     0.051 C 
HETATM   10  C18 UNL     1      24.125   5.972  51.162  1.00  0.00     0.079 A 
BRANCH  10  11
HETATM   11  O1  UNL     1      24.401   6.473  52.451  1.00  0.00    -0.360 OA
HETATM   12  H22 UNL     1      24.871   5.892  53.150  1.00  0.00     0.217 HD
ENDBRANCH  10  11
ENDBRANCH   3   4
ENDBRANCH   1   3
BRANCH   1  13
HETATM   13  C9  UNL     1      23.348   2.153  52.934  1.00  0.00     0.279 C 
BRANCH  13  14
HETATM   14  C10 UNL     1      24.735   2.717  53.133  1.00  0.00     0.100 C 
BRANCH  14  15
HETATM   15  C11 UNL     1      25.729   1.971  52.317  1.00  0.00     0.079 C 
HETATM   16  S1  UNL     1      26.418   2.621  50.996  1.00  0.00    -0.065 SA
BRANCH  15  17
HETATM   17  N2  UNL     1      26.115   0.659  52.665  1.00  0.00    -0.351 N 
HETATM   18  H16 UNL     1      25.437  -0.114  52.830  1.00  0.00     0.166 HD
BRANCH  17  19
HETATM   19  C12 UNL     1      27.254  -0.124  52.912  1.00  0.00     0.032 A 
HETATM   20  C13 UNL     1      28.489   0.288  53.332  1.00  0.00     0.029 A 
HETATM   21  C14 UNL     1      29.538  -0.600  53.547  1.00  0.00     0.002 A 
HETATM   22  C15 UNL     1      29.287  -1.946  53.319  1.00  0.00     0.000 A 
HETATM   23  C16 UNL     1      28.075  -2.435  52.899  1.00  0.00     0.002 A 
HETATM   24  C17 UNL     1      27.068  -1.484  52.702  1.00  0.00     0.029 A 
ENDBRANCH  17  19
ENDBRANCH  15  17
ENDBRANCH  14  15
ENDBRANCH  13  14
ENDBRANCH   1  13
TORSDOF 8
ENDMDL
MODEL 9
REMARK VINA RESULT:      -6.3      2.307      6.137
REMARK  8 active torsions:
REMARK  status: ('A' for Active; 'I' for Inactive)
REMARK    1  A    between atoms: C6_6  and  C7_7 
REMARK    2  A    between atoms: C7_7  and  N1_8 
REMARK    3  A    between atoms: N1_8  and  C9_10 
REMARK    4  A    between atoms: C9_10  and  C10_11 
REMARK    5  A    between atoms: C10_11  and  C11_12 
REMARK    6  A    between atoms: C11_12  and  N2_14 
REMARK    7  A    between atoms: N2_14  and  C12_15 
REMARK    8  A    between atoms: C18_21  and  O1_22 
ROOT
HETATM    1  N1  UNL     1      23.186   5.036  49.961  1.00  0.00     0.088 N 
HETATM    2  C8  UNL     1      22.962   5.550  51.291  1.00  0.00     0.310 C 
ENDROOT
BRANCH   1   3
HETATM    3  C7  UNL     1      24.555   4.582  49.875  1.00  0.00     0.313 C 
BRANCH   3   4
HETATM    4  C6  UNL     1      25.419   5.516  49.114  1.00  0.00     0.004 A 
HETATM    5  C5  UNL     1      25.071   6.661  48.465  1.00  0.00     0.012 A 
HETATM    6  C4  UNL     1      25.971   7.441  47.785  1.00  0.00     0.001 A 
HETATM    7  C3  UNL     1      27.294   7.054  47.752  1.00  0.00     0.009 A 
HETATM    8  C2  UNL     1      27.684   5.890  48.405  1.00  0.00    -0.028 A 
HETATM    9  C1  UNL     1      29.134   5.575  48.297  1.00  0.00     0.051 C 
HETATM   10  C18 UNL     1      26.747   5.111  49.092  1.00  0.00     0.079 A 
BRANCH  10  11
HETATM   11  O1  UNL     1      27.288   3.962  49.704  1.00  0.00    -0.360 OA
HETATM   12  H22 UNL     1      28.079   4.034  50.349  1.00  0.00     0.217 HD
ENDBRANCH  10  11
ENDBRANCH   3   4
ENDBRANCH   1   3
BRANCH   1  13
HETATM   13  C9  UNL     1      22.311   3.981  49.578  1.00  0.00     0.279 C 
BRANCH  13  14
HETATM   14  C10 UNL     1      22.993   2.636  49.486  1.00  0.00     0.100 C 
BRANCH  14  15
HETATM   15  C11 UNL     1      22.547   1.742  50.588  1.00  0.00     0.079 C 
HETATM   16  S1  UNL     1      21.180   0.868  50.485  1.00  0.00    -0.065 SA
BRANCH  15  17
HETATM   17  N2  UNL     1      23.302   1.619  51.774  1.00  0.00    -0.351 N 
HETATM   18  H16 UNL     1      23.050   2.092  52.666  1.00  0.00     0.166 HD
BRANCH  17  19
HETATM   19  C12 UNL     1      24.452   0.998  52.286  1.00  0.00     0.032 A 
HETATM   20  C13 UNL     1      24.534   0.054  53.273  1.00  0.00     0.029 A 
HETATM   21  C14 UNL     1      25.746  -0.490  53.685  1.00  0.00     0.002 A 
HETATM   22  C15 UNL     1      26.893  -0.037  53.050  1.00  0.00     0.000 A 
HETATM   23  C16 UNL     1      26.891   0.905  52.051  1.00  0.00     0.002 A 
HETATM   24  C17 UNL     1      25.637   1.408  51.690  1.00  0.00     0.029 A 
ENDBRANCH  17  19
ENDBRANCH  15  17
ENDBRANCH  14  15
ENDBRANCH  13  14
ENDBRANCH   1  13
TORSDOF 8
ENDMDL
