MODEL 1
REMARK VINA RESULT:      -8.4      0.000      0.000
REMARK  6 active torsions:
REMARK  status: ('A' for Active; 'I' for Inactive)
REMARK    1  A    between atoms: O1_1  and  C1_2 
REMARK    2  A    between atoms: C3_5  and  C4_6 
REMARK    3  A    between atoms: C4_6  and  O2_7 
REMARK    4  A    between atoms: O2_7  and  C5_8 
REMARK    5  A    between atoms: C8_11  and  N1_12 
REMARK    6  A    between atoms: C11_15  and  C12_16 
ROOT
HETATM    1  C5  UNL     1      24.055   0.662  52.803  1.00  0.00     0.069 A 
HETATM    2  C6  UNL     1      23.573  -0.446  53.463  1.00  0.00     0.039 A 
HETATM    3  C7  UNL     1      22.209  -0.685  53.486  1.00  0.00     0.034 A 
HETATM    4  C8  UNL     1      21.393   0.214  52.835  1.00  0.00     0.053 A 
HETATM    5  C18 UNL     1      21.874   1.313  52.181  1.00  0.00     0.034 A 
HETATM    6  C19 UNL     1      23.245   1.570  52.148  1.00  0.00     0.039 A 
ENDROOT
BRANCH   4   7
HETATM    7  N1  UNL     1      19.990  -0.006  52.843  1.00  0.00    -0.269 N 
HETATM    8  C9  UNL     1      18.939   0.886  52.345  1.00  0.00     0.157 C 
HETATM    9  C10 UNL     1      18.044  -0.161  51.671  1.00  0.00     0.084 C 
HETATM   10  C11 UNL     1      18.163  -1.255  52.697  1.00  0.00     0.066 C 
HETATM   11  N2  UNL     1      19.282  -1.108  53.321  1.00  0.00    -0.176 NA
BRANCH  10  12
HETATM   12  C12 UNL     1      17.143  -2.283  52.901  1.00  0.00    -0.010 A 
HETATM   13  C13 UNL     1      17.404  -3.437  53.624  1.00  0.00     0.013 A 
HETATM   14  C14 UNL     1      16.461  -4.427  53.834  1.00  0.00     0.001 A 
HETATM   15  C15 UNL     1      15.216  -4.236  53.293  1.00  0.00     0.000 A 
HETATM   16  C16 UNL     1      14.936  -3.094  52.571  1.00  0.00     0.001 A 
HETATM   17  C17 UNL     1      15.895  -2.120  52.375  1.00  0.00     0.013 A 
ENDBRANCH  10  12
ENDBRANCH   4   7
BRANCH   1  18
HETATM   18  O2  UNL     1      25.404   0.883  52.790  1.00  0.00    -0.345 OA
BRANCH  18  19
HETATM   19  C4  UNL     1      26.261   0.926  53.893  1.00  0.00     0.242 C 
BRANCH  19  20
HETATM   20  C3  UNL     1      27.422  -0.022  53.733  1.00  0.00     0.102 A 
HETATM   21  S1  UNL     1      29.196   0.599  53.942  1.00  0.00    -0.080 SA
HETATM   22  C2  UNL     1      29.901  -1.101  53.600  1.00  0.00     0.109 A 
HETATM   23  C1  UNL     1      28.713  -1.809  53.398  1.00  0.00     0.169 A 
HETATM   24  N3  UNL     1      27.481  -1.306  53.456  1.00  0.00    -0.220 NA
BRANCH  23  25
HETATM   25  O1  UNL     1      28.645  -3.186  53.094  1.00  0.00    -0.344 OA
HETATM   26  H1  UNL     1      29.431  -3.754  53.441  1.00  0.00     0.219 HD
ENDBRANCH  23  25
ENDBRANCH  19  20
ENDBRANCH  18  19
ENDBRANCH   1  18
TORSDOF 6
ENDMDL
MODEL 2
REMARK VINA RESULT:      -8.2      5.988      7.652
REMARK  6 active torsions:
REMARK  status: ('A' for Active; 'I' for Inactive)
REMARK    1  A    between atoms: O1_1  and  C1_2 
REMARK    2  A    between atoms: C3_5  and  C4_6 
REMARK    3  A    between atoms: C4_6  and  O2_7 
REMARK    4  A    between atoms: O2_7  and  C5_8 
REMARK    5  A    between atoms: C8_11  and  N1_12 
REMARK    6  A    between atoms: C11_15  and  C12_16 
ROOT
HETATM    1  C5  UNL     1      27.149   5.713  48.507  1.00  0.00     0.069 A 
HETATM    2  C6  UNL     1      27.403   4.413  48.881  1.00  0.00     0.039 A 
HETATM    3  C7  UNL     1      26.420   3.686  49.530  1.00  0.00     0.034 A 
HETATM    4  C8  UNL     1      25.217   4.314  49.772  1.00  0.00     0.053 A 
HETATM    5  C18 UNL     1      24.968   5.605  49.400  1.00  0.00     0.034 A 
HETATM    6  C19 UNL     1      25.947   6.352  48.745  1.00  0.00     0.039 A 
ENDROOT
BRANCH   4   7
HETATM    7  N1  UNL     1      24.191   3.592  50.437  1.00  0.00    -0.269 N 
HETATM    8  C9  UNL     1      22.777   3.489  50.059  1.00  0.00     0.157 C 
HETATM    9  C10 UNL     1      22.569   1.997  50.344  1.00  0.00     0.084 C 
HETATM   10  C11 UNL     1      23.381   1.890  51.605  1.00  0.00     0.066 C 
HETATM   11  N2  UNL     1      24.276   2.818  51.593  1.00  0.00    -0.176 NA
BRANCH  10  12
HETATM   12  C12 UNL     1      23.142   0.878  52.634  1.00  0.00    -0.010 A 
HETATM   13  C13 UNL     1      21.859   0.525  53.027  1.00  0.00     0.013 A 
HETATM   14  C14 UNL     1      21.600  -0.427  53.996  1.00  0.00     0.001 A 
HETATM   15  C15 UNL     1      22.679  -1.038  54.582  1.00  0.00     0.000 A 
HETATM   16  C16 UNL     1      23.963  -0.701  54.205  1.00  0.00     0.001 A 
HETATM   17  C17 UNL     1      24.195   0.253  53.235  1.00  0.00     0.013 A 
ENDBRANCH  10  12
ENDBRANCH   4   7
BRANCH   1  18
HETATM   18  O2  UNL     1      28.130   6.416  47.866  1.00  0.00    -0.345 OA
BRANCH  18  19
HETATM   19  C4  UNL     1      29.033   7.316  48.440  1.00  0.00     0.242 C 
BRANCH  19  20
HETATM   20  C3  UNL     1      30.415   6.724  48.550  1.00  0.00     0.102 A 
HETATM   21  S1  UNL     1      31.925   7.852  48.712  1.00  0.00    -0.080 SA
HETATM   22  C2  UNL     1      33.091   6.390  48.781  1.00  0.00     0.109 A 
HETATM   23  C1  UNL     1      32.166   5.349  48.674  1.00  0.00     0.169 A 
HETATM   24  N3  UNL     1      30.845   5.482  48.559  1.00  0.00    -0.220 NA
BRANCH  23  25
HETATM   25  O1  UNL     1      32.502   3.977  48.672  1.00  0.00    -0.344 OA
HETATM   26  H1  UNL     1      32.333   3.484  47.784  1.00  0.00     0.219 HD
ENDBRANCH  23  25
ENDBRANCH  19  20
ENDBRANCH  18  19
ENDBRANCH   1  18
TORSDOF 6
ENDMDL
MODEL 3
REMARK VINA RESULT:      -8.2      1.665      1.995
REMARK  6 active torsions:
REMARK  status: ('A' for Active; 'I' for Inactive)
REMARK    1  A    between atoms: O1_1  and  C1_2 
REMARK    2  A    between atoms: C3_5  and  C4_6 
REMARK    3  A    between atoms: C4_6  and  O2_7 
REMARK    4  A    between atoms: O2_7  and  C5_8 
REMARK    5  A    between atoms: C8_11  and  N1_12 
REMARK    6  A    between atoms: C11_15  and  C12_16 
ROOT
HETATM    1  C5  UNL     1      23.362  -0.249  53.755  1.00  0.00     0.069 A 
HETATM    2  C6  UNL     1      22.768  -1.053  54.702  1.00  0.00     0.039 A 
HETATM    3  C7  UNL     1      21.412  -1.323  54.613  1.00  0.00     0.034 A 
HETATM    4  C8  UNL     1      20.718  -0.762  53.562  1.00  0.00     0.053 A 
HETATM    5  C18 UNL     1      21.311   0.036  52.624  1.00  0.00     0.034 A 
HETATM    6  C19 UNL     1      22.675   0.318  52.699  1.00  0.00     0.039 A 
ENDROOT
BRANCH   4   7
HETATM    7  N1  UNL     1      19.327  -1.022  53.447  1.00  0.00    -0.269 N 
HETATM    8  C9  UNL     1      18.293  -0.140  52.896  1.00  0.00     0.157 C 
HETATM    9  C10 UNL     1      17.488  -1.186  52.113  1.00  0.00     0.084 C 
HETATM   10  C11 UNL     1      17.557  -2.314  53.105  1.00  0.00     0.066 C 
HETATM   11  N2  UNL     1      18.617  -2.160  53.824  1.00  0.00    -0.176 NA
BRANCH  10  12
HETATM   12  C12 UNL     1      16.555  -3.377  53.187  1.00  0.00    -0.010 A 
HETATM   13  C13 UNL     1      16.788  -4.546  53.897  1.00  0.00     0.013 A 
HETATM   14  C14 UNL     1      15.862  -5.569  53.993  1.00  0.00     0.001 A 
HETATM   15  C15 UNL     1      14.664  -5.395  53.349  1.00  0.00     0.000 A 
HETATM   16  C16 UNL     1      14.413  -4.240  52.639  1.00  0.00     0.001 A 
HETATM   17  C17 UNL     1      15.354  -3.233  52.558  1.00  0.00     0.013 A 
ENDBRANCH  10  12
ENDBRANCH   4   7
BRANCH   1  18
HETATM   18  O2  UNL     1      24.701   0.006  53.858  1.00  0.00    -0.345 OA
BRANCH  18  19
HETATM   19  C4  UNL     1      25.398   1.081  53.299  1.00  0.00     0.242 C 
BRANCH  19  20
HETATM   20  C3  UNL     1      26.875   0.996  53.585  1.00  0.00     0.102 A 
HETATM   21  S1  UNL     1      27.834  -0.584  53.187  1.00  0.00    -0.080 SA
HETATM   22  C2  UNL     1      29.437   0.152  53.813  1.00  0.00     0.109 A 
HETATM   23  C1  UNL     1      28.978   1.415  54.197  1.00  0.00     0.169 A 
HETATM   24  N3  UNL     1      27.726   1.858  54.097  1.00  0.00    -0.220 NA
BRANCH  23  25
HETATM   25  O1  UNL     1      29.790   2.425  54.758  1.00  0.00    -0.344 OA
HETATM   26  H1  UNL     1      30.324   2.988  54.081  1.00  0.00     0.219 HD
ENDBRANCH  23  25
ENDBRANCH  19  20
ENDBRANCH  18  19
ENDBRANCH   1  18
TORSDOF 6
ENDMDL
MODEL 4
REMARK VINA RESULT:      -8.1      5.250      9.948
REMARK  6 active torsions:
REMARK  status: ('A' for Active; 'I' for Inactive)
REMARK    1  A    between atoms: O1_1  and  C1_2 
REMARK    2  A    between atoms: C3_5  and  C4_6 
REMARK    3  A    between atoms: C4_6  and  O2_7 
REMARK    4  A    between atoms: O2_7  and  C5_8 
REMARK    5  A    between atoms: C8_11  and  N1_12 
REMARK    6  A    between atoms: C11_15  and  C12_16 
ROOT
HETATM    1  C5  UNL     1      18.672   2.043  51.366  1.00  0.00     0.069 A 
HETATM    2  C6  UNL     1      18.785   0.682  51.541  1.00  0.00     0.039 A 
HETATM    3  C7  UNL     1      19.852   0.175  52.264  1.00  0.00     0.034 A 
HETATM    4  C8  UNL     1      20.759   1.075  52.779  1.00  0.00     0.053 A 
HETATM    5  C18 UNL     1      20.644   2.426  52.603  1.00  0.00     0.034 A 
HETATM    6  C19 UNL     1      19.576   2.954  51.878  1.00  0.00     0.039 A 
ENDROOT
BRANCH   4   7
HETATM    7  N1  UNL     1      21.863   0.582  53.523  1.00  0.00    -0.269 N 
HETATM    8  C9  UNL     1      21.834  -0.311  54.685  1.00  0.00     0.157 C 
HETATM    9  C10 UNL     1      23.021  -1.210  54.318  1.00  0.00     0.084 C 
HETATM   10  C11 UNL     1      23.941  -0.156  53.764  1.00  0.00     0.066 C 
HETATM   11  N2  UNL     1      23.223   0.825  53.333  1.00  0.00    -0.176 NA
BRANCH  10  12
HETATM   12  C12 UNL     1      25.398  -0.286  53.747  1.00  0.00    -0.010 A 
HETATM   13  C13 UNL     1      26.196   0.325  54.702  1.00  0.00     0.013 A 
HETATM   14  C14 UNL     1      27.575   0.222  54.713  1.00  0.00     0.001 A 
HETATM   15  C15 UNL     1      28.158  -0.527  53.723  1.00  0.00     0.000 A 
HETATM   16  C16 UNL     1      27.381  -1.144  52.764  1.00  0.00     0.001 A 
HETATM   17  C17 UNL     1      26.006  -1.025  52.775  1.00  0.00     0.013 A 
ENDBRANCH  10  12
ENDBRANCH   4   7
BRANCH   1  18
HETATM   18  O2  UNL     1      17.612   2.528  50.651  1.00  0.00    -0.345 OA
BRANCH  18  19
HETATM   19  C4  UNL     1      17.090   3.823  50.693  1.00  0.00     0.242 C 
BRANCH  19  20
HETATM   20  C3  UNL     1      15.928   3.925  51.648  1.00  0.00     0.102 A 
HETATM   21  S1  UNL     1      14.196   3.397  51.101  1.00  0.00    -0.080 SA
HETATM   22  C2  UNL     1      13.466   3.829  52.770  1.00  0.00     0.109 A 
HETATM   23  C1  UNL     1      14.619   4.278  53.419  1.00  0.00     0.169 A 
HETATM   24  N3  UNL     1      15.842   4.337  52.893  1.00  0.00    -0.220 NA
BRANCH  23  25
HETATM   25  O1  UNL     1      14.657   4.745  54.751  1.00  0.00    -0.344 OA
HETATM   26  H1  UNL     1      15.595   4.968  55.113  1.00  0.00     0.219 HD
ENDBRANCH  23  25
ENDBRANCH  19  20
ENDBRANCH  18  19
ENDBRANCH   1  18
TORSDOF 6
ENDMDL
MODEL 5
REMARK VINA RESULT:      -8.0      5.535     10.435
REMARK  6 active torsions:
REMARK  status: ('A' for Active; 'I' for Inactive)
REMARK    1  A    between atoms: O1_1  and  C1_2 
REMARK    2  A    between atoms: C3_5  and  C4_6 
REMARK    3  A    between atoms: C4_6  and  O2_7 
REMARK    4  A    between atoms: O2_7  and  C5_8 
REMARK    5  A    between atoms: C8_11  and  N1_12 
REMARK    6  A    between atoms: C11_15  and  C12_16 
ROOT
HETATM    1  C5  UNL     1      20.324   2.658  52.062  1.00  0.00     0.069 A 
HETATM    2  C6  UNL     1      21.204   3.710  52.186  1.00  0.00     0.039 A 
HETATM    3  C7  UNL     1      22.560   3.488  52.017  1.00  0.00     0.034 A 
HETATM    4  C8  UNL     1      22.964   2.202  51.727  1.00  0.00     0.053 A 
HETATM    5  C18 UNL     1      22.089   1.160  51.605  1.00  0.00     0.034 A 
HETATM    6  C19 UNL     1      20.719   1.366  51.772  1.00  0.00     0.039 A 
ENDROOT
BRANCH   4   7
HETATM    7  N1  UNL     1      24.350   1.946  51.550  1.00  0.00    -0.269 N 
HETATM    8  C9  UNL     1      25.305   2.705  50.737  1.00  0.00     0.157 C 
HETATM    9  C10 UNL     1      26.496   2.691  51.704  1.00  0.00     0.084 C 
HETATM   10  C11 UNL     1      26.360   1.282  52.211  1.00  0.00     0.066 C 
HETATM   11  N2  UNL     1      25.126   0.925  52.096  1.00  0.00    -0.176 NA
BRANCH  10  12
HETATM   12  C12 UNL     1      27.481   0.503  52.736  1.00  0.00    -0.010 A 
HETATM   13  C13 UNL     1      27.468  -0.884  52.739  1.00  0.00     0.013 A 
HETATM   14  C14 UNL     1      28.511  -1.649  53.228  1.00  0.00     0.001 A 
HETATM   15  C15 UNL     1      29.601  -0.981  53.728  1.00  0.00     0.000 A 
HETATM   16  C16 UNL     1      29.633   0.398  53.732  1.00  0.00     0.001 A 
HETATM   17  C17 UNL     1      28.578   1.138  53.238  1.00  0.00     0.013 A 
ENDBRANCH  10  12
ENDBRANCH   4   7
BRANCH   1  18
HETATM   18  O2  UNL     1      18.989   2.895  52.231  1.00  0.00    -0.345 OA
BRANCH  18  19
HETATM   19  C4  UNL     1      18.155   3.648  51.400  1.00  0.00     0.242 C 
BRANCH  19  20
HETATM   20  C3  UNL     1      16.741   3.693  51.920  1.00  0.00     0.102 A 
HETATM   21  S1  UNL     1      15.375   2.716  51.053  1.00  0.00    -0.080 SA
HETATM   22  C2  UNL     1      14.085   3.311  52.273  1.00  0.00     0.109 A 
HETATM   23  C1  UNL     1      14.889   4.112  53.089  1.00  0.00     0.169 A 
HETATM   24  N3  UNL     1      16.196   4.319  52.940  1.00  0.00    -0.220 NA
BRANCH  23  25
HETATM   25  O1  UNL     1      14.423   4.832  54.210  1.00  0.00    -0.344 OA
HETATM   26  H1  UNL     1      14.974   4.712  55.071  1.00  0.00     0.219 HD
ENDBRANCH  23  25
ENDBRANCH  19  20
ENDBRANCH  18  19
ENDBRANCH   1  18
TORSDOF 6
ENDMDL
MODEL 6
REMARK VINA RESULT:      -8.0      6.203      8.117
REMARK  6 active torsions:
REMARK  status: ('A' for Active; 'I' for Inactive)
REMARK    1  A    between atoms: O1_1  and  C1_2 
REMARK    2  A    between atoms: C3_5  and  C4_6 
REMARK    3  A    between atoms: C4_6  and  O2_7 
REMARK    4  A    between atoms: O2_7  and  C5_8 
REMARK    5  A    between atoms: C8_11  and  N1_12 
REMARK    6  A    between atoms: C11_15  and  C12_16 
ROOT
HETATM    1  C5  UNL     1      26.325   5.587  49.042  1.00  0.00     0.069 A 
HETATM    2  C6  UNL     1      25.221   5.641  49.864  1.00  0.00     0.039 A 
HETATM    3  C7  UNL     1      24.868   4.525  50.604  1.00  0.00     0.034 A 
HETATM    4  C8  UNL     1      25.653   3.399  50.476  1.00  0.00     0.053 A 
HETATM    5  C18 UNL     1      26.747   3.348  49.659  1.00  0.00     0.034 A 
HETATM    6  C19 UNL     1      27.118   4.463  48.906  1.00  0.00     0.039 A 
ENDROOT
BRANCH   4   7
HETATM    7  N1  UNL     1      25.313   2.241  51.223  1.00  0.00    -0.269 N 
HETATM    8  C9  UNL     1      26.223   1.298  51.880  1.00  0.00     0.157 C 
HETATM    9  C10 UNL     1      25.441   1.089  53.183  1.00  0.00     0.084 C 
HETATM   10  C11 UNL     1      24.051   1.058  52.611  1.00  0.00     0.066 C 
HETATM   11  N2  UNL     1      24.049   1.726  51.507  1.00  0.00    -0.176 NA
BRANCH  10  12
HETATM   12  C12 UNL     1      22.932   0.366  53.251  1.00  0.00    -0.010 A 
HETATM   13  C13 UNL     1      21.636   0.857  53.183  1.00  0.00     0.013 A 
HETATM   14  C14 UNL     1      20.557   0.227  53.777  1.00  0.00     0.001 A 
HETATM   15  C15 UNL     1      20.806  -0.937  54.459  1.00  0.00     0.000 A 
HETATM   16  C16 UNL     1      22.087  -1.441  54.537  1.00  0.00     0.001 A 
HETATM   17  C17 UNL     1      23.147  -0.793  53.935  1.00  0.00     0.013 A 
ENDBRANCH  10  12
ENDBRANCH   4   7
BRANCH   1  18
HETATM   18  O2  UNL     1      26.660   6.697  48.319  1.00  0.00    -0.345 OA
BRANCH  18  19
HETATM   19  C4  UNL     1      26.772   8.007  48.792  1.00  0.00     0.242 C 
BRANCH  19  20
HETATM   20  C3  UNL     1      28.212   8.435  48.914  1.00  0.00     0.102 A 
HETATM   21  S1  UNL     1      29.591   7.354  48.203  1.00  0.00    -0.080 SA
HETATM   22  C2  UNL     1      30.912   8.555  48.765  1.00  0.00     0.109 A 
HETATM   23  C1  UNL     1      30.105   9.523  49.367  1.00  0.00     0.169 A 
HETATM   24  N3  UNL     1      28.776   9.491  49.456  1.00  0.00    -0.220 NA
BRANCH  23  25
HETATM   25  O1  UNL     1      30.589  10.699  49.982  1.00  0.00    -0.344 OA
HETATM   26  H1  UNL     1      30.156  10.934  50.885  1.00  0.00     0.219 HD
ENDBRANCH  23  25
ENDBRANCH  19  20
ENDBRANCH  18  19
ENDBRANCH   1  18
TORSDOF 6
ENDMDL
MODEL 7
REMARK VINA RESULT:      -7.8      4.855      9.766
REMARK  6 active torsions:
REMARK  status: ('A' for Active; 'I' for Inactive)
REMARK    1  A    between atoms: O1_1  and  C1_2 
REMARK    2  A    between atoms: C3_5  and  C4_6 
REMARK    3  A    between atoms: C4_6  and  O2_7 
REMARK    4  A    between atoms: O2_7  and  C5_8 
REMARK    5  A    between atoms: C8_11  and  N1_12 
REMARK    6  A    between atoms: C11_15  and  C12_16 
ROOT
HETATM    1  C5  UNL     1      17.397  -0.387  51.602  1.00  0.00     0.069 A 
HETATM    2  C6  UNL     1      18.383   0.317  50.947  1.00  0.00     0.039 A 
HETATM    3  C7  UNL     1      19.636   0.434  51.526  1.00  0.00     0.034 A 
HETATM    4  C8  UNL     1      19.832  -0.171  52.749  1.00  0.00     0.053 A 
HETATM    5  C18 UNL     1      18.852  -0.869  53.396  1.00  0.00     0.034 A 
HETATM    6  C19 UNL     1      17.584  -0.997  52.828  1.00  0.00     0.039 A 
ENDROOT
BRANCH   4   7
HETATM    7  N1  UNL     1      21.107  -0.066  53.366  1.00  0.00    -0.269 N 
HETATM    8  C9  UNL     1      21.457  -0.368  54.758  1.00  0.00     0.157 C 
HETATM    9  C10 UNL     1      22.796  -1.076  54.512  1.00  0.00     0.084 C 
HETATM   10  C11 UNL     1      23.320  -0.194  53.413  1.00  0.00     0.066 C 
HETATM   11  N2  UNL     1      22.316   0.343  52.807  1.00  0.00    -0.176 NA
BRANCH  10  12
HETATM   12  C12 UNL     1      24.745  -0.020  53.130  1.00  0.00    -0.010 A 
HETATM   13  C13 UNL     1      25.194   0.865  52.161  1.00  0.00     0.013 A 
HETATM   14  C14 UNL     1      26.534   1.052  51.871  1.00  0.00     0.001 A 
HETATM   15  C15 UNL     1      27.442   0.317  52.589  1.00  0.00     0.000 A 
HETATM   16  C16 UNL     1      27.015  -0.568  53.557  1.00  0.00     0.001 A 
HETATM   17  C17 UNL     1      25.672  -0.737  53.828  1.00  0.00     0.013 A 
ENDBRANCH  10  12
ENDBRANCH   4   7
BRANCH   1  18
HETATM   18  O2  UNL     1      16.167  -0.493  51.016  1.00  0.00    -0.345 OA
BRANCH  18  19
HETATM   19  C4  UNL     1      14.973   0.085  51.455  1.00  0.00     0.242 C 
BRANCH  19  20
HETATM   20  C3  UNL     1      15.126   1.564  51.698  1.00  0.00     0.102 A 
HETATM   21  S1  UNL     1      15.446   2.740  50.253  1.00  0.00    -0.080 SA
HETATM   22  C2  UNL     1      15.492   4.228  51.388  1.00  0.00     0.109 A 
HETATM   23  C1  UNL     1      15.264   3.594  52.612  1.00  0.00     0.169 A 
HETATM   24  N3  UNL     1      15.081   2.287  52.796  1.00  0.00    -0.220 NA
BRANCH  23  25
HETATM   25  O1  UNL     1      15.195   4.258  53.856  1.00  0.00    -0.344 OA
HETATM   26  H1  UNL     1      15.328   5.278  53.819  1.00  0.00     0.219 HD
ENDBRANCH  23  25
ENDBRANCH  19  20
ENDBRANCH  18  19
ENDBRANCH   1  18
TORSDOF 6
ENDMDL
MODEL 8
REMARK VINA RESULT:      -7.6      7.075     12.971
REMARK  6 active torsions:
REMARK  status: ('A' for Active; 'I' for Inactive)
REMARK    1  A    between atoms: O1_1  and  C1_2 
REMARK    2  A    between atoms: C3_5  and  C4_6 
REMARK    3  A    between atoms: C4_6  and  O2_7 
REMARK    4  A    between atoms: O2_7  and  C5_8 
REMARK    5  A    between atoms: C8_11  and  N1_12 
REMARK    6  A    between atoms: C11_15  and  C12_16 
ROOT
HETATM    1  C5  UNL     1      24.930   4.955  49.361  1.00  0.00     0.069 A 
HETATM    2  C6  UNL     1      25.883   3.971  49.498  1.00  0.00     0.039 A 
HETATM    3  C7  UNL     1      27.184   4.223  49.098  1.00  0.00     0.034 A 
HETATM    4  C8  UNL     1      27.461   5.468  48.575  1.00  0.00     0.053 A 
HETATM    5  C18 UNL     1      26.513   6.443  48.440  1.00  0.00     0.034 A 
HETATM    6  C19 UNL     1      25.197   6.206  48.838  1.00  0.00     0.039 A 
ENDROOT
BRANCH   4   7
HETATM    7  N1  UNL     1      28.788   5.753  48.157  1.00  0.00    -0.269 N 
HETATM    8  C9  UNL     1      29.355   7.058  47.801  1.00  0.00     0.157 C 
HETATM    9  C10 UNL     1      30.719   6.913  48.487  1.00  0.00     0.084 C 
HETATM   10  C11 UNL     1      30.987   5.470  48.157  1.00  0.00     0.066 C 
HETATM   11  N2  UNL     1      29.856   4.875  47.983  1.00  0.00    -0.176 NA
BRANCH  10  12
HETATM   12  C12 UNL     1      32.332   4.901  48.065  1.00  0.00    -0.010 A 
HETATM   13  C13 UNL     1      32.551   3.622  47.574  1.00  0.00     0.013 A 
HETATM   14  C14 UNL     1      33.809   3.056  47.475  1.00  0.00     0.001 A 
HETATM   15  C15 UNL     1      34.875   3.815  47.885  1.00  0.00     0.000 A 
HETATM   16  C16 UNL     1      34.678   5.090  48.374  1.00  0.00     0.001 A 
HETATM   17  C17 UNL     1      33.412   5.632  48.464  1.00  0.00     0.013 A 
ENDBRANCH  10  12
ENDBRANCH   4   7
BRANCH   1  18
HETATM   18  O2  UNL     1      23.650   4.691  49.762  1.00  0.00    -0.345 OA
BRANCH  18  19
HETATM   19  C4  UNL     1      22.983   5.233  50.864  1.00  0.00     0.242 C 
BRANCH  19  20
HETATM   20  C3  UNL     1      21.938   4.289  51.403  1.00  0.00     0.102 A 
HETATM   21  S1  UNL     1      22.447   2.622  52.136  1.00  0.00    -0.080 SA
HETATM   22  C2  UNL     1      20.669   2.172  52.512  1.00  0.00     0.109 A 
HETATM   23  C1  UNL     1      20.032   3.320  52.035  1.00  0.00     0.169 A 
HETATM   24  N3  UNL     1      20.629   4.376  51.484  1.00  0.00    -0.220 NA
BRANCH  23  25
HETATM   25  O1  UNL     1      18.637   3.532  52.066  1.00  0.00    -0.344 OA
HETATM   26  H1  UNL     1      18.295   4.107  52.849  1.00  0.00     0.219 HD
ENDBRANCH  23  25
ENDBRANCH  19  20
ENDBRANCH  18  19
ENDBRANCH   1  18
TORSDOF 6
ENDMDL
MODEL 9
REMARK VINA RESULT:      -7.5      7.214      9.082
REMARK  6 active torsions:
REMARK  status: ('A' for Active; 'I' for Inactive)
REMARK    1  A    between atoms: O1_1  and  C1_2 
REMARK    2  A    between atoms: C3_5  and  C4_6 
REMARK    3  A    between atoms: C4_6  and  O2_7 
REMARK    4  A    between atoms: O2_7  and  C5_8 
REMARK    5  A    between atoms: C8_11  and  N1_12 
REMARK    6  A    between atoms: C11_15  and  C12_16 
ROOT
HETATM    1  C5  UNL     1      27.756   6.095  48.393  1.00  0.00     0.069 A 
HETATM    2  C6  UNL     1      27.819   4.733  48.584  1.00  0.00     0.039 A 
HETATM    3  C7  UNL     1      26.794   4.092  49.260  1.00  0.00     0.034 A 
HETATM    4  C8  UNL     1      25.747   4.866  49.713  1.00  0.00     0.053 A 
HETATM    5  C18 UNL     1      25.688   6.218  49.523  1.00  0.00     0.034 A 
HETATM    6  C19 UNL     1      26.712   6.879  48.844  1.00  0.00     0.039 A 
ENDROOT
BRANCH   4   7
HETATM    7  N1  UNL     1      24.683   4.235  50.410  1.00  0.00    -0.269 N 
HETATM    8  C9  UNL     1      23.254   4.559  50.350  1.00  0.00     0.157 C 
HETATM    9  C10 UNL     1      22.693   3.132  50.325  1.00  0.00     0.084 C 
HETATM   10  C11 UNL     1      23.636   2.500  51.311  1.00  0.00     0.066 C 
HETATM   11  N2  UNL     1      24.738   3.170  51.308  1.00  0.00    -0.176 NA
BRANCH  10  12
HETATM   12  C12 UNL     1      23.297   1.320  52.107  1.00  0.00    -0.010 A 
HETATM   13  C13 UNL     1      24.250   0.648  52.858  1.00  0.00     0.013 A 
HETATM   14  C14 UNL     1      23.962  -0.469  53.621  1.00  0.00     0.001 A 
HETATM   15  C15 UNL     1      22.664  -0.914  53.620  1.00  0.00     0.000 A 
HETATM   16  C16 UNL     1      21.701  -0.258  52.882  1.00  0.00     0.001 A 
HETATM   17  C17 UNL     1      22.015   0.855  52.128  1.00  0.00     0.013 A 
ENDBRANCH  10  12
ENDBRANCH   4   7
BRANCH   1  18
HETATM   18  O2  UNL     1      28.776   6.711  47.724  1.00  0.00    -0.345 OA
BRANCH  18  19
HETATM   19  C4  UNL     1      29.894   7.336  48.283  1.00  0.00     0.242 C 
BRANCH  19  20
HETATM   20  C3  UNL     1      29.731   8.834  48.328  1.00  0.00     0.102 A 
HETATM   21  S1  UNL     1      30.693   9.934  47.128  1.00  0.00    -0.080 SA
HETATM   22  C2  UNL     1      29.936  11.489  47.844  1.00  0.00     0.109 A 
HETATM   23  C1  UNL     1      29.121  10.920  48.826  1.00  0.00     0.169 A 
HETATM   24  N3  UNL     1      29.000   9.619  49.087  1.00  0.00    -0.220 NA
BRANCH  23  25
HETATM   25  O1  UNL     1      28.293  11.655  49.702  1.00  0.00    -0.344 OA
HETATM   26  H1  UNL     1      27.593  12.256  49.246  1.00  0.00     0.219 HD
ENDBRANCH  23  25
ENDBRANCH  19  20
ENDBRANCH  18  19
ENDBRANCH   1  18
TORSDOF 6
ENDMDL
