MODEL 1
REMARK VINA RESULT:      -8.5      0.000      0.000
REMARK  3 active torsions:
REMARK  status: ('A' for Active; 'I' for Inactive)
REMARK    1  A    between atoms: C2_2  and  O1_3 
REMARK    2  A    between atoms: O1_3  and  C3_4 
REMARK    3  A    between atoms: C19_22  and  O2_23 
ROOT
HETATM    1  C3  UNL     1      24.467   0.823  52.363  1.00  0.00     0.080 C 
HETATM    2  C4  UNL     1      25.193   1.678  51.591  1.00  0.00     0.141 C 
HETATM    3  C5  UNL     1      24.574   2.573  50.620  1.00  0.00    -0.066 A 
HETATM    4  C6  UNL     1      23.831   3.285  49.811  1.00  0.00     0.094 A 
HETATM    5  C7  UNL     1      23.319   4.198  48.819  1.00  0.00    -0.006 C 
HETATM    6  C8  UNL     1      22.017   4.303  48.773  1.00  0.00     0.028 C 
HETATM    7  C9  UNL     1      21.221   3.553  49.723  1.00  0.00     0.050 A 
HETATM    8  N1  UNL     1      21.994   4.080  50.651  1.00  0.00    -0.290 N 
HETATM    9  C10 UNL     1      22.109   4.075  51.886  1.00  0.00     0.246 A 
HETATM   10  N2  UNL     1      21.104   3.273  52.258  1.00  0.00    -0.245 NA
HETATM   11  C11 UNL     1      20.230   2.651  51.466  1.00  0.00     0.041 A 
HETATM   12  C12 UNL     1      20.203   2.734  50.096  1.00  0.00    -0.010 A 
HETATM   13  C13 UNL     1      19.628   2.405  48.819  1.00  0.00     0.052 C 
HETATM   14  C14 UNL     1      19.195   1.710  51.843  1.00  0.00     0.064 C 
HETATM   15  C15 UNL     1      19.638   0.259  51.757  1.00  0.00     0.044 C 
HETATM   16  C16 UNL     1      20.805  -0.075  52.571  1.00  0.00    -0.057 A 
HETATM   17  C17 UNL     1      20.878  -0.809  53.752  1.00  0.00     0.010 A 
HETATM   18  C18 UNL     1      22.075  -1.011  54.410  1.00  0.00     0.038 A 
HETATM   19  C19 UNL     1      23.301  -0.550  54.030  1.00  0.00     0.077 A 
HETATM   20  C21 UNL     1      23.228   0.163  52.883  1.00  0.00     0.006 A 
HETATM   21  C22 UNL     1      22.072   0.386  52.197  1.00  0.00     0.019 A 
HETATM   22  S1  UNL     1      23.335   4.979  50.809  1.00  0.00    -0.105 SA
HETATM   23  C23 UNL     1      24.915   3.998  50.993  1.00  0.00     0.119 A 
ENDROOT
BRANCH   1  24
HETATM   24  O1  UNL     1      25.673   0.367  52.959  1.00  0.00    -0.380 OA
BRANCH  24  25
HETATM   25  C2  UNL     1      26.642  -0.184  52.086  1.00  0.00     0.164 C 
HETATM   26  C1  UNL     1      26.782  -1.670  52.385  1.00  0.00     0.033 C 
ENDBRANCH  24  25
ENDBRANCH   1  24
BRANCH  19  27
HETATM   27  O2  UNL     1      24.489  -0.753  54.689  1.00  0.00    -0.355 OA
HETATM   28  C20 UNL     1      24.460  -1.304  55.992  1.00  0.00     0.210 C 
ENDBRANCH  19  27
TORSDOF 3
ENDMDL
MODEL 2
REMARK VINA RESULT:      -8.2      1.552      4.281
REMARK  3 active torsions:
REMARK  status: ('A' for Active; 'I' for Inactive)
REMARK    1  A    between atoms: C2_2  and  O1_3 
REMARK    2  A    between atoms: O1_3  and  C3_4 
REMARK    3  A    between atoms: C19_22  and  O2_23 
ROOT
HETATM    1  C3  UNL     1      23.215   0.273  52.883  1.00  0.00     0.080 C 
HETATM    2  C4  UNL     1      21.882   0.108  53.107  1.00  0.00     0.141 C 
HETATM    3  C5  UNL     1      20.882   1.045  52.608  1.00  0.00    -0.066 A 
HETATM    4  C6  UNL     1      20.155   1.996  52.080  1.00  0.00     0.094 A 
HETATM    5  C7  UNL     1      19.092   2.866  51.641  1.00  0.00    -0.006 C 
HETATM    6  C8  UNL     1      19.452   3.824  50.827  1.00  0.00     0.028 C 
HETATM    7  C9  UNL     1      20.837   3.903  50.409  1.00  0.00     0.050 A 
HETATM    8  N1  UNL     1      20.717   2.632  50.081  1.00  0.00    -0.290 N 
HETATM    9  C10 UNL     1      21.399   1.728  49.575  1.00  0.00     0.246 A 
HETATM   10  N2  UNL     1      22.559   2.353  49.339  1.00  0.00    -0.245 NA
HETATM   11  C11 UNL     1      22.863   3.623  49.604  1.00  0.00     0.041 A 
HETATM   12  C12 UNL     1      22.014   4.538  50.175  1.00  0.00    -0.010 A 
HETATM   13  C13 UNL     1      21.716   5.863  50.652  1.00  0.00     0.052 C 
HETATM   14  C14 UNL     1      24.139   4.289  49.439  1.00  0.00     0.064 C 
HETATM   15  C15 UNL     1      24.992   4.280  50.697  1.00  0.00     0.044 C 
HETATM   16  C16 UNL     1      25.295   2.952  51.223  1.00  0.00    -0.057 A 
HETATM   17  C17 UNL     1      26.493   2.242  51.197  1.00  0.00     0.010 A 
HETATM   18  C18 UNL     1      26.598   0.972  51.727  1.00  0.00     0.038 A 
HETATM   19  C19 UNL     1      25.603   0.253  52.322  1.00  0.00     0.077 A 
HETATM   20  C21 UNL     1      24.440   0.942  52.346  1.00  0.00     0.006 A 
HETATM   21  C22 UNL     1      24.289   2.198  51.839  1.00  0.00     0.019 A 
HETATM   22  S1  UNL     1      19.675   1.395  50.205  1.00  0.00    -0.105 SA
HETATM   23  C23 UNL     1      19.937   0.298  51.695  1.00  0.00     0.119 A 
ENDROOT
BRANCH   1  24
HETATM   24  O1  UNL     1      23.466  -0.919  53.614  1.00  0.00    -0.380 OA
BRANCH  24  25
HETATM   25  C2  UNL     1      22.833  -1.034  54.875  1.00  0.00     0.164 C 
HETATM   26  C1  UNL     1      23.879  -1.395  55.919  1.00  0.00     0.033 C 
ENDBRANCH  24  25
ENDBRANCH   1  24
BRANCH  19  27
HETATM   27  O2  UNL     1      25.714  -1.011  52.846  1.00  0.00    -0.355 OA
HETATM   28  C20 UNL     1      26.926  -1.720  52.670  1.00  0.00     0.210 C 
ENDBRANCH  19  27
TORSDOF 3
ENDMDL
MODEL 3
REMARK VINA RESULT:      -8.2      1.677      3.343
REMARK  3 active torsions:
REMARK  status: ('A' for Active; 'I' for Inactive)
REMARK    1  A    between atoms: C2_2  and  O1_3 
REMARK    2  A    between atoms: O1_3  and  C3_4 
REMARK    3  A    between atoms: C19_22  and  O2_23 
ROOT
HETATM    1  C3  UNL     1      24.404   2.598  50.488  1.00  0.00     0.080 C 
HETATM    2  C4  UNL     1      23.875   3.385  49.510  1.00  0.00     0.141 C 
HETATM    3  C5  UNL     1      22.441   3.462  49.258  1.00  0.00    -0.066 A 
HETATM    4  C6  UNL     1      21.136   3.386  49.194  1.00  0.00     0.094 A 
HETATM    5  C7  UNL     1      19.740   3.524  48.858  1.00  0.00    -0.006 C 
HETATM    6  C8  UNL     1      18.906   2.940  49.678  1.00  0.00     0.028 C 
HETATM    7  C9  UNL     1      19.433   2.263  50.846  1.00  0.00     0.050 A 
HETATM    8  N1  UNL     1      20.082   3.382  51.092  1.00  0.00    -0.290 N 
HETATM    9  C10 UNL     1      20.847   3.851  51.949  1.00  0.00     0.246 A 
HETATM   10  N2  UNL     1      20.959   2.833  52.810  1.00  0.00    -0.245 NA
HETATM   11  C11 UNL     1      20.384   1.634  52.725  1.00  0.00     0.041 A 
HETATM   12  C12 UNL     1      19.549   1.225  51.715  1.00  0.00    -0.010 A 
HETATM   13  C13 UNL     1      18.697   0.245  51.095  1.00  0.00     0.052 C 
HETATM   14  C14 UNL     1      20.566   0.492  53.598  1.00  0.00     0.064 C 
HETATM   15  C15 UNL     1      21.637  -0.473  53.115  1.00  0.00     0.044 C 
HETATM   16  C16 UNL     1      22.961   0.118  52.943  1.00  0.00    -0.057 A 
HETATM   17  C17 UNL     1      24.106  -0.033  53.722  1.00  0.00     0.010 A 
HETATM   18  C18 UNL     1      25.282   0.627  53.423  1.00  0.00     0.038 A 
HETATM   19  C19 UNL     1      25.494   1.481  52.381  1.00  0.00     0.077 A 
HETATM   20  C21 UNL     1      24.382   1.627  51.625  1.00  0.00     0.006 A 
HETATM   21  C22 UNL     1      23.201   0.995  51.879  1.00  0.00     0.019 A 
HETATM   22  S1  UNL     1      20.403   4.823  50.420  1.00  0.00    -0.105 SA
HETATM   23  C23 UNL     1      21.996   4.894  49.445  1.00  0.00     0.119 A 
ENDROOT
BRANCH   1  24
HETATM   24  O1  UNL     1      25.702   3.040  50.113  1.00  0.00    -0.380 OA
BRANCH  24  25
HETATM   25  C2  UNL     1      25.800   4.357  49.604  1.00  0.00     0.164 C 
HETATM   26  C1  UNL     1      27.168   4.533  48.960  1.00  0.00     0.033 C 
ENDBRANCH  24  25
ENDBRANCH   1  24
BRANCH  19  27
HETATM   27  O2  UNL     1      26.666   2.134  52.089  1.00  0.00    -0.355 OA
HETATM   28  C20 UNL     1      27.722   2.092  53.029  1.00  0.00     0.210 C 
ENDBRANCH  19  27
TORSDOF 3
ENDMDL
MODEL 4
REMARK VINA RESULT:      -7.9      2.776      6.586
REMARK  3 active torsions:
REMARK  status: ('A' for Active; 'I' for Inactive)
REMARK    1  A    between atoms: C2_2  and  O1_3 
REMARK    2  A    between atoms: O1_3  and  C3_4 
REMARK    3  A    between atoms: C19_22  and  O2_23 
ROOT
HETATM    1  C3  UNL     1      22.457   3.265  49.052  1.00  0.00     0.080 C 
HETATM    2  C4  UNL     1      21.356   2.502  49.295  1.00  0.00     0.141 C 
HETATM    3  C5  UNL     1      21.345   1.442  50.297  1.00  0.00    -0.066 A 
HETATM    4  C6  UNL     1      21.542   0.547  51.230  1.00  0.00     0.094 A 
HETATM    5  C7  UNL     1      21.431  -0.527  52.187  1.00  0.00    -0.006 C 
HETATM    6  C8  UNL     1      22.453  -0.669  52.990  1.00  0.00     0.028 C 
HETATM    7  C9  UNL     1      23.557   0.262  52.888  1.00  0.00     0.050 A 
HETATM    8  N1  UNL     1      22.648   1.212  52.976  1.00  0.00    -0.290 N 
HETATM    9  C10 UNL     1      22.590   2.450  53.011  1.00  0.00     0.246 A 
HETATM   10  N2  UNL     1      23.881   2.793  52.933  1.00  0.00    -0.245 NA
HETATM   11  C11 UNL     1      24.930   1.978  52.836  1.00  0.00     0.041 A 
HETATM   12  C12 UNL     1      24.869   0.607  52.804  1.00  0.00    -0.010 A 
HETATM   13  C13 UNL     1      25.494  -0.688  52.742  1.00  0.00     0.052 C 
HETATM   14  C14 UNL     1      26.324   2.333  52.660  1.00  0.00     0.064 C 
HETATM   15  C15 UNL     1      26.762   2.356  51.204  1.00  0.00     0.044 C 
HETATM   16  C16 UNL     1      26.003   3.266  50.351  1.00  0.00    -0.057 A 
HETATM   17  C17 UNL     1      26.383   4.488  49.801  1.00  0.00     0.010 A 
HETATM   18  C18 UNL     1      25.520   5.238  49.026  1.00  0.00     0.038 A 
HETATM   19  C19 UNL     1      24.235   4.919  48.698  1.00  0.00     0.077 A 
HETATM   20  C21 UNL     1      23.867   3.733  49.233  1.00  0.00     0.006 A 
HETATM   21  C22 UNL     1      24.683   2.957  50.001  1.00  0.00     0.019 A 
HETATM   22  S1  UNL     1      21.039   1.413  52.992  1.00  0.00    -0.105 SA
HETATM   23  C23 UNL     1      20.279   1.760  51.320  1.00  0.00     0.119 A 
ENDROOT
BRANCH   1  24
HETATM   24  O1  UNL     1      21.725   3.968  48.057  1.00  0.00    -0.380 OA
BRANCH  24  25
HETATM   25  C2  UNL     1      21.206   3.197  46.990  1.00  0.00     0.164 C 
HETATM   26  C1  UNL     1      21.881   3.631  45.696  1.00  0.00     0.033 C 
ENDBRANCH  24  25
ENDBRANCH   1  24
BRANCH  19  27
HETATM   27  O2  UNL     1      23.381   5.669  47.928  1.00  0.00    -0.355 OA
HETATM   28  C20 UNL     1      23.378   7.075  48.085  1.00  0.00     0.210 C 
ENDBRANCH  19  27
TORSDOF 3
ENDMDL
MODEL 5
REMARK VINA RESULT:      -7.8      1.713      4.457
REMARK  3 active torsions:
REMARK  status: ('A' for Active; 'I' for Inactive)
REMARK    1  A    between atoms: C2_2  and  O1_3 
REMARK    2  A    between atoms: O1_3  and  C3_4 
REMARK    3  A    between atoms: C19_22  and  O2_23 
ROOT
HETATM    1  C3  UNL     1      22.400   1.651  52.819  1.00  0.00     0.080 C 
HETATM    2  C4  UNL     1      21.292   2.423  52.639  1.00  0.00     0.141 C 
HETATM    3  C5  UNL     1      21.299   3.618  51.805  1.00  0.00    -0.066 A 
HETATM    4  C6  UNL     1      21.516   4.646  51.023  1.00  0.00     0.094 A 
HETATM    5  C7  UNL     1      21.421   5.847  50.231  1.00  0.00    -0.006 C 
HETATM    6  C8  UNL     1      22.473   6.125  49.506  1.00  0.00     0.028 C 
HETATM    7  C9  UNL     1      23.595   5.208  49.522  1.00  0.00     0.050 A 
HETATM    8  N1  UNL     1      22.714   4.266  49.253  1.00  0.00    -0.290 N 
HETATM    9  C10 UNL     1      22.687   3.045  49.034  1.00  0.00     0.246 A 
HETATM   10  N2  UNL     1      23.982   2.717  49.121  1.00  0.00    -0.245 NA
HETATM   11  C11 UNL     1      25.006   3.528  49.387  1.00  0.00     0.041 A 
HETATM   12  C12 UNL     1      24.909   4.878  49.617  1.00  0.00    -0.010 A 
HETATM   13  C13 UNL     1      25.499   6.160  49.898  1.00  0.00     0.052 C 
HETATM   14  C14 UNL     1      26.398   3.176  49.575  1.00  0.00     0.064 C 
HETATM   15  C15 UNL     1      26.772   2.945  51.030  1.00  0.00     0.044 C 
HETATM   16  C16 UNL     1      25.998   1.905  51.703  1.00  0.00    -0.057 A 
HETATM   17  C17 UNL     1      26.384   0.622  52.085  1.00  0.00     0.010 A 
HETATM   18  C18 UNL     1      25.506  -0.249  52.700  1.00  0.00     0.038 A 
HETATM   19  C19 UNL     1      24.200  -0.005  53.009  1.00  0.00     0.077 A 
HETATM   20  C21 UNL     1      23.827   1.240  52.638  1.00  0.00     0.006 A 
HETATM   21  C22 UNL     1      24.657   2.135  52.032  1.00  0.00     0.019 A 
HETATM   22  S1  UNL     1      21.112   4.040  49.132  1.00  0.00    -0.105 SA
HETATM   23  C23 UNL     1      20.287   3.437  50.696  1.00  0.00     0.119 A 
ENDROOT
BRANCH   1  24
HETATM   24  O1  UNL     1      21.642   0.796  53.664  1.00  0.00    -0.380 OA
BRANCH  24  25
HETATM   25  C2  UNL     1      20.293   0.576  53.298  1.00  0.00     0.164 C 
HETATM   26  C1  UNL     1      19.933  -0.872  53.594  1.00  0.00     0.033 C 
ENDBRANCH  24  25
ENDBRANCH   1  24
BRANCH  19  27
HETATM   27  O2  UNL     1      23.332  -0.876  53.619  1.00  0.00    -0.355 OA
HETATM   28  C20 UNL     1      23.582  -1.264  54.956  1.00  0.00     0.210 C 
ENDBRANCH  19  27
TORSDOF 3
ENDMDL
MODEL 6
REMARK VINA RESULT:      -7.7      1.854      3.556
REMARK  3 active torsions:
REMARK  status: ('A' for Active; 'I' for Inactive)
REMARK    1  A    between atoms: C2_2  and  O1_3 
REMARK    2  A    between atoms: O1_3  and  C3_4 
REMARK    3  A    between atoms: C19_22  and  O2_23 
ROOT
HETATM    1  C3  UNL     1      21.555   0.330  52.041  1.00  0.00     0.080 C 
HETATM    2  C4  UNL     1      22.877   0.570  52.262  1.00  0.00     0.141 C 
HETATM    3  C5  UNL     1      23.620   1.589  51.530  1.00  0.00    -0.066 A 
HETATM    4  C6  UNL     1      24.099   2.540  50.769  1.00  0.00     0.094 A 
HETATM    5  C7  UNL     1      24.924   3.512  50.095  1.00  0.00    -0.006 C 
HETATM    6  C8  UNL     1      24.287   4.332  49.300  1.00  0.00     0.028 C 
HETATM    7  C9  UNL     1      22.845   4.231  49.200  1.00  0.00     0.050 A 
HETATM    8  N1  UNL     1      22.839   4.290  50.516  1.00  0.00    -0.290 N 
HETATM    9  C10 UNL     1      22.020   4.304  51.448  1.00  0.00     0.246 A 
HETATM   10  N2  UNL     1      20.853   4.238  50.796  1.00  0.00    -0.245 NA
HETATM   11  C11 UNL     1      20.666   4.169  49.478  1.00  0.00     0.041 A 
HETATM   12  C12 UNL     1      21.663   4.159  48.535  1.00  0.00    -0.010 A 
HETATM   13  C13 UNL     1      22.113   4.127  47.168  1.00  0.00     0.052 C 
HETATM   14  C14 UNL     1      19.417   4.006  48.761  1.00  0.00     0.064 C 
HETATM   15  C15 UNL     1      19.088   2.557  48.442  1.00  0.00     0.044 C 
HETATM   16  C16 UNL     1      19.003   1.678  49.606  1.00  0.00    -0.057 A 
HETATM   17  C17 UNL     1      17.881   1.113  50.208  1.00  0.00     0.010 A 
HETATM   18  C18 UNL     1      17.982   0.314  51.329  1.00  0.00     0.038 A 
HETATM   19  C19 UNL     1      19.128  -0.026  51.987  1.00  0.00     0.077 A 
HETATM   20  C21 UNL     1      20.216   0.524  51.401  1.00  0.00     0.006 A 
HETATM   21  C22 UNL     1      20.167   1.315  50.293  1.00  0.00     0.019 A 
HETATM   22  S1  UNL     1      23.856   4.280  51.780  1.00  0.00    -0.105 SA
HETATM   23  C23 UNL     1      24.164   2.592  52.521  1.00  0.00     0.119 A 
ENDROOT
BRANCH   1  24
HETATM   24  O1  UNL     1      21.594  -0.687  53.033  1.00  0.00    -0.380 OA
BRANCH  24  25
HETATM   25  C2  UNL     1      22.497  -0.491  54.105  1.00  0.00     0.164 C 
HETATM   26  C1  UNL     1      22.303  -1.608  55.121  1.00  0.00     0.033 C 
ENDBRANCH  24  25
ENDBRANCH   1  24
BRANCH  19  27
HETATM   27  O2  UNL     1      19.221  -0.820  53.102  1.00  0.00    -0.355 OA
HETATM   28  C20 UNL     1      18.127  -1.649  53.444  1.00  0.00     0.210 C 
ENDBRANCH  19  27
TORSDOF 3
ENDMDL
MODEL 7
REMARK VINA RESULT:      -7.5      2.922      5.526
REMARK  3 active torsions:
REMARK  status: ('A' for Active; 'I' for Inactive)
REMARK    1  A    between atoms: C2_2  and  O1_3 
REMARK    2  A    between atoms: O1_3  and  C3_4 
REMARK    3  A    between atoms: C19_22  and  O2_23 
ROOT
HETATM    1  C3  UNL     1      18.848   2.750  51.541  1.00  0.00     0.080 C 
HETATM    2  C4  UNL     1      19.096   3.961  50.971  1.00  0.00     0.141 C 
HETATM    3  C5  UNL     1      20.436   4.533  50.900  1.00  0.00    -0.066 A 
HETATM    4  C6  UNL     1      21.701   4.865  50.942  1.00  0.00     0.094 A 
HETATM    5  C7  UNL     1      22.981   5.521  50.832  1.00  0.00    -0.006 C 
HETATM    6  C8  UNL     1      24.011   4.801  51.191  1.00  0.00     0.028 C 
HETATM    7  C9  UNL     1      23.795   3.432  51.613  1.00  0.00     0.050 A 
HETATM    8  N1  UNL     1      23.121   3.287  50.491  1.00  0.00    -0.290 N 
HETATM    9  C10 UNL     1      22.515   2.398  49.872  1.00  0.00     0.246 A 
HETATM   10  N2  UNL     1      22.667   1.342  50.679  1.00  0.00    -0.245 NA
HETATM   11  C11 UNL     1      23.309   1.301  51.847  1.00  0.00     0.041 A 
HETATM   12  C12 UNL     1      23.948   2.363  52.437  1.00  0.00    -0.010 A 
HETATM   13  C13 UNL     1      24.730   2.939  53.499  1.00  0.00     0.052 C 
HETATM   14  C14 UNL     1      23.407   0.193  52.774  1.00  0.00     0.064 C 
HETATM   15  C15 UNL     1      22.342   0.217  53.859  1.00  0.00     0.044 C 
HETATM   16  C16 UNL     1      20.967   0.213  53.367  1.00  0.00    -0.057 A 
HETATM   17  C17 UNL     1      20.024  -0.812  53.384  1.00  0.00     0.010 A 
HETATM   18  C18 UNL     1      18.762  -0.649  52.849  1.00  0.00     0.038 A 
HETATM   19  C19 UNL     1      18.269   0.474  52.253  1.00  0.00     0.077 A 
HETATM   20  C21 UNL     1      19.185   1.469  52.237  1.00  0.00     0.006 A 
HETATM   21  C22 UNL     1      20.440   1.357  52.755  1.00  0.00     0.019 A 
HETATM   22  S1  UNL     1      22.551   4.155  49.245  1.00  0.00    -0.105 SA
HETATM   23  C23 UNL     1      20.791   4.749  49.447  1.00  0.00     0.119 A 
ENDROOT
BRANCH   1  24
HETATM   24  O1  UNL     1      17.469   2.913  51.239  1.00  0.00    -0.380 OA
BRANCH  24  25
HETATM   25  C2  UNL     1      16.873   4.133  51.638  1.00  0.00     0.164 C 
HETATM   26  C1  UNL     1      15.615   3.827  52.439  1.00  0.00     0.033 C 
ENDBRANCH  24  25
ENDBRANCH   1  24
BRANCH  19  27
HETATM   27  O2  UNL     1      17.013   0.630  51.722  1.00  0.00    -0.355 OA
HETATM   28  C20 UNL     1      15.925  -0.034  52.336  1.00  0.00     0.210 C 
ENDBRANCH  19  27
TORSDOF 3
ENDMDL
MODEL 8
REMARK VINA RESULT:      -7.4      2.016      3.154
REMARK  3 active torsions:
REMARK  status: ('A' for Active; 'I' for Inactive)
REMARK    1  A    between atoms: C2_2  and  O1_3 
REMARK    2  A    between atoms: O1_3  and  C3_4 
REMARK    3  A    between atoms: C19_22  and  O2_23 
ROOT
HETATM    1  C3  UNL     1      24.640   2.974  51.019  1.00  0.00     0.080 C 
HETATM    2  C4  UNL     1      25.462   4.033  50.784  1.00  0.00     0.141 C 
HETATM    3  C5  UNL     1      25.181   5.029  49.756  1.00  0.00    -0.066 A 
HETATM    4  C6  UNL     1      24.752   5.803  48.792  1.00  0.00     0.094 A 
HETATM    5  C7  UNL     1      24.571   6.831  47.797  1.00  0.00    -0.006 C 
HETATM    6  C8  UNL     1      23.425   6.806  47.168  1.00  0.00     0.028 C 
HETATM    7  C9  UNL     1      22.444   5.808  47.541  1.00  0.00     0.050 A 
HETATM    8  N1  UNL     1      22.622   6.224  48.778  1.00  0.00    -0.290 N 
HETATM    9  C10 UNL     1      22.184   5.992  49.915  1.00  0.00     0.246 A 
HETATM   10  N2  UNL     1      21.282   5.033  49.677  1.00  0.00    -0.245 NA
HETATM   11  C11 UNL     1      20.971   4.488  48.501  1.00  0.00     0.041 A 
HETATM   12  C12 UNL     1      21.533   4.831  47.296  1.00  0.00    -0.010 A 
HETATM   13  C13 UNL     1      21.645   4.696  45.868  1.00  0.00     0.052 C 
HETATM   14  C14 UNL     1      20.065   3.389  48.237  1.00  0.00     0.064 C 
HETATM   15  C15 UNL     1      20.756   2.036  48.186  1.00  0.00     0.044 C 
HETATM   16  C16 UNL     1      21.486   1.675  49.398  1.00  0.00    -0.057 A 
HETATM   17  C17 UNL     1      21.167   0.739  50.378  1.00  0.00     0.010 A 
HETATM   18  C18 UNL     1      21.969   0.539  51.483  1.00  0.00     0.038 A 
HETATM   19  C19 UNL     1      23.132   1.191  51.773  1.00  0.00     0.077 A 
HETATM   20  C21 UNL     1      23.441   2.100  50.821  1.00  0.00     0.006 A 
HETATM   21  C22 UNL     1      22.683   2.330  49.713  1.00  0.00     0.019 A 
HETATM   22  S1  UNL     1      23.572   7.210  49.648  1.00  0.00    -0.105 SA
HETATM   23  C23 UNL     1      25.060   6.382  50.418  1.00  0.00     0.119 A 
ENDROOT
BRANCH   1  24
HETATM   24  O1  UNL     1      25.524   2.540  52.044  1.00  0.00    -0.380 OA
BRANCH  24  25
HETATM   25  C2  UNL     1      26.863   2.291  51.661  1.00  0.00     0.164 C 
HETATM   26  C1  UNL     1      27.547   1.488  52.758  1.00  0.00     0.033 C 
ENDBRANCH  24  25
ENDBRANCH   1  24
BRANCH  19  27
HETATM   27  O2  UNL     1      23.925   0.989  52.875  1.00  0.00    -0.355 OA
HETATM   28  C20 UNL     1      23.948  -0.292  53.474  1.00  0.00     0.210 C 
ENDBRANCH  19  27
TORSDOF 3
ENDMDL
MODEL 9
REMARK VINA RESULT:      -7.2      8.020     11.178
REMARK  3 active torsions:
REMARK  status: ('A' for Active; 'I' for Inactive)
REMARK    1  A    between atoms: C2_2  and  O1_3 
REMARK    2  A    between atoms: O1_3  and  C3_4 
REMARK    3  A    between atoms: C19_22  and  O2_23 
ROOT
HETATM    1  C3  UNL     1      27.987   6.957  48.135  1.00  0.00     0.080 C 
HETATM    2  C4  UNL     1      28.961   6.038  47.887  1.00  0.00     0.141 C 
HETATM    3  C5  UNL     1      30.335   6.417  47.580  1.00  0.00    -0.066 A 
HETATM    4  C6  UNL     1      31.497   6.962  47.323  1.00  0.00     0.094 A 
HETATM    5  C7  UNL     1      32.876   7.232  47.001  1.00  0.00    -0.006 C 
HETATM    6  C8  UNL     1      33.241   8.483  47.104  1.00  0.00     0.028 C 
HETATM    7  C9  UNL     1      32.273   9.458  47.563  1.00  0.00     0.050 A 
HETATM    8  N1  UNL     1      32.064   8.642  48.576  1.00  0.00    -0.290 N 
HETATM    9  C10 UNL     1      31.380   8.590  49.610  1.00  0.00     0.246 A 
HETATM   10  N2  UNL     1      30.718   9.752  49.565  1.00  0.00    -0.245 NA
HETATM   11  C11 UNL     1      30.797  10.693  48.625  1.00  0.00     0.041 A 
HETATM   12  C12 UNL     1      31.599  10.636  47.512  1.00  0.00    -0.010 A 
HETATM   13  C13 UNL     1      32.118  11.203  46.295  1.00  0.00     0.052 C 
HETATM   14  C14 UNL     1      30.022  11.913  48.514  1.00  0.00     0.064 C 
HETATM   15  C15 UNL     1      28.785  11.765  47.643  1.00  0.00     0.044 C 
HETATM   16  C16 UNL     1      27.850  10.730  48.078  1.00  0.00    -0.057 A 
HETATM   17  C17 UNL     1      26.603  10.863  48.683  1.00  0.00     0.010 A 
HETATM   18  C18 UNL     1      25.853   9.764  49.053  1.00  0.00     0.038 A 
HETATM   19  C19 UNL     1      26.197   8.453  48.895  1.00  0.00     0.077 A 
HETATM   20  C21 UNL     1      27.408   8.326  48.307  1.00  0.00     0.006 A 
HETATM   21  C22 UNL     1      28.182   9.380  47.922  1.00  0.00     0.019 A 
HETATM   22  S1  UNL     1      32.459   7.158  49.096  1.00  0.00    -0.105 SA
HETATM   23  C23 UNL     1      31.245   5.816  48.628  1.00  0.00     0.119 A 
ENDROOT
BRANCH   1  24
HETATM   24  O1  UNL     1      27.060   5.896  48.318  1.00  0.00    -0.380 OA
BRANCH  24  25
HETATM   25  C2  UNL     1      27.588   4.664  48.769  1.00  0.00     0.164 C 
HETATM   26  C1  UNL     1      26.485   3.881  49.465  1.00  0.00     0.033 C 
ENDBRANCH  24  25
ENDBRANCH   1  24
BRANCH  19  27
HETATM   27  O2  UNL     1      25.447   7.364  49.266  1.00  0.00    -0.355 OA
HETATM   28  C20 UNL     1      24.806   7.375  50.526  1.00  0.00     0.210 C 
ENDBRANCH  19  27
TORSDOF 3
ENDMDL
