MODEL 1
REMARK VINA RESULT:      -8.5      0.000      0.000
REMARK  3 active torsions:
REMARK  status: ('A' for Active; 'I' for Inactive)
REMARK    1  A    between atoms: N1_1  and  C1_2 
REMARK    2  A    between atoms: C6_7  and  N2_8 
REMARK    3  A    between atoms: N2_8  and  C7_9 
ROOT
HETATM    1  N2  UNL     1      24.546   1.592  52.920  1.00  0.00    -0.402 N 
HETATM    2  H11 UNL     1      24.477   0.911  53.683  1.00  0.00     0.154 HD
ENDROOT
BRANCH   1   3
HETATM    3  C6  UNL     1      25.792   1.916  52.393  1.00  0.00     0.105 C 
HETATM    4  C5  UNL     1      26.471   0.843  51.580  1.00  0.00     0.053 C 
HETATM    5  C4  UNL     1      26.797  -0.341  52.449  1.00  0.00    -0.028 C 
HETATM    6  C3  UNL     1      27.580  -0.646  53.476  1.00  0.00    -0.026 C 
HETATM    7  C2  UNL     1      28.560   0.106  54.289  1.00  0.00     0.090 C 
HETATM    8  C1  UNL     1      28.980   1.397  53.667  1.00  0.00     0.356 C 
HETATM    9  O1  UNL     1      28.007   2.122  53.059  1.00  0.00    -0.355 OA
HETATM   10  C17 UNL     1      26.756   2.103  53.600  1.00  0.00     0.195 C 
BRANCH   8  11
HETATM   11  N1  UNL     1      29.719   2.170  54.634  1.00  0.00     0.107 N 
HETATM   12  H1  UNL     1      29.192   3.057  54.794  1.00  0.00     0.316 HD
HETATM   13  H2  UNL     1      30.669   2.363  54.265  1.00  0.00     0.316 HD
ENDBRANCH   8  11
ENDBRANCH   1   3
BRANCH   1  14
HETATM   14  C7  UNL     1      23.387   2.353  52.648  1.00  0.00     0.155 A 
HETATM   15  C8  UNL     1      23.518   2.992  51.263  1.00  0.00     0.120 A 
HETATM   16  N3  UNL     1      22.590   2.656  50.437  1.00  0.00    -0.255 NA
HETATM   17  C9  UNL     1      21.704   1.768  51.108  1.00  0.00     0.106 A 
HETATM   18  S1  UNL     1      20.242   0.820  50.914  1.00  0.00    -0.074 SA
HETATM   19  C12 UNL     1      22.140   1.564  52.450  1.00  0.00     0.012 A 
HETATM   20  C10 UNL     1      20.215   0.165  52.596  1.00  0.00    -0.008 A 
HETATM   21  C11 UNL     1      21.339   0.727  53.191  1.00  0.00    -0.033 A 
HETATM   22  C16 UNL     1      19.301  -0.736  53.284  1.00  0.00     0.046 C 
HETATM   23  C13 UNL     1      21.266   0.190  54.571  1.00  0.00     0.040 C 
HETATM   24  C14 UNL     1      21.399  -1.315  54.456  1.00  0.00     0.005 C 
HETATM   25  C15 UNL     1      20.020  -1.803  54.033  1.00  0.00     0.005 C 
ENDBRANCH   1  14
TORSDOF 3
ENDMDL
MODEL 2
REMARK VINA RESULT:      -8.5      1.759      3.275
REMARK  3 active torsions:
REMARK  status: ('A' for Active; 'I' for Inactive)
REMARK    1  A    between atoms: N1_1  and  C1_2 
REMARK    2  A    between atoms: C6_7  and  N2_8 
REMARK    3  A    between atoms: N2_8  and  C7_9 
ROOT
HETATM    1  N2  UNL     1      24.775  -0.228  54.202  1.00  0.00    -0.402 N 
HETATM    2  H11 UNL     1      24.917  -0.275  55.217  1.00  0.00     0.154 HD
ENDROOT
BRANCH   1   3
HETATM    3  C6  UNL     1      25.563   0.623  53.433  1.00  0.00     0.105 C 
HETATM    4  C5  UNL     1      26.253   0.001  52.247  1.00  0.00     0.053 C 
HETATM    5  C4  UNL     1      27.255  -1.023  52.704  1.00  0.00    -0.028 C 
HETATM    6  C3  UNL     1      28.397  -1.078  53.377  1.00  0.00    -0.026 C 
HETATM    7  C2  UNL     1      29.263  -0.072  54.029  1.00  0.00     0.090 C 
HETATM    8  C1  UNL     1      28.957   1.330  53.617  1.00  0.00     0.356 C 
HETATM    9  O1  UNL     1      27.644   1.650  53.482  1.00  0.00    -0.355 OA
HETATM   10  C17 UNL     1      26.750   1.072  54.333  1.00  0.00     0.195 C 
BRANCH   8  11
HETATM   11  N1  UNL     1      29.658   2.243  54.485  1.00  0.00     0.107 N 
HETATM   12  H1  UNL     1      28.960   2.640  55.151  1.00  0.00     0.316 HD
HETATM   13  H2  UNL     1      30.096   2.991  53.915  1.00  0.00     0.316 HD
ENDBRANCH   8  11
ENDBRANCH   1   3
BRANCH   1  14
HETATM   14  C7  UNL     1      23.601  -0.833  53.702  1.00  0.00     0.155 A 
HETATM   15  C8  UNL     1      22.839  -1.485  54.859  1.00  0.00     0.120 A 
HETATM   16  N3  UNL     1      21.646  -1.034  55.027  1.00  0.00    -0.255 NA
HETATM   17  C9  UNL     1      21.409  -0.038  54.039  1.00  0.00     0.106 A 
HETATM   18  S1  UNL     1      20.213   1.090  53.432  1.00  0.00    -0.074 SA
HETATM   19  C12 UNL     1      22.559   0.110  53.209  1.00  0.00     0.012 A 
HETATM   20  C10 UNL     1      21.231   1.746  52.093  1.00  0.00    -0.008 A 
HETATM   21  C11 UNL     1      22.426   1.045  52.209  1.00  0.00    -0.033 A 
HETATM   22  C16 UNL     1      20.982   2.759  51.077  1.00  0.00     0.046 C 
HETATM   23  C13 UNL     1      23.220   1.588  51.082  1.00  0.00     0.040 C 
HETATM   24  C14 UNL     1      23.418   3.063  51.366  1.00  0.00     0.005 C 
HETATM   25  C15 UNL     1      22.108   3.725  50.958  1.00  0.00     0.005 C 
ENDBRANCH   1  14
TORSDOF 3
ENDMDL
MODEL 3
REMARK VINA RESULT:      -8.3      2.054      2.723
REMARK  3 active torsions:
REMARK  status: ('A' for Active; 'I' for Inactive)
REMARK    1  A    between atoms: N1_1  and  C1_2 
REMARK    2  A    between atoms: C6_7  and  N2_8 
REMARK    3  A    between atoms: N2_8  and  C7_9 
ROOT
HETATM    1  N2  UNL     1      26.442   1.675  51.740  1.00  0.00    -0.402 N 
HETATM    2  H11 UNL     1      27.079   1.505  50.955  1.00  0.00     0.154 HD
ENDROOT
BRANCH   1   3
HETATM    3  C6  UNL     1      26.335   0.734  52.759  1.00  0.00     0.105 C 
HETATM    4  C5  UNL     1      27.011   1.082  54.061  1.00  0.00     0.053 C 
HETATM    5  C4  UNL     1      28.500   1.165  53.868  1.00  0.00    -0.028 C 
HETATM    6  C3  UNL     1      29.519   0.369  53.571  1.00  0.00    -0.026 C 
HETATM    7  C2  UNL     1      29.652  -1.073  53.270  1.00  0.00     0.090 C 
HETATM    8  C1  UNL     1      28.449  -1.871  53.651  1.00  0.00     0.356 C 
HETATM    9  O1  UNL     1      27.241  -1.304  53.402  1.00  0.00    -0.355 OA
HETATM   10  C17 UNL     1      27.111  -0.529  52.288  1.00  0.00     0.195 C 
BRANCH   8  11
HETATM   11  N1  UNL     1      28.561  -3.195  53.090  1.00  0.00     0.107 N 
HETATM   12  H1  UNL     1      29.536  -3.302  52.735  1.00  0.00     0.316 HD
HETATM   13  H2  UNL     1      27.872  -3.302  52.323  1.00  0.00     0.316 HD
ENDBRANCH   8  11
ENDBRANCH   1   3
BRANCH   1  14
HETATM   14  C7  UNL     1      25.519   2.733  51.584  1.00  0.00     0.155 A 
HETATM   15  C8  UNL     1      25.814   3.469  50.274  1.00  0.00     0.120 A 
HETATM   16  N3  UNL     1      24.834   3.477  49.440  1.00  0.00    -0.255 NA
HETATM   17  C9  UNL     1      23.747   2.776  50.032  1.00  0.00     0.106 A 
HETATM   18  S1  UNL     1      22.092   2.262  49.772  1.00  0.00    -0.074 SA
HETATM   19  C12 UNL     1      24.111   2.317  51.332  1.00  0.00     0.012 A 
HETATM   20  C10 UNL     1      21.890   1.450  51.373  1.00  0.00    -0.008 A 
HETATM   21  C11 UNL     1      23.119   1.635  51.997  1.00  0.00    -0.033 A 
HETATM   22  C16 UNL     1      20.773   0.741  51.980  1.00  0.00     0.046 C 
HETATM   23  C13 UNL     1      22.905   0.983  53.310  1.00  0.00     0.040 C 
HETATM   24  C14 UNL     1      22.647  -0.483  53.027  1.00  0.00     0.005 C 
HETATM   25  C15 UNL     1      21.190  -0.551  52.589  1.00  0.00     0.005 C 
ENDBRANCH   1  14
TORSDOF 3
ENDMDL
MODEL 4
REMARK VINA RESULT:      -8.1      3.581      5.612
REMARK  3 active torsions:
REMARK  status: ('A' for Active; 'I' for Inactive)
REMARK    1  A    between atoms: N1_1  and  C1_2 
REMARK    2  A    between atoms: C6_7  and  N2_8 
REMARK    3  A    between atoms: N2_8  and  C7_9 
ROOT
HETATM    1  N2  UNL     1      24.452   5.233  51.782  1.00  0.00    -0.402 N 
HETATM    2  H11 UNL     1      25.284   5.676  52.186  1.00  0.00     0.154 HD
ENDROOT
BRANCH   1   3
HETATM    3  C6  UNL     1      24.085   5.519  50.471  1.00  0.00     0.105 C 
HETATM    4  C5  UNL     1      24.445   4.483  49.438  1.00  0.00     0.053 C 
HETATM    5  C4  UNL     1      25.940   4.359  49.323  1.00  0.00    -0.028 C 
HETATM    6  C3  UNL     1      26.980   5.084  48.934  1.00  0.00    -0.026 C 
HETATM    7  C2  UNL     1      27.144   6.452  48.396  1.00  0.00     0.090 C 
HETATM    8  C1  UNL     1      25.865   7.058  47.918  1.00  0.00     0.356 C 
HETATM    9  O1  UNL     1      24.764   6.829  48.678  1.00  0.00    -0.355 OA
HETATM   10  C17 UNL     1      24.918   6.757  50.031  1.00  0.00     0.195 C 
BRANCH   8  11
HETATM   11  N1  UNL     1      26.073   8.461  47.661  1.00  0.00     0.107 N 
HETATM   12  H1  UNL     1      26.447   8.550  46.691  1.00  0.00     0.316 HD
HETATM   13  H2  UNL     1      26.743   8.842  48.355  1.00  0.00     0.316 HD
ENDBRANCH   8  11
ENDBRANCH   1   3
BRANCH   1  14
HETATM   14  C7  UNL     1      23.588   4.575  52.685  1.00  0.00     0.155 A 
HETATM   15  C8  UNL     1      22.140   4.777  52.234  1.00  0.00     0.120 A 
HETATM   16  N3  UNL     1      21.506   3.685  51.987  1.00  0.00    -0.255 NA
HETATM   17  C9  UNL     1      22.391   2.598  52.230  1.00  0.00     0.106 A 
HETATM   18  S1  UNL     1      22.517   0.850  52.211  1.00  0.00    -0.074 SA
HETATM   19  C12 UNL     1      23.658   3.088  52.663  1.00  0.00     0.012 A 
HETATM   20  C10 UNL     1      24.231   0.776  52.774  1.00  0.00    -0.008 A 
HETATM   21  C11 UNL     1      24.586   2.110  52.938  1.00  0.00    -0.033 A 
HETATM   22  C16 UNL     1      25.132  -0.338  53.031  1.00  0.00     0.046 C 
HETATM   23  C13 UNL     1      25.982   2.006  53.426  1.00  0.00     0.040 C 
HETATM   24  C14 UNL     1      26.780   1.358  52.312  1.00  0.00     0.005 C 
HETATM   25  C15 UNL     1      26.474  -0.130  52.420  1.00  0.00     0.005 C 
ENDBRANCH   1  14
TORSDOF 3
ENDMDL
MODEL 5
REMARK VINA RESULT:      -8.1      1.711      4.063
REMARK  3 active torsions:
REMARK  status: ('A' for Active; 'I' for Inactive)
REMARK    1  A    between atoms: N1_1  and  C1_2 
REMARK    2  A    between atoms: C6_7  and  N2_8 
REMARK    3  A    between atoms: N2_8  and  C7_9 
ROOT
HETATM    1  N2  UNL     1      24.607   1.635  52.928  1.00  0.00    -0.402 N 
HETATM    2  H11 UNL     1      24.342   1.887  53.886  1.00  0.00     0.154 HD
ENDROOT
BRANCH   1   3
HETATM    3  C6  UNL     1      25.864   1.984  52.443  1.00  0.00     0.105 C 
HETATM    4  C5  UNL     1      26.563   0.948  51.602  1.00  0.00     0.053 C 
HETATM    5  C4  UNL     1      26.875  -0.271  52.427  1.00  0.00    -0.028 C 
HETATM    6  C3  UNL     1      27.635  -0.617  53.457  1.00  0.00    -0.026 C 
HETATM    7  C2  UNL     1      28.594   0.102  54.323  1.00  0.00     0.090 C 
HETATM    8  C1  UNL     1      29.023   1.419  53.766  1.00  0.00     0.356 C 
HETATM    9  O1  UNL     1      28.062   2.167  53.167  1.00  0.00    -0.355 OA
HETATM   10  C17 UNL     1      26.799   2.122  53.678  1.00  0.00     0.195 C 
BRANCH   8  11
HETATM   11  N1  UNL     1      29.738   2.153  54.781  1.00  0.00     0.107 N 
HETATM   12  H1  UNL     1      29.942   3.101  54.396  1.00  0.00     0.316 HD
HETATM   13  H2  UNL     1      30.614   1.650  55.015  1.00  0.00     0.316 HD
ENDBRANCH   8  11
ENDBRANCH   1   3
BRANCH   1  14
HETATM   14  C7  UNL     1      23.565   1.191  52.083  1.00  0.00     0.155 A 
HETATM   15  C8  UNL     1      22.341   0.845  52.935  1.00  0.00     0.120 A 
HETATM   16  N3  UNL     1      21.286   1.522  52.644  1.00  0.00    -0.255 NA
HETATM   17  C9  UNL     1      21.611   2.405  51.577  1.00  0.00     0.106 A 
HETATM   18  S1  UNL     1      20.957   3.640  50.519  1.00  0.00    -0.074 SA
HETATM   19  C12 UNL     1      22.975   2.233  51.198  1.00  0.00     0.012 A 
HETATM   20  C10 UNL     1      22.478   3.920  49.588  1.00  0.00    -0.008 A 
HETATM   21  C11 UNL     1      23.386   3.036  50.160  1.00  0.00    -0.033 A 
HETATM   22  C16 UNL     1      22.806   4.817  48.489  1.00  0.00     0.046 C 
HETATM   23  C13 UNL     1      24.607   3.273  49.354  1.00  0.00     0.040 C 
HETATM   24  C14 UNL     1      25.012   4.713  49.599  1.00  0.00     0.005 C 
HETATM   25  C15 UNL     1      24.087   5.540  48.716  1.00  0.00     0.005 C 
ENDBRANCH   1  14
TORSDOF 3
ENDMDL
MODEL 6
REMARK VINA RESULT:      -7.9      2.871      5.108
REMARK  3 active torsions:
REMARK  status: ('A' for Active; 'I' for Inactive)
REMARK    1  A    between atoms: N1_1  and  C1_2 
REMARK    2  A    between atoms: C6_7  and  N2_8 
REMARK    3  A    between atoms: N2_8  and  C7_9 
ROOT
HETATM    1  N2  UNL     1      25.422   2.355  51.782  1.00  0.00    -0.402 N 
HETATM    2  H11 UNL     1      25.915   3.002  52.407  1.00  0.00     0.154 HD
ENDROOT
BRANCH   1   3
HETATM    3  C6  UNL     1      24.339   2.808  51.034  1.00  0.00     0.105 C 
HETATM    4  C5  UNL     1      24.641   3.245  49.624  1.00  0.00     0.053 C 
HETATM    5  C4  UNL     1      25.539   4.452  49.633  1.00  0.00    -0.028 C 
HETATM    6  C3  UNL     1      25.505   5.725  50.004  1.00  0.00    -0.026 C 
HETATM    7  C2  UNL     1      24.482   6.595  50.624  1.00  0.00     0.090 C 
HETATM    8  C1  UNL     1      23.105   6.019  50.573  1.00  0.00     0.356 C 
HETATM    9  O1  UNL     1      22.995   4.686  50.805  1.00  0.00    -0.355 OA
HETATM   10  C17 UNL     1      23.843   4.118  51.709  1.00  0.00     0.195 C 
BRANCH   8  11
HETATM   11  N1  UNL     1      22.234   6.798  51.418  1.00  0.00     0.107 N 
HETATM   12  H1  UNL     1      21.931   6.184  52.205  1.00  0.00     0.316 HD
HETATM   13  H2  UNL     1      21.419   7.123  50.865  1.00  0.00     0.316 HD
ENDBRANCH   8  11
ENDBRANCH   1   3
BRANCH   1  14
HETATM   14  C7  UNL     1      25.715   0.982  51.939  1.00  0.00     0.155 A 
HETATM   15  C8  UNL     1      27.099   0.834  52.576  1.00  0.00     0.120 A 
HETATM   16  N3  UNL     1      27.100   0.201  53.697  1.00  0.00    -0.255 NA
HETATM   17  C9  UNL     1      25.759  -0.175  53.990  1.00  0.00     0.106 A 
HETATM   18  S1  UNL     1      24.750  -1.004  55.160  1.00  0.00    -0.074 SA
HETATM   19  C12 UNL     1      24.889   0.267  52.950  1.00  0.00     0.012 A 
HETATM   20  C10 UNL     1      23.195  -0.765  54.274  1.00  0.00    -0.008 A 
HETATM   21  C11 UNL     1      23.566  -0.061  53.134  1.00  0.00    -0.033 A 
HETATM   22  C16 UNL     1      21.826  -1.160  54.571  1.00  0.00     0.046 C 
HETATM   23  C13 UNL     1      22.274   0.090  52.424  1.00  0.00     0.040 C 
HETATM   24  C14 UNL     1      21.384   0.926  53.321  1.00  0.00     0.005 C 
HETATM   25  C15 UNL     1      20.862  -0.042  54.375  1.00  0.00     0.005 C 
ENDBRANCH   1  14
TORSDOF 3
ENDMDL
MODEL 7
REMARK VINA RESULT:      -7.9      2.949      5.199
REMARK  3 active torsions:
REMARK  status: ('A' for Active; 'I' for Inactive)
REMARK    1  A    between atoms: N1_1  and  C1_2 
REMARK    2  A    between atoms: C6_7  and  N2_8 
REMARK    3  A    between atoms: N2_8  and  C7_9 
ROOT
HETATM    1  N2  UNL     1      21.272   2.413  50.926  1.00  0.00    -0.402 N 
HETATM    2  H11 UNL     1      21.537   1.635  50.312  1.00  0.00     0.154 HD
ENDROOT
BRANCH   1   3
HETATM    3  C6  UNL     1      21.401   3.723  50.475  1.00  0.00     0.105 C 
HETATM    4  C5  UNL     1      22.017   3.900  49.111  1.00  0.00     0.053 C 
HETATM    5  C4  UNL     1      23.445   3.430  49.118  1.00  0.00    -0.028 C 
HETATM    6  C3  UNL     1      24.607   3.759  49.667  1.00  0.00    -0.026 C 
HETATM    7  C2  UNL     1      25.048   4.825  50.592  1.00  0.00     0.090 C 
HETATM    8  C1  UNL     1      24.062   5.938  50.729  1.00  0.00     0.356 C 
HETATM    9  O1  UNL     1      22.753   5.585  50.784  1.00  0.00    -0.355 OA
HETATM   10  C17 UNL     1      22.426   4.422  51.415  1.00  0.00     0.195 C 
BRANCH   8  11
HETATM   11  N1  UNL     1      24.451   6.784  51.830  1.00  0.00     0.107 N 
HETATM   12  H1  UNL     1      24.209   6.280  52.711  1.00  0.00     0.316 HD
HETATM   13  H2  UNL     1      23.943   7.686  51.766  1.00  0.00     0.316 HD
ENDBRANCH   8  11
ENDBRANCH   1   3
BRANCH   1  14
HETATM   14  C7  UNL     1      21.051   2.096  52.285  1.00  0.00     0.155 A 
HETATM   15  C8  UNL     1      19.708   1.374  52.421  1.00  0.00     0.120 A 
HETATM   16  N3  UNL     1      19.792   0.194  52.928  1.00  0.00    -0.255 NA
HETATM   17  C9  UNL     1      21.161  -0.066  53.214  1.00  0.00     0.106 A 
HETATM   18  S1  UNL     1      22.263  -1.262  53.868  1.00  0.00    -0.074 SA
HETATM   19  C12 UNL     1      21.958   1.060  52.851  1.00  0.00     0.012 A 
HETATM   20  C10 UNL     1      23.761  -0.275  53.661  1.00  0.00    -0.008 A 
HETATM   21  C11 UNL     1      23.303   0.913  53.102  1.00  0.00    -0.033 A 
HETATM   22  C16 UNL     1      25.160  -0.540  53.964  1.00  0.00     0.046 C 
HETATM   23  C13 UNL     1      24.550   1.702  52.974  1.00  0.00     0.040 C 
HETATM   24  C14 UNL     1      25.442   0.947  52.009  1.00  0.00     0.005 C 
HETATM   25  C15 UNL     1      26.059  -0.175  52.835  1.00  0.00     0.005 C 
ENDBRANCH   1  14
TORSDOF 3
ENDMDL
MODEL 8
REMARK VINA RESULT:      -7.9      2.695      5.070
REMARK  3 active torsions:
REMARK  status: ('A' for Active; 'I' for Inactive)
REMARK    1  A    between atoms: N1_1  and  C1_2 
REMARK    2  A    between atoms: C6_7  and  N2_8 
REMARK    3  A    between atoms: N2_8  and  C7_9 
ROOT
HETATM    1  N2  UNL     1      25.504   1.282  52.434  1.00  0.00    -0.402 N 
HETATM    2  H11 UNL     1      26.277   1.883  52.129  1.00  0.00     0.154 HD
ENDROOT
BRANCH   1   3
HETATM    3  C6  UNL     1      25.738   0.275  53.365  1.00  0.00     0.105 C 
HETATM    4  C5  UNL     1      26.557   0.660  54.570  1.00  0.00     0.053 C 
HETATM    5  C4  UNL     1      27.955   1.030  54.153  1.00  0.00    -0.028 C 
HETATM    6  C3  UNL     1      29.029   0.458  53.625  1.00  0.00    -0.026 C 
HETATM    7  C2  UNL     1      29.355  -0.913  53.175  1.00  0.00     0.090 C 
HETATM    8  C1  UNL     1      28.391  -1.943  53.665  1.00  0.00     0.356 C 
HETATM    9  O1  UNL     1      27.079  -1.596  53.664  1.00  0.00    -0.355 OA
HETATM   10  C17 UNL     1      26.627  -0.790  52.662  1.00  0.00     0.195 C 
BRANCH   8  11
HETATM   11  N1  UNL     1      28.632  -3.185  52.973  1.00  0.00     0.107 N 
HETATM   12  H1  UNL     1      28.945  -3.882  53.683  1.00  0.00     0.316 HD
HETATM   13  H2  UNL     1      29.360  -3.038  52.249  1.00  0.00     0.316 HD
ENDBRANCH   8  11
ENDBRANCH   1   3
BRANCH   1  14
HETATM   14  C7  UNL     1      24.314   1.352  51.675  1.00  0.00     0.155 A 
HETATM   15  C8  UNL     1      23.111   1.268  52.617  1.00  0.00     0.120 A 
HETATM   16  N3  UNL     1      22.326   2.286  52.565  1.00  0.00    -0.255 NA
HETATM   17  C9  UNL     1      22.850   3.196  51.604  1.00  0.00     0.106 A 
HETATM   18  S1  UNL     1      22.574   4.744  50.830  1.00  0.00    -0.074 SA
HETATM   19  C12 UNL     1      24.046   2.669  51.033  1.00  0.00     0.012 A 
HETATM   20  C10 UNL     1      24.028   4.686  49.762  1.00  0.00    -0.008 A 
HETATM   21  C11 UNL     1      24.626   3.471  50.079  1.00  0.00    -0.033 A 
HETATM   22  C16 UNL     1      24.557   5.614  48.773  1.00  0.00     0.046 C 
HETATM   23  C13 UNL     1      25.793   3.448  49.166  1.00  0.00     0.040 C 
HETATM   24  C14 UNL     1      26.675   4.615  49.564  1.00  0.00     0.005 C 
HETATM   25  C15 UNL     1      26.019   5.838  48.936  1.00  0.00     0.005 C 
ENDBRANCH   1  14
TORSDOF 3
ENDMDL
MODEL 9
REMARK VINA RESULT:      -7.6      2.640      5.525
REMARK  3 active torsions:
REMARK  status: ('A' for Active; 'I' for Inactive)
REMARK    1  A    between atoms: N1_1  and  C1_2 
REMARK    2  A    between atoms: C6_7  and  N2_8 
REMARK    3  A    between atoms: N2_8  and  C7_9 
ROOT
HETATM    1  N2  UNL     1      24.903   3.300  52.132  1.00  0.00    -0.402 N 
HETATM    2  H11 UNL     1      24.721   3.578  53.102  1.00  0.00     0.154 HD
ENDROOT
BRANCH   1   3
HETATM    3  C6  UNL     1      24.393   4.065  51.088  1.00  0.00     0.105 C 
HETATM    4  C5  UNL     1      23.496   5.211  51.479  1.00  0.00     0.053 C 
HETATM    5  C4  UNL     1      22.241   4.693  52.128  1.00  0.00    -0.028 C 
HETATM    6  C3  UNL     1      21.167   3.983  51.810  1.00  0.00    -0.026 C 
HETATM    7  C2  UNL     1      20.688   3.329  50.573  1.00  0.00     0.090 C 
HETATM    8  C1  UNL     1      21.403   3.788  49.345  1.00  0.00     0.356 C 
HETATM    9  O1  UNL     1      22.743   3.975  49.457  1.00  0.00    -0.355 OA
HETATM   10  C17 UNL     1      23.444   3.139  50.274  1.00  0.00     0.195 C 
BRANCH   8  11
HETATM   11  N1  UNL     1      21.059   2.923  48.244  1.00  0.00     0.107 N 
HETATM   12  H1  UNL     1      21.791   3.043  47.511  1.00  0.00     0.316 HD
HETATM   13  H2  UNL     1      20.123   3.184  47.882  1.00  0.00     0.316 HD
ENDBRANCH   8  11
ENDBRANCH   1   3
BRANCH   1  14
HETATM   14  C7  UNL     1      25.430   2.004  51.936  1.00  0.00     0.155 A 
HETATM   15  C8  UNL     1      26.888   1.979  52.402  1.00  0.00     0.120 A 
HETATM   16  N3  UNL     1      27.129   1.130  53.338  1.00  0.00    -0.255 NA
HETATM   17  C9  UNL     1      25.913   0.458  53.646  1.00  0.00     0.106 A 
HETATM   18  S1  UNL     1      25.203  -0.776  54.669  1.00  0.00    -0.074 SA
HETATM   19  C12 UNL     1      24.861   0.946  52.817  1.00  0.00     0.012 A 
HETATM   20  C10 UNL     1      23.532  -0.642  53.998  1.00  0.00    -0.008 A 
HETATM   21  C11 UNL     1      23.641   0.348  53.029  1.00  0.00    -0.033 A 
HETATM   22  C16 UNL     1      22.292  -1.338  54.309  1.00  0.00     0.046 C 
HETATM   23  C13 UNL     1      22.263   0.409  52.485  1.00  0.00     0.040 C 
HETATM   24  C14 UNL     1      21.369   0.851  53.626  1.00  0.00     0.005 C 
HETATM   25  C15 UNL     1      21.144  -0.402  54.462  1.00  0.00     0.005 C 
ENDBRANCH   1  14
TORSDOF 3
ENDMDL
