MODEL 1
REMARK VINA RESULT:      -6.8      0.000      0.000
REMARK  8 active torsions:
REMARK  status: ('A' for Active; 'I' for Inactive)
REMARK    1  A    between atoms: C2_2  and  N1_3 
REMARK    2  A    between atoms: N1_3  and  C3_4 
REMARK    3  A    between atoms: N1_3  and  C5_6 
REMARK    4  A    between atoms: C5_6  and  C6_7 
REMARK    5  A    between atoms: C6_7  and  N2_8 
REMARK       I    between atoms: N2_8  and  C7_9 
REMARK    6  A    between atoms: C7_9  and  C8_11 
REMARK    7  A    between atoms: C8_11  and  C10_13 
REMARK    8  A    between atoms: C12_15  and  C13_16 
ROOT
HETATM    1  C8  UNL     1      20.733   0.456  53.577  1.00  0.00     0.102 C 
HETATM    2  C9  UNL     1      19.665  -0.612  53.519  1.00  0.00     0.025 C 
ENDROOT
BRANCH   1   3
HETATM    3  C7  UNL     1      20.557   1.350  52.420  1.00  0.00     0.225 C 
HETATM    4  N2  UNL     1      20.434   2.781  52.555  1.00  0.00    -0.359 N 
HETATM    5  H15 UNL     1      20.486   3.079  53.576  1.00  0.00     0.162 HD
HETATM    6  O1  UNL     1      20.504   0.920  51.236  1.00  0.00    -0.273 OA
BRANCH   4   7
HETATM    7  C6  UNL     1      20.263   3.748  51.508  1.00  0.00     0.152 C 
BRANCH   7   8
HETATM    8  C5  UNL     1      21.324   4.825  51.565  1.00  0.00     0.292 C 
BRANCH   8   9
HETATM    9  N1  UNL     1      22.387   4.633  50.643  1.00  0.00     0.089 N 
BRANCH   9  10
HETATM   10  C2  UNL     1      22.199   3.657  49.634  1.00  0.00     0.268 C 
HETATM   11  C1  UNL     1      23.213   2.550  49.623  1.00  0.00     0.037 C 
ENDBRANCH   9  10
BRANCH   9  12
HETATM   12  C3  UNL     1      23.663   4.565  51.311  1.00  0.00     0.268 C 
HETATM   13  C4  UNL     1      23.505   4.770  52.791  1.00  0.00     0.037 C 
ENDBRANCH   9  12
ENDBRANCH   8   9
ENDBRANCH   7   8
ENDBRANCH   4   7
ENDBRANCH   1   3
BRANCH   1  14
HETATM   14  C10 UNL     1      22.085  -0.032  53.804  1.00  0.00    -0.071 C 
HETATM   15  C11 UNL     1      22.207  -1.087  54.845  1.00  0.00     0.044 C 
HETATM   16  C12 UNL     1      23.228   0.283  53.266  1.00  0.00     0.004 C 
BRANCH  16  17
HETATM   17  C13 UNL     1      24.543  -0.267  53.564  1.00  0.00     0.006 C 
HETATM   18  C14 UNL     1      25.624   0.474  53.435  1.00  0.00    -0.049 C 
HETATM   19  C15 UNL     1      27.008   0.015  53.711  1.00  0.00     0.139 C 
HETATM   20  C17 UNL     1      25.780   1.881  53.007  1.00  0.00     0.110 C 
HETATM   21  C16 UNL     1      27.657   1.304  54.139  1.00  0.00     0.222 C 
HETATM   22  O2  UNL     1      28.824   1.368  54.630  1.00  0.00    -0.273 OA
HETATM   23  N3  UNL     1      26.785   2.420  53.920  1.00  0.00    -0.353 N 
HETATM   24  H27 UNL     1      26.867   3.379  54.324  1.00  0.00     0.163 HD
HETATM   25  C18 UNL     1      26.351   1.916  51.616  1.00  0.00     0.037 C 
ENDBRANCH  16  17
ENDBRANCH   1  14
TORSDOF 8
ENDMDL
MODEL 2
REMARK VINA RESULT:      -6.6      2.535      5.333
REMARK  8 active torsions:
REMARK  status: ('A' for Active; 'I' for Inactive)
REMARK    1  A    between atoms: C2_2  and  N1_3 
REMARK    2  A    between atoms: N1_3  and  C3_4 
REMARK    3  A    between atoms: N1_3  and  C5_6 
REMARK    4  A    between atoms: C5_6  and  C6_7 
REMARK    5  A    between atoms: C6_7  and  N2_8 
REMARK       I    between atoms: N2_8  and  C7_9 
REMARK    6  A    between atoms: C7_9  and  C8_11 
REMARK    7  A    between atoms: C8_11  and  C10_13 
REMARK    8  A    between atoms: C12_15  and  C13_16 
ROOT
HETATM    1  C8  UNL     1      21.587  -0.296  53.496  1.00  0.00     0.102 C 
HETATM    2  C9  UNL     1      20.616   0.422  54.404  1.00  0.00     0.025 C 
ENDROOT
BRANCH   1   3
HETATM    3  C7  UNL     1      22.752  -0.709  54.297  1.00  0.00     0.225 C 
HETATM    4  N2  UNL     1      24.110  -0.440  53.890  1.00  0.00    -0.359 N 
HETATM    5  H15 UNL     1      24.140   0.078  52.959  1.00  0.00     0.162 HD
HETATM    6  O1  UNL     1      22.636  -1.322  55.392  1.00  0.00    -0.273 OA
BRANCH   4   7
HETATM    7  C6  UNL     1      25.318  -0.788  54.583  1.00  0.00     0.152 C 
BRANCH   7   8
HETATM    8  C5  UNL     1      26.539  -0.575  53.716  1.00  0.00     0.292 C 
BRANCH   8   9
HETATM    9  N1  UNL     1      27.260   0.609  54.022  1.00  0.00     0.089 N 
BRANCH   9  10
HETATM   10  C2  UNL     1      27.218   1.657  53.070  1.00  0.00     0.268 C 
HETATM   11  C1  UNL     1      26.712   1.263  51.713  1.00  0.00     0.037 C 
ENDBRANCH   9  10
BRANCH   9  12
HETATM   12  C3  UNL     1      28.578   0.312  54.527  1.00  0.00     0.268 C 
HETATM   13  C4  UNL     1      29.227  -0.778  53.723  1.00  0.00     0.037 C 
ENDBRANCH   9  12
ENDBRANCH   8   9
ENDBRANCH   7   8
ENDBRANCH   4   7
ENDBRANCH   1   3
BRANCH   1  14
HETATM   14  C10 UNL     1      21.885   0.385  52.245  1.00  0.00    -0.071 C 
HETATM   15  C11 UNL     1      20.900   0.155  51.154  1.00  0.00     0.044 C 
HETATM   16  C12 UNL     1      22.863   1.167  51.888  1.00  0.00     0.004 C 
BRANCH  16  17
HETATM   17  C13 UNL     1      23.076   1.807  50.598  1.00  0.00     0.006 C 
HETATM   18  C14 UNL     1      23.599   3.013  50.527  1.00  0.00    -0.049 C 
HETATM   19  C15 UNL     1      23.858   3.755  49.268  1.00  0.00     0.139 C 
HETATM   20  C17 UNL     1      24.053   3.929  51.595  1.00  0.00     0.110 C 
HETATM   21  C16 UNL     1      25.044   4.592  49.668  1.00  0.00     0.222 C 
HETATM   22  O2  UNL     1      25.718   5.284  48.847  1.00  0.00    -0.273 OA
HETATM   23  N3  UNL     1      25.296   4.494  51.075  1.00  0.00    -0.353 N 
HETATM   24  H27 UNL     1      26.165   4.766  51.585  1.00  0.00     0.163 HD
HETATM   25  C18 UNL     1      23.061   5.051  51.742  1.00  0.00     0.037 C 
ENDBRANCH  16  17
ENDBRANCH   1  14
TORSDOF 8
ENDMDL
MODEL 3
REMARK VINA RESULT:      -6.6      0.476      1.375
REMARK  8 active torsions:
REMARK  status: ('A' for Active; 'I' for Inactive)
REMARK    1  A    between atoms: C2_2  and  N1_3 
REMARK    2  A    between atoms: N1_3  and  C3_4 
REMARK    3  A    between atoms: N1_3  and  C5_6 
REMARK    4  A    between atoms: C5_6  and  C6_7 
REMARK    5  A    between atoms: C6_7  and  N2_8 
REMARK       I    between atoms: N2_8  and  C7_9 
REMARK    6  A    between atoms: C7_9  and  C8_11 
REMARK    7  A    between atoms: C8_11  and  C10_13 
REMARK    8  A    between atoms: C12_15  and  C13_16 
ROOT
HETATM    1  C8  UNL     1      20.778   0.525  53.494  1.00  0.00     0.102 C 
HETATM    2  C9  UNL     1      19.689  -0.523  53.483  1.00  0.00     0.025 C 
ENDROOT
BRANCH   1   3
HETATM    3  C7  UNL     1      20.596   1.394  52.319  1.00  0.00     0.225 C 
HETATM    4  N2  UNL     1      20.335   2.809  52.432  1.00  0.00    -0.359 N 
HETATM    5  H15 UNL     1      20.294   3.115  53.452  1.00  0.00     0.162 HD
HETATM    6  O1  UNL     1      20.658   0.957  51.139  1.00  0.00    -0.273 OA
BRANCH   4   7
HETATM    7  C6  UNL     1      20.145   3.753  51.368  1.00  0.00     0.152 C 
BRANCH   7   8
HETATM    8  C5  UNL     1      21.303   4.721  51.267  1.00  0.00     0.292 C 
BRANCH   8   9
HETATM    9  N1  UNL     1      22.543   4.101  50.962  1.00  0.00     0.089 N 
BRANCH   9  10
HETATM   10  C2  UNL     1      23.688   4.570  51.652  1.00  0.00     0.268 C 
HETATM   11  C1  UNL     1      23.513   4.741  53.132  1.00  0.00     0.037 C 
ENDBRANCH   9  10
BRANCH   9  12
HETATM   12  C3  UNL     1      22.724   3.947  49.540  1.00  0.00     0.268 C 
HETATM   13  C4  UNL     1      24.151   4.205  49.148  1.00  0.00     0.037 C 
ENDBRANCH   9  12
ENDBRANCH   8   9
ENDBRANCH   7   8
ENDBRANCH   4   7
ENDBRANCH   1   3
BRANCH   1  14
HETATM   14  C10 UNL     1      22.125   0.016  53.706  1.00  0.00    -0.071 C 
HETATM   15  C11 UNL     1      22.252  -0.997  54.787  1.00  0.00     0.044 C 
HETATM   16  C12 UNL     1      23.260   0.282  53.125  1.00  0.00     0.004 C 
BRANCH  16  17
HETATM   17  C13 UNL     1      24.569  -0.285  53.412  1.00  0.00     0.006 C 
HETATM   18  C14 UNL     1      25.652   0.462  53.344  1.00  0.00    -0.049 C 
HETATM   19  C15 UNL     1      27.031  -0.013  53.616  1.00  0.00     0.139 C 
HETATM   20  C17 UNL     1      25.814   1.891  53.003  1.00  0.00     0.110 C 
HETATM   21  C16 UNL     1      27.672   1.248  54.130  1.00  0.00     0.222 C 
HETATM   22  O2  UNL     1      28.831   1.283  54.643  1.00  0.00    -0.273 OA
HETATM   23  N3  UNL     1      26.804   2.376  53.963  1.00  0.00    -0.353 N 
HETATM   24  H27 UNL     1      26.878   3.309  54.425  1.00  0.00     0.163 HD
HETATM   25  C18 UNL     1      26.408   2.009  51.626  1.00  0.00     0.037 C 
ENDBRANCH  16  17
ENDBRANCH   1  14
TORSDOF 8
ENDMDL
MODEL 4
REMARK VINA RESULT:      -6.3      1.608      2.069
REMARK  8 active torsions:
REMARK  status: ('A' for Active; 'I' for Inactive)
REMARK    1  A    between atoms: C2_2  and  N1_3 
REMARK    2  A    between atoms: N1_3  and  C3_4 
REMARK    3  A    between atoms: N1_3  and  C5_6 
REMARK    4  A    between atoms: C5_6  and  C6_7 
REMARK    5  A    between atoms: C6_7  and  N2_8 
REMARK       I    between atoms: N2_8  and  C7_9 
REMARK    6  A    between atoms: C7_9  and  C8_11 
REMARK    7  A    between atoms: C8_11  and  C10_13 
REMARK    8  A    between atoms: C12_15  and  C13_16 
ROOT
HETATM    1  C8  UNL     1      21.743   0.639  53.786  1.00  0.00     0.102 C 
HETATM    2  C9  UNL     1      21.174  -0.367  54.760  1.00  0.00     0.025 C 
ENDROOT
BRANCH   1   3
HETATM    3  C7  UNL     1      20.693   0.991  52.817  1.00  0.00     0.225 C 
HETATM    4  N2  UNL     1      20.261   2.351  52.598  1.00  0.00    -0.359 N 
HETATM    5  H15 UNL     1      20.795   3.031  53.220  1.00  0.00     0.162 HD
HETATM    6  O1  UNL     1      20.103   0.126  52.115  1.00  0.00    -0.273 OA
BRANCH   4   7
HETATM    7  C6  UNL     1      19.256   2.815  51.685  1.00  0.00     0.152 C 
BRANCH   7   8
HETATM    8  C5  UNL     1      19.792   3.886  50.761  1.00  0.00     0.292 C 
BRANCH   8   9
HETATM    9  N1  UNL     1      20.214   3.395  49.497  1.00  0.00     0.089 N 
BRANCH   9  10
HETATM   10  C2  UNL     1      19.975   2.026  49.222  1.00  0.00     0.268 C 
HETATM   11  C1  UNL     1      21.200   1.216  48.910  1.00  0.00     0.037 C 
ENDBRANCH   9  10
BRANCH   9  12
HETATM   12  C3  UNL     1      21.542   3.848  49.168  1.00  0.00     0.268 C 
HETATM   13  C4  UNL     1      22.208   4.471  50.362  1.00  0.00     0.037 C 
ENDBRANCH   9  12
ENDBRANCH   8   9
ENDBRANCH   7   8
ENDBRANCH   4   7
ENDBRANCH   1   3
BRANCH   1  14
HETATM   14  C10 UNL     1      23.038   0.290  53.221  1.00  0.00    -0.071 C 
HETATM   15  C11 UNL     1      23.422   1.056  52.006  1.00  0.00     0.044 C 
HETATM   16  C12 UNL     1      23.940  -0.580  53.578  1.00  0.00     0.004 C 
BRANCH  16  17
HETATM   17  C13 UNL     1      25.219  -0.859  52.940  1.00  0.00     0.006 C 
HETATM   18  C14 UNL     1      26.325  -0.299  53.384  1.00  0.00    -0.049 C 
HETATM   19  C15 UNL     1      27.677  -0.513  52.810  1.00  0.00     0.139 C 
HETATM   20  C17 UNL     1      26.544   0.644  54.502  1.00  0.00     0.110 C 
HETATM   21  C16 UNL     1      28.539  -0.322  54.029  1.00  0.00     0.222 C 
HETATM   22  O2  UNL     1      29.782  -0.569  54.050  1.00  0.00    -0.273 OA
HETATM   23  N3  UNL     1      27.770   0.165  55.136  1.00  0.00    -0.353 N 
HETATM   24  H27 UNL     1      28.039   0.167  56.145  1.00  0.00     0.163 HD
HETATM   25  C18 UNL     1      26.815   2.016  53.948  1.00  0.00     0.037 C 
ENDBRANCH  16  17
ENDBRANCH   1  14
TORSDOF 8
ENDMDL
MODEL 5
REMARK VINA RESULT:      -6.3      1.855      4.671
REMARK  8 active torsions:
REMARK  status: ('A' for Active; 'I' for Inactive)
REMARK    1  A    between atoms: C2_2  and  N1_3 
REMARK    2  A    between atoms: N1_3  and  C3_4 
REMARK    3  A    between atoms: N1_3  and  C5_6 
REMARK    4  A    between atoms: C5_6  and  C6_7 
REMARK    5  A    between atoms: C6_7  and  N2_8 
REMARK       I    between atoms: N2_8  and  C7_9 
REMARK    6  A    between atoms: C7_9  and  C8_11 
REMARK    7  A    between atoms: C8_11  and  C10_13 
REMARK    8  A    between atoms: C12_15  and  C13_16 
ROOT
HETATM    1  C8  UNL     1      23.737   3.308  50.784  1.00  0.00     0.102 C 
HETATM    2  C9  UNL     1      23.410   4.650  51.397  1.00  0.00     0.025 C 
ENDROOT
BRANCH   1   3
HETATM    3  C7  UNL     1      22.640   2.377  51.097  1.00  0.00     0.225 C 
HETATM    4  N2  UNL     1      21.593   2.697  52.037  1.00  0.00    -0.359 N 
HETATM    5  H15 UNL     1      21.730   3.668  52.454  1.00  0.00     0.162 HD
HETATM    6  O1  UNL     1      22.545   1.240  50.562  1.00  0.00    -0.273 OA
BRANCH   4   7
HETATM    7  C6  UNL     1      20.478   1.878  52.419  1.00  0.00     0.152 C 
BRANCH   7   8
HETATM    8  C5  UNL     1      20.755   1.120  53.699  1.00  0.00     0.292 C 
BRANCH   8   9
HETATM    9  N1  UNL     1      20.123  -0.150  53.762  1.00  0.00     0.089 N 
BRANCH   9  10
HETATM   10  C2  UNL     1      20.947  -1.270  54.031  1.00  0.00     0.268 C 
HETATM   11  C1  UNL     1      22.407  -1.068  53.752  1.00  0.00     0.037 C 
ENDBRANCH   9  10
BRANCH   9  12
HETATM   12  C3  UNL     1      19.198  -0.336  52.672  1.00  0.00     0.268 C 
HETATM   13  C4  UNL     1      18.030  -1.179  53.097  1.00  0.00     0.037 C 
ENDBRANCH   9  12
ENDBRANCH   8   9
ENDBRANCH   7   8
ENDBRANCH   4   7
ENDBRANCH   1   3
BRANCH   1  14
HETATM   14  C10 UNL     1      25.082   2.818  51.046  1.00  0.00    -0.071 C 
HETATM   15  C11 UNL     1      26.057   3.040  49.946  1.00  0.00     0.044 C 
HETATM   16  C12 UNL     1      25.605   2.211  52.072  1.00  0.00     0.004 C 
BRANCH  16  17
HETATM   17  C13 UNL     1      26.977   1.754  52.242  1.00  0.00     0.006 C 
HETATM   18  C14 UNL     1      27.241   0.678  52.953  1.00  0.00    -0.049 C 
HETATM   19  C15 UNL     1      28.598   0.127  53.190  1.00  0.00     0.139 C 
HETATM   20  C17 UNL     1      26.338  -0.239  53.681  1.00  0.00     0.110 C 
HETATM   21  C16 UNL     1      28.290  -1.339  53.338  1.00  0.00     0.222 C 
HETATM   22  O2  UNL     1      29.182  -2.238  53.399  1.00  0.00    -0.273 OA
HETATM   23  N3  UNL     1      26.876  -1.568  53.396  1.00  0.00    -0.353 N 
HETATM   24  H27 UNL     1      26.373  -2.473  53.263  1.00  0.00     0.163 HD
HETATM   25  C18 UNL     1      26.467   0.005  55.159  1.00  0.00     0.037 C 
ENDBRANCH  16  17
ENDBRANCH   1  14
TORSDOF 8
ENDMDL
MODEL 6
REMARK VINA RESULT:      -6.2      2.001      2.804
REMARK  8 active torsions:
REMARK  status: ('A' for Active; 'I' for Inactive)
REMARK    1  A    between atoms: C2_2  and  N1_3 
REMARK    2  A    between atoms: N1_3  and  C3_4 
REMARK    3  A    between atoms: N1_3  and  C5_6 
REMARK    4  A    between atoms: C5_6  and  C6_7 
REMARK    5  A    between atoms: C6_7  and  N2_8 
REMARK       I    between atoms: N2_8  and  C7_9 
REMARK    6  A    between atoms: C7_9  and  C8_11 
REMARK    7  A    between atoms: C8_11  and  C10_13 
REMARK    8  A    between atoms: C12_15  and  C13_16 
ROOT
HETATM    1  C8  UNL     1      21.289   2.951  52.325  1.00  0.00     0.102 C 
HETATM    2  C9  UNL     1      19.844   2.560  52.118  1.00  0.00     0.025 C 
ENDROOT
BRANCH   1   3
HETATM    3  C7  UNL     1      21.574   4.130  51.490  1.00  0.00     0.225 C 
HETATM    4  N2  UNL     1      22.556   5.122  51.855  1.00  0.00    -0.359 N 
HETATM    5  H15 UNL     1      23.022   4.882  52.783  1.00  0.00     0.162 HD
HETATM    6  O1  UNL     1      20.978   4.347  50.401  1.00  0.00    -0.273 OA
BRANCH   4   7
HETATM    7  C6  UNL     1      22.921   6.304  51.127  1.00  0.00     0.152 C 
BRANCH   7   8
HETATM    8  C5  UNL     1      24.395   6.316  50.786  1.00  0.00     0.292 C 
BRANCH   8   9
HETATM    9  N1  UNL     1      24.676   5.953  49.442  1.00  0.00     0.089 N 
BRANCH   9  10
HETATM   10  C2  UNL     1      23.584   5.915  48.541  1.00  0.00     0.268 C 
HETATM   11  C1  UNL     1      23.698   6.841  47.365  1.00  0.00     0.037 C 
ENDBRANCH   9  10
BRANCH   9  12
HETATM   12  C3  UNL     1      25.548   4.808  49.374  1.00  0.00     0.268 C 
HETATM   13  C4  UNL     1      24.765   3.529  49.478  1.00  0.00     0.037 C 
ENDBRANCH   9  12
ENDBRANCH   8   9
ENDBRANCH   7   8
ENDBRANCH   4   7
ENDBRANCH   1   3
BRANCH   1  14
HETATM   14  C10 UNL     1      22.246   1.858  52.230  1.00  0.00    -0.071 C 
HETATM   15  C11 UNL     1      22.143   1.037  50.994  1.00  0.00     0.044 C 
HETATM   16  C12 UNL     1      23.189   1.452  53.030  1.00  0.00     0.004 C 
BRANCH  16  17
HETATM   17  C13 UNL     1      24.104   0.335  52.846  1.00  0.00     0.006 C 
HETATM   18  C14 UNL     1      25.398   0.490  53.042  1.00  0.00    -0.049 C 
HETATM   19  C15 UNL     1      26.416  -0.578  52.882  1.00  0.00     0.139 C 
HETATM   20  C17 UNL     1      26.173   1.681  53.448  1.00  0.00     0.110 C 
HETATM   21  C16 UNL     1      27.450  -0.140  53.884  1.00  0.00     0.222 C 
HETATM   22  O2  UNL     1      28.449  -0.849  54.212  1.00  0.00    -0.273 OA
HETATM   23  N3  UNL     1      27.149   1.162  54.403  1.00  0.00    -0.353 N 
HETATM   24  H27 UNL     1      27.543   1.611  55.260  1.00  0.00     0.163 HD
HETATM   25  C18 UNL     1      26.927   2.213  52.260  1.00  0.00     0.037 C 
ENDBRANCH  16  17
ENDBRANCH   1  14
TORSDOF 8
ENDMDL
MODEL 7
REMARK VINA RESULT:      -6.2      3.896      5.533
REMARK  8 active torsions:
REMARK  status: ('A' for Active; 'I' for Inactive)
REMARK    1  A    between atoms: C2_2  and  N1_3 
REMARK    2  A    between atoms: N1_3  and  C3_4 
REMARK    3  A    between atoms: N1_3  and  C5_6 
REMARK    4  A    between atoms: C5_6  and  C6_7 
REMARK    5  A    between atoms: C6_7  and  N2_8 
REMARK       I    between atoms: N2_8  and  C7_9 
REMARK    6  A    between atoms: C7_9  and  C8_11 
REMARK    7  A    between atoms: C8_11  and  C10_13 
REMARK    8  A    between atoms: C12_15  and  C13_16 
ROOT
HETATM    1  C8  UNL     1      25.309   3.610  49.406  1.00  0.00     0.102 C 
HETATM    2  C9  UNL     1      26.814   3.476  49.371  1.00  0.00     0.025 C 
ENDROOT
BRANCH   1   3
HETATM    3  C7  UNL     1      24.973   5.042  49.470  1.00  0.00     0.225 C 
HETATM    4  N2  UNL     1      25.611   5.950  50.392  1.00  0.00    -0.359 N 
HETATM    5  H15 UNL     1      26.331   5.447  50.995  1.00  0.00     0.162 HD
HETATM    6  O1  UNL     1      24.105   5.566  48.721  1.00  0.00    -0.273 OA
BRANCH   4   7
HETATM    7  C6  UNL     1      25.371   7.357  50.544  1.00  0.00     0.152 C 
BRANCH   7   8
HETATM    8  C5  UNL     1      26.454   8.183  49.884  1.00  0.00     0.292 C 
BRANCH   8   9
HETATM    9  N1  UNL     1      26.164   8.540  48.541  1.00  0.00     0.089 N 
BRANCH   9  10
HETATM   10  C2  UNL     1      26.805   7.796  47.520  1.00  0.00     0.268 C 
HETATM   11  C1  UNL     1      27.972   6.969  47.974  1.00  0.00     0.037 C 
ENDBRANCH   9  10
BRANCH   9  12
HETATM   12  C3  UNL     1      26.202   9.969  48.353  1.00  0.00     0.268 C 
HETATM   13  C4  UNL     1      24.871  10.484  47.885  1.00  0.00     0.037 C 
ENDBRANCH   9  12
ENDBRANCH   8   9
ENDBRANCH   7   8
ENDBRANCH   4   7
ENDBRANCH   1   3
BRANCH   1  14
HETATM   14  C10 UNL     1      24.633   2.754  50.370  1.00  0.00    -0.071 C 
HETATM   15  C11 UNL     1      23.192   2.514  50.096  1.00  0.00     0.044 C 
HETATM   16  C12 UNL     1      25.052   2.149  51.444  1.00  0.00     0.004 C 
BRANCH  16  17
HETATM   17  C13 UNL     1      24.291   1.306  52.354  1.00  0.00     0.006 C 
HETATM   18  C14 UNL     1      24.896   0.391  53.084  1.00  0.00    -0.049 C 
HETATM   19  C15 UNL     1      24.218  -0.520  54.039  1.00  0.00     0.139 C 
HETATM   20  C17 UNL     1      26.324   0.018  53.167  1.00  0.00     0.110 C 
HETATM   21  C16 UNL     1      25.313  -0.742  55.048  1.00  0.00     0.222 C 
HETATM   22  O2  UNL     1      25.136  -1.343  56.150  1.00  0.00    -0.273 OA
HETATM   23  N3  UNL     1      26.555  -0.187  54.595  1.00  0.00    -0.353 N 
HETATM   24  H27 UNL     1      27.406   0.014  55.165  1.00  0.00     0.163 HD
HETATM   25  C18 UNL     1      26.535  -1.299  52.471  1.00  0.00     0.037 C 
ENDBRANCH  16  17
ENDBRANCH   1  14
TORSDOF 8
ENDMDL
MODEL 8
REMARK VINA RESULT:      -6.2      4.422      6.894
REMARK  8 active torsions:
REMARK  status: ('A' for Active; 'I' for Inactive)
REMARK    1  A    between atoms: C2_2  and  N1_3 
REMARK    2  A    between atoms: N1_3  and  C3_4 
REMARK    3  A    between atoms: N1_3  and  C5_6 
REMARK    4  A    between atoms: C5_6  and  C6_7 
REMARK    5  A    between atoms: C6_7  and  N2_8 
REMARK       I    between atoms: N2_8  and  C7_9 
REMARK    6  A    between atoms: C7_9  and  C8_11 
REMARK    7  A    between atoms: C8_11  and  C10_13 
REMARK    8  A    between atoms: C12_15  and  C13_16 
ROOT
HETATM    1  C8  UNL     1      24.218   3.587  49.903  1.00  0.00     0.102 C 
HETATM    2  C9  UNL     1      23.259   4.697  49.539  1.00  0.00     0.025 C 
ENDROOT
BRANCH   1   3
HETATM    3  C7  UNL     1      23.986   3.217  51.309  1.00  0.00     0.225 C 
HETATM    4  N2  UNL     1      23.610   1.883  51.711  1.00  0.00    -0.359 N 
HETATM    5  H15 UNL     1      23.528   1.235  50.869  1.00  0.00     0.162 HD
HETATM    6  O1  UNL     1      24.104   4.044  52.254  1.00  0.00    -0.273 OA
BRANCH   4   7
HETATM    7  C6  UNL     1      23.362   1.405  53.041  1.00  0.00     0.152 C 
BRANCH   7   8
HETATM    8  C5  UNL     1      23.632  -0.079  53.160  1.00  0.00     0.292 C 
BRANCH   8   9
HETATM    9  N1  UNL     1      24.814  -0.390  53.883  1.00  0.00     0.089 N 
BRANCH   9  10
HETATM   10  C2  UNL     1      25.873  -0.994  53.162  1.00  0.00     0.268 C 
HETATM   11  C1  UNL     1      26.611  -0.079  52.229  1.00  0.00     0.037 C 
ENDBRANCH   9  10
BRANCH   9  12
HETATM   12  C3  UNL     1      24.513  -1.020  55.144  1.00  0.00     0.268 C 
HETATM   13  C4  UNL     1      23.050  -1.346  55.246  1.00  0.00     0.037 C 
ENDBRANCH   9  12
ENDBRANCH   8   9
ENDBRANCH   7   8
ENDBRANCH   4   7
ENDBRANCH   1   3
BRANCH   1  14
HETATM   14  C10 UNL     1      25.605   3.819  49.527  1.00  0.00    -0.071 C 
HETATM   15  C11 UNL     1      26.537   2.704  49.841  1.00  0.00     0.044 C 
HETATM   16  C12 UNL     1      26.198   4.831  48.961  1.00  0.00     0.004 C 
BRANCH  16  17
HETATM   17  C13 UNL     1      27.607   4.971  48.622  1.00  0.00     0.006 C 
HETATM   18  C14 UNL     1      28.131   6.161  48.415  1.00  0.00    -0.049 C 
HETATM   19  C15 UNL     1      29.551   6.416  48.065  1.00  0.00     0.139 C 
HETATM   20  C17 UNL     1      27.515   7.504  48.462  1.00  0.00     0.110 C 
HETATM   21  C16 UNL     1      29.755   7.777  48.674  1.00  0.00     0.222 C 
HETATM   22  O2  UNL     1      30.888   8.341  48.760  1.00  0.00    -0.273 OA
HETATM   23  N3  UNL     1      28.515   8.331  49.134  1.00  0.00    -0.353 N 
HETATM   24  H27 UNL     1      28.382   9.131  49.791  1.00  0.00     0.163 HD
HETATM   25  C18 UNL     1      27.351   8.025  47.061  1.00  0.00     0.037 C 
ENDBRANCH  16  17
ENDBRANCH   1  14
TORSDOF 8
ENDMDL
MODEL 9
REMARK VINA RESULT:      -6.2      5.668      7.595
REMARK  8 active torsions:
REMARK  status: ('A' for Active; 'I' for Inactive)
REMARK    1  A    between atoms: C2_2  and  N1_3 
REMARK    2  A    between atoms: N1_3  and  C3_4 
REMARK    3  A    between atoms: N1_3  and  C5_6 
REMARK    4  A    between atoms: C5_6  and  C6_7 
REMARK    5  A    between atoms: C6_7  and  N2_8 
REMARK       I    between atoms: N2_8  and  C7_9 
REMARK    6  A    between atoms: C7_9  and  C8_11 
REMARK    7  A    between atoms: C8_11  and  C10_13 
REMARK    8  A    between atoms: C12_15  and  C13_16 
ROOT
HETATM    1  C8  UNL     1      26.155   5.204  49.556  1.00  0.00     0.102 C 
HETATM    2  C9  UNL     1      25.033   5.797  48.736  1.00  0.00     0.025 C 
ENDROOT
BRANCH   1   3
HETATM    3  C7  UNL     1      27.427   5.475  48.865  1.00  0.00     0.225 C 
HETATM    4  N2  UNL     1      27.956   6.807  48.705  1.00  0.00    -0.359 N 
HETATM    5  H15 UNL     1      27.312   7.535  49.143  1.00  0.00     0.162 HD
HETATM    6  O1  UNL     1      28.136   4.557  48.371  1.00  0.00    -0.273 OA
BRANCH   4   7
HETATM    7  C6  UNL     1      29.178   7.193  48.058  1.00  0.00     0.152 C 
BRANCH   7   8
HETATM    8  C5  UNL     1      30.064   8.005  48.978  1.00  0.00     0.292 C 
BRANCH   8   9
HETATM    9  N1  UNL     1      30.485   9.242  48.422  1.00  0.00     0.089 N 
BRANCH   9  10
HETATM   10  C2  UNL     1      29.817  10.411  48.863  1.00  0.00     0.268 C 
HETATM   11  C1  UNL     1      30.692  11.618  49.033  1.00  0.00     0.037 C 
ENDBRANCH   9  10
BRANCH   9  12
HETATM   12  C3  UNL     1      30.653   9.152  46.993  1.00  0.00     0.268 C 
HETATM   13  C4  UNL     1      32.109   9.109  46.625  1.00  0.00     0.037 C 
ENDBRANCH   9  12
ENDBRANCH   8   9
ENDBRANCH   7   8
ENDBRANCH   4   7
ENDBRANCH   1   3
BRANCH   1  14
HETATM   14  C10 UNL     1      25.947   3.830  49.989  1.00  0.00    -0.071 C 
HETATM   15  C11 UNL     1      24.699   3.195  49.488  1.00  0.00     0.044 C 
HETATM   16  C12 UNL     1      26.651   3.036  50.744  1.00  0.00     0.004 C 
BRANCH  16  17
HETATM   17  C13 UNL     1      26.355   1.662  51.124  1.00  0.00     0.006 C 
HETATM   18  C14 UNL     1      26.707   1.205  52.308  1.00  0.00    -0.049 C 
HETATM   19  C15 UNL     1      26.456  -0.174  52.796  1.00  0.00     0.139 C 
HETATM   20  C17 UNL     1      27.407   1.871  53.427  1.00  0.00     0.110 C 
HETATM   21  C16 UNL     1      26.333   0.065  54.277  1.00  0.00     0.222 C 
HETATM   22  O2  UNL     1      25.956  -0.824  55.099  1.00  0.00    -0.273 OA
HETATM   23  N3  UNL     1      26.695   1.410  54.617  1.00  0.00    -0.353 N 
HETATM   24  H27 UNL     1      26.488   1.918  55.505  1.00  0.00     0.163 HD
HETATM   25  C18 UNL     1      28.819   1.359  53.506  1.00  0.00     0.037 C 
ENDBRANCH  16  17
ENDBRANCH   1  14
TORSDOF 8
ENDMDL
