MODEL 1
REMARK VINA RESULT:      -7.7      0.000      0.000
REMARK  4 active torsions:
REMARK  status: ('A' for Active; 'I' for Inactive)
REMARK    1  A    between atoms: O1_2  and  C2_3 
REMARK    2  A    between atoms: C4_5  and  C5_6 
REMARK    3  A    between atoms: C16_21  and  O4_22 
REMARK    4  A    between atoms: C18_24  and  O5_25 
ROOT
HETATM    1  C5  UNL     1      25.530   2.970  51.372  1.00  0.00     0.046 C 
HETATM    2  C6  UNL     1      25.233   2.058  52.223  1.00  0.00     0.101 C 
HETATM    3  C7  UNL     1      24.127   1.306  52.802  1.00  0.00     0.274 C 
HETATM    4  O2  UNL     1      23.067   1.691  52.351  1.00  0.00    -0.266 OA
HETATM    5  N1  UNL     1      24.695   0.338  53.733  1.00  0.00    -0.290 N 
HETATM    6  C8  UNL     1      26.074   0.055  54.114  1.00  0.00     0.248 C 
HETATM    7  O3  UNL     1      26.144  -1.148  54.489  1.00  0.00    -0.271 OA
HETATM    8  C9  UNL     1      26.885   1.249  53.930  1.00  0.00     0.188 A 
HETATM    9  C10 UNL     1      28.357   1.056  53.422  1.00  0.00     0.033 A 
HETATM   10  C11 UNL     1      28.201  -0.144  53.262  1.00  0.00     0.006 A 
HETATM   11  C12 UNL     1      29.230  -1.243  53.303  1.00  0.00     0.020 C 
HETATM   12  C13 UNL     1      27.804   1.349  53.273  1.00  0.00     0.062 A 
HETATM   13  C14 UNL     1      28.681   2.386  53.645  1.00  0.00     0.037 A 
HETATM   14  N2  UNL     1      26.523   1.733  52.651  1.00  0.00    -0.350 N 
HETATM   15  H6  UNL     1      23.860  -0.194  54.144  1.00  0.00     0.172 HD
ENDROOT
BRANCH   1  16
HETATM   16  C4  UNL     1      24.594   3.663  50.559  1.00  0.00    -0.028 A 
HETATM   17  C3  UNL     1      24.272   4.918  50.965  1.00  0.00     0.051 A 
HETATM   18  C2  UNL     1      23.341   5.698  50.296  1.00  0.00     0.105 A 
HETATM   19  C18 UNL     1      22.784   5.070  49.186  1.00  0.00     0.135 A 
HETATM   20  C16 UNL     1      23.056   3.818  48.717  1.00  0.00     0.105 A 
HETATM   21  C15 UNL     1      23.991   3.109  49.438  1.00  0.00     0.051 A 
BRANCH  18  22
HETATM   22  O1  UNL     1      22.865   6.970  50.516  1.00  0.00    -0.353 OA
HETATM   23  C1  UNL     1      23.699   8.094  50.401  1.00  0.00     0.210 C 
ENDBRANCH  18  22
BRANCH  19  24
HETATM   24  O5  UNL     1      21.827   5.692  48.380  1.00  0.00    -0.351 OA
HETATM   25  C19 UNL     1      22.212   6.507  47.278  1.00  0.00     0.210 C 
ENDBRANCH  19  24
BRANCH  20  26
HETATM   26  O4  UNL     1      22.487   3.214  47.607  1.00  0.00    -0.353 OA
HETATM   27  C17 UNL     1      22.244   1.826  47.669  1.00  0.00     0.210 C 
ENDBRANCH  20  26
ENDBRANCH   1  16
TORSDOF 4
ENDMDL
MODEL 2
REMARK VINA RESULT:      -7.6      2.357      7.469
REMARK  4 active torsions:
REMARK  status: ('A' for Active; 'I' for Inactive)
REMARK    1  A    between atoms: O1_2  and  C2_3 
REMARK    2  A    between atoms: C4_5  and  C5_6 
REMARK    3  A    between atoms: C16_21  and  O4_22 
REMARK    4  A    between atoms: C18_24  and  O5_25 
ROOT
HETATM    1  C5  UNL     1      24.154   2.719  50.968  1.00  0.00     0.046 C 
HETATM    2  C6  UNL     1      23.848   3.924  51.286  1.00  0.00     0.101 C 
HETATM    3  C7  UNL     1      23.675   4.834  52.411  1.00  0.00     0.274 C 
HETATM    4  O2  UNL     1      23.846   4.250  53.463  1.00  0.00    -0.266 OA
HETATM    5  N1  UNL     1      23.355   6.148  51.866  1.00  0.00    -0.290 N 
HETATM    6  C8  UNL     1      23.206   6.617  50.494  1.00  0.00     0.248 C 
HETATM    7  O3  UNL     1      23.469   7.850  50.464  1.00  0.00    -0.271 OA
HETATM    8  C9  UNL     1      22.809   5.507  49.640  1.00  0.00     0.188 A 
HETATM    9  C10 UNL     1      23.394   5.464  48.185  1.00  0.00     0.033 A 
HETATM   10  C11 UNL     1      24.115   6.428  48.390  1.00  0.00     0.006 A 
HETATM   11  C12 UNL     1      24.650   7.432  47.403  1.00  0.00     0.020 C 
HETATM   12  C13 UNL     1      23.363   5.122  48.729  1.00  0.00     0.062 A 
HETATM   13  C14 UNL     1      22.561   4.423  47.807  1.00  0.00     0.037 A 
HETATM   14  N2  UNL     1      23.675   4.449  50.004  1.00  0.00    -0.350 N 
HETATM   15  H6  UNL     1      23.230   6.791  52.715  1.00  0.00     0.172 HD
ENDROOT
BRANCH   1  16
HETATM   16  C4  UNL     1      24.493   1.693  51.890  1.00  0.00    -0.028 A 
HETATM   17  C3  UNL     1      23.456   0.960  52.369  1.00  0.00     0.051 A 
HETATM   18  C2  UNL     1      23.629  -0.046  53.306  1.00  0.00     0.105 A 
HETATM   19  C18 UNL     1      24.953  -0.221  53.695  1.00  0.00     0.135 A 
HETATM   20  C16 UNL     1      26.045   0.471  53.261  1.00  0.00     0.105 A 
HETATM   21  C15 UNL     1      25.788   1.454  52.331  1.00  0.00     0.051 A 
BRANCH  18  22
HETATM   22  O1  UNL     1      22.747  -0.904  53.923  1.00  0.00    -0.353 OA
HETATM   23  C1  UNL     1      21.633  -0.425  54.632  1.00  0.00     0.210 C 
ENDBRANCH  18  22
BRANCH  19  24
HETATM   24  O5  UNL     1      25.333  -1.187  54.631  1.00  0.00    -0.351 OA
HETATM   25  C19 UNL     1      25.221  -0.942  56.029  1.00  0.00     0.210 C 
ENDBRANCH  19  24
BRANCH  20  26
HETATM   26  O4  UNL     1      27.356   0.277  53.665  1.00  0.00    -0.353 OA
HETATM   27  C17 UNL     1      28.284   1.304  53.395  1.00  0.00     0.210 C 
ENDBRANCH  20  26
ENDBRANCH   1  16
TORSDOF 4
ENDMDL
MODEL 3
REMARK VINA RESULT:      -7.6      3.643      5.209
REMARK  4 active torsions:
REMARK  status: ('A' for Active; 'I' for Inactive)
REMARK    1  A    between atoms: O1_2  and  C2_3 
REMARK    2  A    between atoms: C4_5  and  C5_6 
REMARK    3  A    between atoms: C16_21  and  O4_22 
REMARK    4  A    between atoms: C18_24  and  O5_25 
ROOT
HETATM    1  C5  UNL     1      22.864   0.183  52.253  1.00  0.00     0.046 C 
HETATM    2  C6  UNL     1      23.634   1.179  52.501  1.00  0.00     0.101 C 
HETATM    3  C7  UNL     1      23.671   2.629  52.642  1.00  0.00     0.274 C 
HETATM    4  O2  UNL     1      22.579   3.108  52.409  1.00  0.00    -0.266 OA
HETATM    5  N1  UNL     1      25.029   2.998  53.023  1.00  0.00    -0.290 N 
HETATM    6  C8  UNL     1      26.221   2.192  53.258  1.00  0.00     0.248 C 
HETATM    7  O3  UNL     1      26.971   2.815  54.059  1.00  0.00    -0.271 OA
HETATM    8  C9  UNL     1      26.134   0.957  52.493  1.00  0.00     0.188 A 
HETATM    9  C10 UNL     1      26.709  -0.346  53.148  1.00  0.00     0.033 A 
HETATM   10  C11 UNL     1      26.938   0.223  54.204  1.00  0.00     0.006 A 
HETATM   11  C12 UNL     1      27.977  -0.103  55.245  1.00  0.00     0.020 C 
HETATM   12  C13 UNL     1      26.167  -0.099  52.904  1.00  0.00     0.062 A 
HETATM   13  C14 UNL     1      26.576  -1.076  51.978  1.00  0.00     0.037 A 
HETATM   14  N2  UNL     1      24.823   0.482  52.731  1.00  0.00    -0.350 N 
HETATM   15  H6  UNL     1      25.025   4.066  53.113  1.00  0.00     0.172 HD
ENDROOT
BRANCH   1  16
HETATM   16  C4  UNL     1      21.474   0.275  51.980  1.00  0.00    -0.028 A 
HETATM   17  C3  UNL     1      20.649  -0.257  52.917  1.00  0.00     0.051 A 
HETATM   18  C2  UNL     1      19.271  -0.278  52.767  1.00  0.00     0.105 A 
HETATM   19  C18 UNL     1      18.833   0.293  51.576  1.00  0.00     0.135 A 
HETATM   20  C16 UNL     1      19.596   0.847  50.591  1.00  0.00     0.105 A 
HETATM   21  C15 UNL     1      20.955   0.828  50.816  1.00  0.00     0.051 A 
BRANCH  18  22
HETATM   22  O1  UNL     1      18.256  -0.752  53.567  1.00  0.00    -0.353 OA
HETATM   23  C1  UNL     1      17.973  -2.124  53.654  1.00  0.00     0.210 C 
ENDBRANCH  18  22
BRANCH  19  24
HETATM   24  O5  UNL     1      17.479   0.369  51.241  1.00  0.00    -0.351 OA
HETATM   25  C19 UNL     1      16.697   1.506  51.590  1.00  0.00     0.210 C 
ENDBRANCH  19  24
BRANCH  20  26
HETATM   26  O4  UNL     1      19.134   1.411  49.412  1.00  0.00    -0.353 OA
HETATM   27  C17 UNL     1      19.311   2.799  49.237  1.00  0.00     0.210 C 
ENDBRANCH  20  26
ENDBRANCH   1  16
TORSDOF 4
ENDMDL
MODEL 4
REMARK VINA RESULT:      -7.5      2.371      7.349
REMARK  4 active torsions:
REMARK  status: ('A' for Active; 'I' for Inactive)
REMARK    1  A    between atoms: O1_2  and  C2_3 
REMARK    2  A    between atoms: C4_5  and  C5_6 
REMARK    3  A    between atoms: C16_21  and  O4_22 
REMARK    4  A    between atoms: C18_24  and  O5_25 
ROOT
HETATM    1  C5  UNL     1      24.084   2.764  51.067  1.00  0.00     0.046 C 
HETATM    2  C6  UNL     1      23.786   3.979  51.350  1.00  0.00     0.101 C 
HETATM    3  C7  UNL     1      23.596   4.917  52.449  1.00  0.00     0.274 C 
HETATM    4  O2  UNL     1      23.730   4.356  53.517  1.00  0.00    -0.266 OA
HETATM    5  N1  UNL     1      23.307   6.222  51.866  1.00  0.00    -0.290 N 
HETATM    6  C8  UNL     1      23.201   6.662  50.480  1.00  0.00     0.248 C 
HETATM    7  O3  UNL     1      23.481   7.891  50.430  1.00  0.00    -0.271 OA
HETATM    8  C9  UNL     1      22.812   5.538  49.641  1.00  0.00     0.188 A 
HETATM    9  C10 UNL     1      23.434   5.455  48.203  1.00  0.00     0.033 A 
HETATM   10  C11 UNL     1      24.163   6.414  48.406  1.00  0.00     0.006 A 
HETATM   11  C12 UNL     1      24.737   7.389  47.412  1.00  0.00     0.020 C 
HETATM   12  C13 UNL     1      23.385   5.125  48.754  1.00  0.00     0.062 A 
HETATM   13  C14 UNL     1      22.598   4.416  47.827  1.00  0.00     0.037 A 
HETATM   14  N2  UNL     1      23.654   4.478  50.052  1.00  0.00    -0.350 N 
HETATM   15  H6  UNL     1      23.168   6.886  52.697  1.00  0.00     0.172 HD
ENDROOT
BRANCH   1  16
HETATM   16  C4  UNL     1      24.385   1.755  52.020  1.00  0.00    -0.028 A 
HETATM   17  C3  UNL     1      25.695   1.621  52.347  1.00  0.00     0.051 A 
HETATM   18  C2  UNL     1      26.143   0.651  53.230  1.00  0.00     0.105 A 
HETATM   19  C18 UNL     1      25.127  -0.153  53.736  1.00  0.00     0.135 A 
HETATM   20  C16 UNL     1      23.794  -0.078  53.458  1.00  0.00     0.105 A 
HETATM   21  C15 UNL     1      23.431   0.911  52.572  1.00  0.00     0.051 A 
BRANCH  18  22
HETATM   22  O1  UNL     1      27.396   0.332  53.703  1.00  0.00    -0.353 OA
HETATM   23  C1  UNL     1      28.395   1.309  53.848  1.00  0.00     0.210 C 
ENDBRANCH  18  22
BRANCH  19  24
HETATM   24  O5  UNL     1      25.376  -1.187  54.643  1.00  0.00    -0.351 OA
HETATM   25  C19 UNL     1      25.273  -0.975  56.047  1.00  0.00     0.210 C 
ENDBRANCH  19  24
BRANCH  20  26
HETATM   26  O4  UNL     1      22.799  -0.892  53.977  1.00  0.00    -0.353 OA
HETATM   27  C17 UNL     1      21.651  -0.267  54.506  1.00  0.00     0.210 C 
ENDBRANCH  20  26
ENDBRANCH   1  16
TORSDOF 4
ENDMDL
MODEL 5
REMARK VINA RESULT:      -7.5      0.518      2.564
REMARK  4 active torsions:
REMARK  status: ('A' for Active; 'I' for Inactive)
REMARK    1  A    between atoms: O1_2  and  C2_3 
REMARK    2  A    between atoms: C4_5  and  C5_6 
REMARK    3  A    between atoms: C16_21  and  O4_22 
REMARK    4  A    between atoms: C18_24  and  O5_25 
ROOT
HETATM    1  C5  UNL     1      25.446   3.008  51.474  1.00  0.00     0.046 C 
HETATM    2  C6  UNL     1      25.169   2.087  52.323  1.00  0.00     0.101 C 
HETATM    3  C7  UNL     1      24.075   1.334  52.924  1.00  0.00     0.274 C 
HETATM    4  O2  UNL     1      23.005   1.731  52.510  1.00  0.00    -0.266 OA
HETATM    5  N1  UNL     1      24.665   0.351  53.826  1.00  0.00    -0.290 N 
HETATM    6  C8  UNL     1      26.052   0.055  54.162  1.00  0.00     0.248 C 
HETATM    7  O3  UNL     1      26.126  -1.152  54.520  1.00  0.00    -0.271 OA
HETATM    8  C9  UNL     1      26.865   1.247  53.970  1.00  0.00     0.188 A 
HETATM    9  C10 UNL     1      28.320   1.052  53.417  1.00  0.00     0.033 A 
HETATM   10  C11 UNL     1      28.152  -0.145  53.246  1.00  0.00     0.006 A 
HETATM   11  C12 UNL     1      29.174  -1.251  53.243  1.00  0.00     0.020 C 
HETATM   12  C13 UNL     1      27.765   1.350  53.287  1.00  0.00     0.062 A 
HETATM   13  C14 UNL     1      28.658   2.376  53.646  1.00  0.00     0.037 A 
HETATM   14  N2  UNL     1      26.468   1.750  52.709  1.00  0.00    -0.350 N 
HETATM   15  H6  UNL     1      23.838  -0.181  54.255  1.00  0.00     0.172 HD
ENDROOT
BRANCH   1  16
HETATM   16  C4  UNL     1      24.490   3.717  50.699  1.00  0.00    -0.028 A 
HETATM   17  C3  UNL     1      23.989   3.055  49.626  1.00  0.00     0.051 A 
HETATM   18  C2  UNL     1      23.081   3.635  48.754  1.00  0.00     0.105 A 
HETATM   19  C18 UNL     1      22.744   4.942  49.090  1.00  0.00     0.135 A 
HETATM   20  C16 UNL     1      23.203   5.671  50.147  1.00  0.00     0.105 A 
HETATM   21  C15 UNL     1      24.102   5.024  50.965  1.00  0.00     0.051 A 
BRANCH  18  22
HETATM   22  O1  UNL     1      22.448   3.167  47.624  1.00  0.00    -0.353 OA
HETATM   23  C1  UNL     1      21.432   2.201  47.701  1.00  0.00     0.210 C 
ENDBRANCH  18  22
BRANCH  19  24
HETATM   24  O5  UNL     1      21.843   5.697  48.335  1.00  0.00    -0.351 OA
HETATM   25  C19 UNL     1      20.449   5.685  48.624  1.00  0.00     0.210 C 
ENDBRANCH  19  24
BRANCH  20  26
HETATM   26  O4  UNL     1      22.851   6.975  50.461  1.00  0.00    -0.353 OA
HETATM   27  C17 UNL     1      23.888   7.872  50.791  1.00  0.00     0.210 C 
ENDBRANCH  20  26
ENDBRANCH   1  16
TORSDOF 4
ENDMDL
MODEL 6
REMARK VINA RESULT:      -7.5      3.494      5.003
REMARK  4 active torsions:
REMARK  status: ('A' for Active; 'I' for Inactive)
REMARK    1  A    between atoms: O1_2  and  C2_3 
REMARK    2  A    between atoms: C4_5  and  C5_6 
REMARK    3  A    between atoms: C16_21  and  O4_22 
REMARK    4  A    between atoms: C18_24  and  O5_25 
ROOT
HETATM    1  C5  UNL     1      23.049   0.134  52.255  1.00  0.00     0.046 C 
HETATM    2  C6  UNL     1      23.806   1.134  52.520  1.00  0.00     0.101 C 
HETATM    3  C7  UNL     1      23.820   2.580  52.708  1.00  0.00     0.274 C 
HETATM    4  O2  UNL     1      22.717   3.046  52.512  1.00  0.00    -0.266 OA
HETATM    5  N1  UNL     1      25.180   2.960  53.074  1.00  0.00    -0.290 N 
HETATM    6  C8  UNL     1      26.390   2.169  53.259  1.00  0.00     0.248 C 
HETATM    7  O3  UNL     1      27.145   2.779  54.066  1.00  0.00    -0.271 OA
HETATM    8  C9  UNL     1      26.308   0.958  52.456  1.00  0.00     0.188 A 
HETATM    9  C10 UNL     1      26.919  -0.356  53.057  1.00  0.00     0.033 A 
HETATM   10  C11 UNL     1      27.160   0.183  54.126  1.00  0.00     0.006 A 
HETATM   11  C12 UNL     1      28.225  -0.158  55.135  1.00  0.00     0.020 C 
HETATM   12  C13 UNL     1      26.368  -0.110  52.832  1.00  0.00     0.062 A 
HETATM   13  C14 UNL     1      26.775  -1.050  51.866  1.00  0.00     0.037 A 
HETATM   14  N2  UNL     1      25.011   0.452  52.704  1.00  0.00    -0.350 N 
HETATM   15  H6  UNL     1      25.159   4.025  53.200  1.00  0.00     0.172 HD
ENDROOT
BRANCH   1  16
HETATM   16  C4  UNL     1      21.652   0.210  52.012  1.00  0.00    -0.028 A 
HETATM   17  C3  UNL     1      21.284   0.799  50.846  1.00  0.00     0.051 A 
HETATM   18  C2  UNL     1      19.956   0.982  50.494  1.00  0.00     0.105 A 
HETATM   19  C18 UNL     1      19.058   0.505  51.444  1.00  0.00     0.135 A 
HETATM   20  C16 UNL     1      19.349  -0.097  52.633  1.00  0.00     0.105 A 
HETATM   21  C15 UNL     1      20.691  -0.240  52.908  1.00  0.00     0.051 A 
BRANCH  18  22
HETATM   22  O1  UNL     1      19.356   1.540  49.388  1.00  0.00    -0.353 OA
HETATM   23  C1  UNL     1      19.445   2.916  49.123  1.00  0.00     0.210 C 
ENDBRANCH  18  22
BRANCH  19  24
HETATM   24  O5  UNL     1      17.674   0.596  51.272  1.00  0.00    -0.351 OA
HETATM   25  C19 UNL     1      16.969  -0.345  50.469  1.00  0.00     0.210 C 
ENDBRANCH  19  24
BRANCH  20  26
HETATM   26  O4  UNL     1      18.434  -0.564  53.563  1.00  0.00    -0.353 OA
HETATM   27  C17 UNL     1      18.191  -1.953  53.602  1.00  0.00     0.210 C 
ENDBRANCH  20  26
ENDBRANCH   1  16
TORSDOF 4
ENDMDL
MODEL 7
REMARK VINA RESULT:      -7.4      2.909      7.133
REMARK  4 active torsions:
REMARK  status: ('A' for Active; 'I' for Inactive)
REMARK    1  A    between atoms: O1_2  and  C2_3 
REMARK    2  A    between atoms: C4_5  and  C5_6 
REMARK    3  A    between atoms: C16_21  and  O4_22 
REMARK    4  A    between atoms: C18_24  and  O5_25 
ROOT
HETATM    1  C5  UNL     1      23.472   3.193  50.549  1.00  0.00     0.046 C 
HETATM    2  C6  UNL     1      23.677   4.375  51.005  1.00  0.00     0.101 C 
HETATM    3  C7  UNL     1      23.828   5.151  52.229  1.00  0.00     0.274 C 
HETATM    4  O2  UNL     1      23.672   4.445  53.205  1.00  0.00    -0.266 OA
HETATM    5  N1  UNL     1      24.121   6.526  51.842  1.00  0.00    -0.290 N 
HETATM    6  C8  UNL     1      24.269   7.153  50.534  1.00  0.00     0.248 C 
HETATM    7  O3  UNL     1      25.023   8.157  50.657  1.00  0.00    -0.271 OA
HETATM    8  C9  UNL     1      23.500   6.409  49.547  1.00  0.00     0.188 A 
HETATM    9  C10 UNL     1      24.105   6.275  48.106  1.00  0.00     0.033 A 
HETATM   10  C11 UNL     1      25.148   6.817  48.436  1.00  0.00     0.006 A 
HETATM   11  C12 UNL     1      26.114   7.599  47.585  1.00  0.00     0.020 C 
HETATM   12  C13 UNL     1      23.900   5.923  48.604  1.00  0.00     0.062 A 
HETATM   13  C14 UNL     1      22.940   5.727  47.594  1.00  0.00     0.037 A 
HETATM   14  N2  UNL     1      23.821   5.054  49.793  1.00  0.00    -0.350 N 
HETATM   15  H6  UNL     1      24.221   7.071  52.760  1.00  0.00     0.172 HD
ENDROOT
BRANCH   1  16
HETATM   16  C4  UNL     1      23.293   2.031  51.345  1.00  0.00    -0.028 A 
HETATM   17  C3  UNL     1      22.020   1.571  51.443  1.00  0.00     0.051 A 
HETATM   18  C2  UNL     1      21.687   0.471  52.219  1.00  0.00     0.105 A 
HETATM   19  C18 UNL     1      22.775  -0.099  52.872  1.00  0.00     0.135 A 
HETATM   20  C16 UNL     1      24.077   0.304  52.822  1.00  0.00     0.105 A 
HETATM   21  C15 UNL     1      24.325   1.403  52.030  1.00  0.00     0.051 A 
BRANCH  18  22
HETATM   22  O1  UNL     1      20.491  -0.164  52.466  1.00  0.00    -0.353 OA
HETATM   23  C1  UNL     1      19.313   0.209  51.800  1.00  0.00     0.210 C 
ENDBRANCH  18  22
BRANCH  19  24
HETATM   24  O5  UNL     1      22.645  -1.216  53.701  1.00  0.00    -0.351 OA
HETATM   25  C19 UNL     1      22.263  -1.080  55.065  1.00  0.00     0.210 C 
ENDBRANCH  19  24
BRANCH  20  26
HETATM   26  O4  UNL     1      25.145  -0.283  53.482  1.00  0.00    -0.353 OA
HETATM   27  C17 UNL     1      26.293  -0.595  52.724  1.00  0.00     0.210 C 
ENDBRANCH  20  26
ENDBRANCH   1  16
TORSDOF 4
ENDMDL
MODEL 8
REMARK VINA RESULT:      -7.2      4.553      7.668
REMARK  4 active torsions:
REMARK  status: ('A' for Active; 'I' for Inactive)
REMARK    1  A    between atoms: O1_2  and  C2_3 
REMARK    2  A    between atoms: C4_5  and  C5_6 
REMARK    3  A    between atoms: C16_21  and  O4_22 
REMARK    4  A    between atoms: C18_24  and  O5_25 
ROOT
HETATM    1  C5  UNL     1      21.083   1.317  50.946  1.00  0.00     0.046 C 
HETATM    2  C6  UNL     1      21.217   2.573  51.166  1.00  0.00     0.101 C 
HETATM    3  C7  UNL     1      20.815   3.661  52.050  1.00  0.00     0.274 C 
HETATM    4  O2  UNL     1      20.027   3.264  52.883  1.00  0.00    -0.266 OA
HETATM    5  N1  UNL     1      21.516   4.862  51.612  1.00  0.00    -0.290 N 
HETATM    6  C8  UNL     1      22.464   5.089  50.528  1.00  0.00     0.248 C 
HETATM    7  O3  UNL     1      23.198   6.068  50.840  1.00  0.00    -0.271 OA
HETATM    8  C9  UNL     1      22.239   4.115  49.471  1.00  0.00     0.188 A 
HETATM    9  C10 UNL     1      23.495   3.564  48.710  1.00  0.00     0.033 A 
HETATM   10  C11 UNL     1      24.267   4.151  49.452  1.00  0.00     0.006 A 
HETATM   11  C12 UNL     1      25.664   4.636  49.165  1.00  0.00     0.020 C 
HETATM   12  C13 UNL     1      22.991   3.372  49.063  1.00  0.00     0.062 A 
HETATM   13  C14 UNL     1      22.721   2.922  47.756  1.00  0.00     0.037 A 
HETATM   14  N2  UNL     1      22.120   2.878  50.145  1.00  0.00    -0.350 N 
HETATM   15  H6  UNL     1      21.196   5.642  52.275  1.00  0.00     0.172 HD
ENDROOT
BRANCH   1  16
HETATM   16  C4  UNL     1      20.291   0.432  51.725  1.00  0.00    -0.028 A 
HETATM   17  C3  UNL     1      18.989   0.322  51.356  1.00  0.00     0.051 A 
HETATM   18  C2  UNL     1      18.087  -0.471  52.048  1.00  0.00     0.105 A 
HETATM   19  C18 UNL     1      18.647  -1.129  53.138  1.00  0.00     0.135 A 
HETATM   20  C16 UNL     1      19.939  -1.069  53.569  1.00  0.00     0.105 A 
HETATM   21  C15 UNL     1      20.771  -0.260  52.829  1.00  0.00     0.051 A 
BRANCH  18  22
HETATM   22  O1  UNL     1      16.748  -0.734  51.863  1.00  0.00    -0.353 OA
HETATM   23  C1  UNL     1      15.760   0.177  52.272  1.00  0.00     0.210 C 
ENDBRANCH  18  22
BRANCH  19  24
HETATM   24  O5  UNL     1      17.899  -1.976  53.961  1.00  0.00    -0.351 OA
HETATM   25  C19 UNL     1      17.604  -3.311  53.567  1.00  0.00     0.210 C 
ENDBRANCH  19  24
BRANCH  20  26
HETATM   26  O4  UNL     1      20.473  -1.736  54.661  1.00  0.00    -0.353 OA
HETATM   27  C17 UNL     1      21.877  -1.758  54.792  1.00  0.00     0.210 C 
ENDBRANCH  20  26
ENDBRANCH   1  16
TORSDOF 4
ENDMDL
MODEL 9
REMARK VINA RESULT:      -7.1      2.971      7.098
REMARK  4 active torsions:
REMARK  status: ('A' for Active; 'I' for Inactive)
REMARK    1  A    between atoms: O1_2  and  C2_3 
REMARK    2  A    between atoms: C4_5  and  C5_6 
REMARK    3  A    between atoms: C16_21  and  O4_22 
REMARK    4  A    between atoms: C18_24  and  O5_25 
ROOT
HETATM    1  C5  UNL     1      24.182   3.834  51.205  1.00  0.00     0.046 C 
HETATM    2  C6  UNL     1      25.239   4.172  50.561  1.00  0.00     0.101 C 
HETATM    3  C7  UNL     1      26.543   3.700  50.114  1.00  0.00     0.274 C 
HETATM    4  O2  UNL     1      26.752   2.575  50.521  1.00  0.00    -0.266 OA
HETATM    5  N1  UNL     1      27.146   4.765  49.321  1.00  0.00    -0.290 N 
HETATM    6  C8  UNL     1      26.664   6.091  48.955  1.00  0.00     0.248 C 
HETATM    7  O3  UNL     1      27.217   6.430  47.872  1.00  0.00    -0.271 OA
HETATM    8  C9  UNL     1      25.718   6.559  49.957  1.00  0.00     0.188 A 
HETATM    9  C10 UNL     1      24.491   7.401  49.461  1.00  0.00     0.033 A 
HETATM   10  C11 UNL     1      24.781   7.230  48.287  1.00  0.00     0.006 A 
HETATM   11  C12 UNL     1      24.472   8.106  47.102  1.00  0.00     0.020 C 
HETATM   12  C13 UNL     1      24.640   6.863  49.781  1.00  0.00     0.062 A 
HETATM   13  C14 UNL     1      24.112   7.736  50.751  1.00  0.00     0.037 A 
HETATM   14  N2  UNL     1      24.857   5.459  50.177  1.00  0.00    -0.350 N 
HETATM   15  H6  UNL     1      28.103   4.391  49.013  1.00  0.00     0.172 HD
ENDROOT
BRANCH   1  16
HETATM   16  C4  UNL     1      23.965   2.567  51.809  1.00  0.00    -0.028 A 
HETATM   17  C3  UNL     1      22.825   1.926  51.447  1.00  0.00     0.051 A 
HETATM   18  C2  UNL     1      22.459   0.703  51.986  1.00  0.00     0.105 A 
HETATM   19  C18 UNL     1      23.367   0.212  52.918  1.00  0.00     0.135 A 
HETATM   20  C16 UNL     1      24.529   0.794  53.332  1.00  0.00     0.105 A 
HETATM   21  C15 UNL     1      24.820   2.008  52.749  1.00  0.00     0.051 A 
BRANCH  18  22
HETATM   22  O1  UNL     1      21.375  -0.119  51.775  1.00  0.00    -0.353 OA
HETATM   23  C1  UNL     1      20.137   0.395  51.355  1.00  0.00     0.210 C 
ENDBRANCH  18  22
BRANCH  19  24
HETATM   24  O5  UNL     1      23.177  -1.008  53.573  1.00  0.00    -0.351 OA
HETATM   25  C19 UNL     1      22.402  -1.091  54.764  1.00  0.00     0.210 C 
ENDBRANCH  19  24
BRANCH  20  26
HETATM   26  O4  UNL     1      25.419   0.283  54.264  1.00  0.00    -0.353 OA
HETATM   27  C17 UNL     1      26.756   0.093  53.857  1.00  0.00     0.210 C 
ENDBRANCH  20  26
ENDBRANCH   1  16
TORSDOF 4
ENDMDL
