MODEL 1
REMARK VINA RESULT:      -8.1      0.000      0.000
REMARK  5 active torsions:
REMARK  status: ('A' for Active; 'I' for Inactive)
REMARK    1  A    between atoms: O1_2  and  C2_3 
REMARK    2  A    between atoms: C6_9  and  N3_10 
REMARK    3  A    between atoms: N3_10  and  C7_11 
REMARK    4  A    between atoms: C15_22  and  N4_23 
REMARK    5  A    between atoms: N4_23  and  C16_24 
ROOT
HETATM    1  C2  UNL     1      19.399   0.163  52.604  1.00  0.00     0.106 C 
HETATM    2  C3  UNL     1      20.017  -0.680  53.449  1.00  0.00     0.069 C 
HETATM    3  C4  UNL     1      21.439  -0.752  53.851  1.00  0.00     0.072 A 
HETATM    4  N1  UNL     1      21.641  -1.438  55.016  1.00  0.00    -0.241 NA
HETATM    5  C5  UNL     1      22.914  -1.550  55.483  1.00  0.00     0.235 A 
HETATM    6  N2  UNL     1      23.898  -0.983  54.780  1.00  0.00    -0.224 NA
HETATM    7  C6  UNL     1      23.770  -0.299  53.636  1.00  0.00     0.140 A 
HETATM    8  C13 UNL     1      22.499  -0.172  53.143  1.00  0.00     0.040 A 
HETATM    9  C14 UNL     1      22.439   0.595  51.849  1.00  0.00     0.216 C 
HETATM   10  O2  UNL     1      21.207   0.580  51.254  1.00  0.00    -0.348 OA
HETATM   11  C15 UNL     1      20.196   1.242  51.905  1.00  0.00     0.415 C 
ENDROOT
BRANCH   7  12
HETATM   12  N3  UNL     1      24.878   0.277  52.967  1.00  0.00    -0.340 N 
HETATM   13  H6  UNL     1      24.663   1.020  52.260  1.00  0.00     0.167 HD
BRANCH  12  14
HETATM   14  C7  UNL     1      26.253  -0.009  53.126  1.00  0.00     0.035 A 
HETATM   15  C8  UNL     1      26.883  -1.204  52.863  1.00  0.00     0.032 A 
HETATM   16  C9  UNL     1      28.214  -1.448  53.032  1.00  0.00     0.046 A 
HETATM   17  C10 UNL     1      29.017  -0.433  53.503  1.00  0.00     0.138 A 
HETATM   18  F1  UNL     1      30.342  -0.622  53.689  1.00  0.00    -0.204 F 
HETATM   19  C11 UNL     1      28.470   0.783  53.788  1.00  0.00     0.074 A 
HETATM   20 CL1  UNL     1      29.469   2.079  54.386  1.00  0.00    -0.081 Cl
HETATM   21  C12 UNL     1      27.121   0.954  53.593  1.00  0.00     0.056 A 
ENDBRANCH  12  14
ENDBRANCH   7  12
BRANCH   1  22
HETATM   22  O1  UNL     1      18.039  -0.115  52.507  1.00  0.00    -0.356 OA
HETATM   23  C1  UNL     1      17.509  -1.308  53.059  1.00  0.00     0.209 C 
ENDBRANCH   1  22
BRANCH  11  24
HETATM   24  N4  UNL     1      19.350   2.045  51.072  1.00  0.00     0.132 N 
HETATM   25  H13 UNL     1      18.357   1.716  51.270  1.00  0.00     0.321 HD
BRANCH  24  26
HETATM   26  C16 UNL     1      19.368   3.442  51.419  1.00  0.00     0.387 C 
HETATM   27 CL2  UNL     1      20.869   3.744  52.338  1.00  0.00    -0.098 Cl
ENDBRANCH  24  26
ENDBRANCH  11  24
TORSDOF 5
ENDMDL
MODEL 2
REMARK VINA RESULT:      -7.9      2.838      4.363
REMARK  5 active torsions:
REMARK  status: ('A' for Active; 'I' for Inactive)
REMARK    1  A    between atoms: O1_2  and  C2_3 
REMARK    2  A    between atoms: C6_9  and  N3_10 
REMARK    3  A    between atoms: N3_10  and  C7_11 
REMARK    4  A    between atoms: C15_22  and  N4_23 
REMARK    5  A    between atoms: N4_23  and  C16_24 
ROOT
HETATM    1  C2  UNL     1      21.825   1.846  50.725  1.00  0.00     0.106 C 
HETATM    2  C3  UNL     1      22.732   2.628  50.113  1.00  0.00     0.069 C 
HETATM    3  C4  UNL     1      24.172   2.815  50.394  1.00  0.00     0.072 A 
HETATM    4  N1  UNL     1      24.868   3.346  49.345  1.00  0.00    -0.241 NA
HETATM    5  C5  UNL     1      26.205   3.545  49.495  1.00  0.00     0.235 A 
HETATM    6  N2  UNL     1      26.767   3.211  50.659  1.00  0.00    -0.224 NA
HETATM    7  C6  UNL     1      26.148   2.688  51.724  1.00  0.00     0.140 A 
HETATM    8  C13 UNL     1      24.800   2.478  51.601  1.00  0.00     0.040 A 
HETATM    9  C14 UNL     1      24.173   1.905  52.842  1.00  0.00     0.216 C 
HETATM   10  O2  UNL     1      22.806   1.853  52.799  1.00  0.00    -0.348 OA
HETATM   11  C15 UNL     1      22.247   0.985  51.895  1.00  0.00     0.415 C 
ENDROOT
BRANCH   7  12
HETATM   12  N3  UNL     1      26.835   2.356  52.917  1.00  0.00    -0.340 N 
HETATM   13  H6  UNL     1      26.685   2.991  53.736  1.00  0.00     0.167 HD
BRANCH  12  14
HETATM   14  C7  UNL     1      27.704   1.268  53.162  1.00  0.00     0.035 A 
HETATM   15  C8  UNL     1      28.967   1.326  53.703  1.00  0.00     0.032 A 
HETATM   16  C9  UNL     1      29.782   0.254  53.923  1.00  0.00     0.046 A 
HETATM   17  C10 UNL     1      29.328  -1.001  53.583  1.00  0.00     0.138 A 
HETATM   18  F1  UNL     1      30.095  -2.096  53.779  1.00  0.00    -0.204 F 
HETATM   19  C11 UNL     1      28.085  -1.145  53.040  1.00  0.00     0.074 A 
HETATM   20 CL1  UNL     1      27.494  -2.724  52.604  1.00  0.00    -0.081 Cl
HETATM   21  C12 UNL     1      27.322  -0.019  52.849  1.00  0.00     0.056 A 
ENDBRANCH  12  14
ENDBRANCH   7  12
BRANCH   1  22
HETATM   22  O1  UNL     1      20.569   1.965  50.141  1.00  0.00    -0.356 OA
HETATM   23  C1  UNL     1      20.048   3.242  49.811  1.00  0.00     0.209 C 
ENDBRANCH   1  22
BRANCH  11  24
HETATM   24  N4  UNL     1      21.144   0.212  52.385  1.00  0.00     0.132 N 
HETATM   25  H13 UNL     1      21.499  -0.790  52.443  1.00  0.00     0.321 HD
BRANCH  24  26
HETATM   26  C16 UNL     1      20.755   0.560  53.726  1.00  0.00     0.387 C 
HETATM   27 CL2  UNL     1      21.534  -0.610  54.827  1.00  0.00    -0.098 Cl
ENDBRANCH  24  26
ENDBRANCH  11  24
TORSDOF 5
ENDMDL
MODEL 3
REMARK VINA RESULT:      -7.8      4.996      7.204
REMARK  5 active torsions:
REMARK  status: ('A' for Active; 'I' for Inactive)
REMARK    1  A    between atoms: O1_2  and  C2_3 
REMARK    2  A    between atoms: C6_9  and  N3_10 
REMARK    3  A    between atoms: N3_10  and  C7_11 
REMARK    4  A    between atoms: C15_22  and  N4_23 
REMARK    5  A    between atoms: N4_23  and  C16_24 
ROOT
HETATM    1  C2  UNL     1      25.184  -0.214  53.842  1.00  0.00     0.106 C 
HETATM    2  C3  UNL     1      24.179   0.421  53.214  1.00  0.00     0.069 C 
HETATM    3  C4  UNL     1      24.204   1.296  52.022  1.00  0.00     0.072 A 
HETATM    4  N1  UNL     1      22.985   1.429  51.418  1.00  0.00    -0.241 NA
HETATM    5  C5  UNL     1      22.901   2.202  50.302  1.00  0.00     0.235 A 
HETATM    6  N2  UNL     1      24.014   2.790  49.855  1.00  0.00    -0.224 NA
HETATM    7  C6  UNL     1      25.235   2.703  50.395  1.00  0.00     0.140 A 
HETATM    8  C13 UNL     1      25.348   1.931  51.521  1.00  0.00     0.040 A 
HETATM    9  C14 UNL     1      26.745   1.895  52.078  1.00  0.00     0.216 C 
HETATM   10  O2  UNL     1      26.841   1.276  53.294  1.00  0.00    -0.348 OA
HETATM   11  C15 UNL     1      26.598  -0.074  53.323  1.00  0.00     0.415 C 
ENDROOT
BRANCH   7  12
HETATM   12  N3  UNL     1      26.361   3.358  49.839  1.00  0.00    -0.340 N 
HETATM   13  H6  UNL     1      27.215   2.771  49.685  1.00  0.00     0.167 HD
BRANCH  12  14
HETATM   14  C7  UNL     1      26.495   4.711  49.452  1.00  0.00     0.035 A 
HETATM   15  C8  UNL     1      27.429   5.234  48.588  1.00  0.00     0.032 A 
HETATM   16  C9  UNL     1      27.533   6.548  48.238  1.00  0.00     0.046 A 
HETATM   17  C10 UNL     1      26.640   7.447  48.780  1.00  0.00     0.138 A 
HETATM   18  F1  UNL     1      26.699   8.761  48.467  1.00  0.00    -0.204 F 
HETATM   19  C11 UNL     1      25.683   7.009  49.646  1.00  0.00     0.074 A 
HETATM   20 CL1  UNL     1      24.547   8.132  50.341  1.00  0.00    -0.081 Cl
HETATM   21  C12 UNL     1      25.641   5.671  49.950  1.00  0.00     0.056 A 
ENDBRANCH  12  14
ENDBRANCH   7  12
BRANCH   1  22
HETATM   22  O1  UNL     1      24.726  -0.942  54.934  1.00  0.00    -0.356 OA
HETATM   23  C1  UNL     1      23.341  -1.202  55.095  1.00  0.00     0.209 C 
ENDBRANCH   1  22
BRANCH  11  24
HETATM   24  N4  UNL     1      27.511  -0.847  54.113  1.00  0.00     0.132 N 
HETATM   25  H13 UNL     1      27.908  -1.584  53.455  1.00  0.00     0.321 HD
BRANCH  24  26
HETATM   26  C16 UNL     1      28.647  -0.092  54.574  1.00  0.00     0.387 C 
HETATM   27 CL2  UNL     1      30.036  -0.538  53.544  1.00  0.00    -0.098 Cl
ENDBRANCH  24  26
ENDBRANCH  11  24
TORSDOF 5
ENDMDL
MODEL 4
REMARK VINA RESULT:      -7.7      1.998      2.337
REMARK  5 active torsions:
REMARK  status: ('A' for Active; 'I' for Inactive)
REMARK    1  A    between atoms: O1_2  and  C2_3 
REMARK    2  A    between atoms: C6_9  and  N3_10 
REMARK    3  A    between atoms: N3_10  and  C7_11 
REMARK    4  A    between atoms: C15_22  and  N4_23 
REMARK    5  A    between atoms: N4_23  and  C16_24 
ROOT
HETATM    1  C2  UNL     1      20.324   3.235  52.228  1.00  0.00     0.106 C 
HETATM    2  C3  UNL     1      20.435   2.000  52.748  1.00  0.00     0.069 C 
HETATM    3  C4  UNL     1      21.638   1.173  52.986  1.00  0.00     0.072 A 
HETATM    4  N1  UNL     1      21.438   0.168  53.892  1.00  0.00    -0.241 NA
HETATM    5  C5  UNL     1      22.487  -0.643  54.195  1.00  0.00     0.235 A 
HETATM    6  N2  UNL     1      23.656  -0.415  53.592  1.00  0.00    -0.224 NA
HETATM    7  C6  UNL     1      23.921   0.546  52.699  1.00  0.00     0.140 A 
HETATM    8  C13 UNL     1      22.882   1.377  52.375  1.00  0.00     0.040 A 
HETATM    9  C14 UNL     1      23.252   2.420  51.356  1.00  0.00     0.216 C 
HETATM   10  O2  UNL     1      22.187   3.143  50.892  1.00  0.00    -0.348 OA
HETATM   11  C15 UNL     1      21.567   3.977  51.788  1.00  0.00     0.415 C 
ENDROOT
BRANCH   7  12
HETATM   12  N3  UNL     1      25.203   0.715  52.120  1.00  0.00    -0.340 N 
HETATM   13  H6  UNL     1      25.240   1.231  51.209  1.00  0.00     0.167 HD
BRANCH  12  14
HETATM   14  C7  UNL     1      26.457   0.283  52.608  1.00  0.00     0.035 A 
HETATM   15  C8  UNL     1      26.971  -0.992  52.551  1.00  0.00     0.032 A 
HETATM   16  C9  UNL     1      28.185  -1.377  53.037  1.00  0.00     0.046 A 
HETATM   17  C10 UNL     1      28.985  -0.430  53.640  1.00  0.00     0.138 A 
HETATM   18  F1  UNL     1      30.197  -0.758  54.139  1.00  0.00    -0.204 F 
HETATM   19  C11 UNL     1      28.548   0.858  53.738  1.00  0.00     0.074 A 
HETATM   20 CL1  UNL     1      29.544   2.068  54.498  1.00  0.00    -0.081 Cl
HETATM   21  C12 UNL     1      27.313   1.169  53.225  1.00  0.00     0.056 A 
ENDBRANCH  12  14
ENDBRANCH   7  12
BRANCH   1  22
HETATM   22  O1  UNL     1      18.998   3.652  52.179  1.00  0.00    -0.356 OA
HETATM   23  C1  UNL     1      18.099   3.079  51.245  1.00  0.00     0.209 C 
ENDBRANCH   1  22
BRANCH  11  24
HETATM   24  N4  UNL     1      21.235   5.279  51.290  1.00  0.00     0.132 N 
HETATM   25  H13 UNL     1      21.855   5.959  51.825  1.00  0.00     0.321 HD
BRANCH  24  26
HETATM   26  C16 UNL     1      21.573   5.463  49.903  1.00  0.00     0.387 C 
HETATM   27 CL2  UNL     1      20.117   5.077  48.944  1.00  0.00    -0.098 Cl
ENDBRANCH  24  26
ENDBRANCH  11  24
TORSDOF 5
ENDMDL
MODEL 5
REMARK VINA RESULT:      -7.5      4.218      7.697
REMARK  5 active torsions:
REMARK  status: ('A' for Active; 'I' for Inactive)
REMARK    1  A    between atoms: O1_2  and  C2_3 
REMARK    2  A    between atoms: C6_9  and  N3_10 
REMARK    3  A    between atoms: N3_10  and  C7_11 
REMARK    4  A    between atoms: C15_22  and  N4_23 
REMARK    5  A    between atoms: N4_23  and  C16_24 
ROOT
HETATM    1  C2  UNL     1      26.963   2.165  52.566  1.00  0.00     0.106 C 
HETATM    2  C3  UNL     1      26.479   1.296  53.470  1.00  0.00     0.069 C 
HETATM    3  C4  UNL     1      25.138   0.680  53.573  1.00  0.00     0.072 A 
HETATM    4  N1  UNL     1      25.114  -0.449  54.343  1.00  0.00    -0.241 NA
HETATM    5  C5  UNL     1      23.931  -1.102  54.491  1.00  0.00     0.235 A 
HETATM    6  N2  UNL     1      22.854  -0.607  53.876  1.00  0.00    -0.224 NA
HETATM    7  C6  UNL     1      22.806   0.490  53.110  1.00  0.00     0.140 A 
HETATM    8  C13 UNL     1      23.984   1.168  52.945  1.00  0.00     0.040 A 
HETATM    9  C14 UNL     1      23.847   2.395  52.086  1.00  0.00     0.216 C 
HETATM   10  O2  UNL     1      24.969   3.178  52.055  1.00  0.00    -0.348 OA
HETATM   11  C15 UNL     1      26.076   2.649  51.441  1.00  0.00     0.415 C 
ENDROOT
BRANCH   7  12
HETATM   12  N3  UNL     1      21.612   0.932  52.489  1.00  0.00    -0.340 N 
HETATM   13  H6  UNL     1      21.661   1.844  51.976  1.00  0.00     0.167 HD
BRANCH  12  14
HETATM   14  C7  UNL     1      20.347   0.302  52.457  1.00  0.00     0.035 A 
HETATM   15  C8  UNL     1      19.799  -0.499  53.432  1.00  0.00     0.032 A 
HETATM   16  C9  UNL     1      18.574  -1.095  53.368  1.00  0.00     0.046 A 
HETATM   17  C10 UNL     1      17.801  -0.896  52.245  1.00  0.00     0.138 A 
HETATM   18  F1  UNL     1      16.580  -1.464  52.130  1.00  0.00    -0.204 F 
HETATM   19  C11 UNL     1      18.272  -0.115  51.231  1.00  0.00     0.074 A 
HETATM   20 CL1  UNL     1      17.309   0.148  49.804  1.00  0.00    -0.081 Cl
HETATM   21  C12 UNL     1      19.515   0.452  51.369  1.00  0.00     0.056 A 
ENDBRANCH  12  14
ENDBRANCH   7  12
BRANCH   1  22
HETATM   22  O1  UNL     1      28.287   2.496  52.834  1.00  0.00    -0.356 OA
HETATM   23  C1  UNL     1      28.980   1.877  53.904  1.00  0.00     0.209 C 
ENDBRANCH   1  22
BRANCH  11  24
HETATM   24  N4  UNL     1      26.788   3.544  50.577  1.00  0.00     0.132 N 
HETATM   25  H13 UNL     1      27.478   2.937  50.040  1.00  0.00     0.321 HD
BRANCH  24  26
HETATM   26  C16 UNL     1      25.954   4.155  49.576  1.00  0.00     0.387 C 
HETATM   27 CL2  UNL     1      26.988   5.250  48.616  1.00  0.00    -0.098 Cl
ENDBRANCH  24  26
ENDBRANCH  11  24
TORSDOF 5
ENDMDL
MODEL 6
REMARK VINA RESULT:      -7.5      3.958      8.112
REMARK  5 active torsions:
REMARK  status: ('A' for Active; 'I' for Inactive)
REMARK    1  A    between atoms: O1_2  and  C2_3 
REMARK    2  A    between atoms: C6_9  and  N3_10 
REMARK    3  A    between atoms: N3_10  and  C7_11 
REMARK    4  A    between atoms: C15_22  and  N4_23 
REMARK    5  A    between atoms: N4_23  and  C16_24 
ROOT
HETATM    1  C2  UNL     1      26.315   1.740  53.860  1.00  0.00     0.106 C 
HETATM    2  C3  UNL     1      25.644   2.844  53.489  1.00  0.00     0.069 C 
HETATM    3  C4  UNL     1      24.292   2.983  52.904  1.00  0.00     0.072 A 
HETATM    4  N1  UNL     1      23.768   4.239  53.036  1.00  0.00    -0.241 NA
HETATM    5  C5  UNL     1      22.521   4.470  52.545  1.00  0.00     0.235 A 
HETATM    6  N2  UNL     1      21.874   3.459  51.960  1.00  0.00    -0.224 NA
HETATM    7  C6  UNL     1      22.326   2.209  51.797  1.00  0.00     0.140 A 
HETATM    8  C13 UNL     1      23.580   1.949  52.282  1.00  0.00     0.040 A 
HETATM    9  C14 UNL     1      24.024   0.530  52.048  1.00  0.00     0.216 C 
HETATM   10  O2  UNL     1      25.335   0.300  52.366  1.00  0.00    -0.348 OA
HETATM   11  C15 UNL     1      25.673   0.380  53.694  1.00  0.00     0.415 C 
ENDROOT
BRANCH   7  12
HETATM   12  N3  UNL     1      21.558   1.198  51.169  1.00  0.00    -0.340 N 
HETATM   13  H6  UNL     1      21.870   0.897  50.216  1.00  0.00     0.167 HD
BRANCH  12  14
HETATM   14  C7  UNL     1      20.416   0.524  51.659  1.00  0.00     0.035 A 
HETATM   15  C8  UNL     1      20.281  -0.089  52.883  1.00  0.00     0.032 A 
HETATM   16  C9  UNL     1      19.164  -0.736  53.323  1.00  0.00     0.046 A 
HETATM   17  C10 UNL     1      18.066  -0.796  52.494  1.00  0.00     0.138 A 
HETATM   18  F1  UNL     1      16.934  -1.425  52.881  1.00  0.00    -0.204 F 
HETATM   19  C11 UNL     1      18.118  -0.213  51.262  1.00  0.00     0.074 A 
HETATM   20 CL1  UNL     1      16.740  -0.279  50.200  1.00  0.00    -0.081 Cl
HETATM   21  C12 UNL     1      19.278   0.421  50.889  1.00  0.00     0.056 A 
ENDBRANCH  12  14
ENDBRANCH   7  12
BRANCH   1  22
HETATM   22  O1  UNL     1      27.571   2.052  54.370  1.00  0.00    -0.356 OA
HETATM   23  C1  UNL     1      28.621   2.445  53.502  1.00  0.00     0.209 C 
ENDBRANCH   1  22
BRANCH  11  24
HETATM   24  N4  UNL     1      26.540  -0.656  54.172  1.00  0.00     0.132 N 
HETATM   25  H13 UNL     1      25.897  -1.415  54.553  1.00  0.00     0.321 HD
BRANCH  24  26
HETATM   26  C16 UNL     1      27.302  -1.289  53.128  1.00  0.00     0.387 C 
HETATM   27 CL2  UNL     1      29.025  -1.171  53.580  1.00  0.00    -0.098 Cl
ENDBRANCH  24  26
ENDBRANCH  11  24
TORSDOF 5
ENDMDL
MODEL 7
REMARK VINA RESULT:      -7.5      4.536      5.738
REMARK  5 active torsions:
REMARK  status: ('A' for Active; 'I' for Inactive)
REMARK    1  A    between atoms: O1_2  and  C2_3 
REMARK    2  A    between atoms: C6_9  and  N3_10 
REMARK    3  A    between atoms: N3_10  and  C7_11 
REMARK    4  A    between atoms: C15_22  and  N4_23 
REMARK    5  A    between atoms: N4_23  and  C16_24 
ROOT
HETATM    1  C2  UNL     1      22.819   0.425  53.463  1.00  0.00     0.106 C 
HETATM    2  C3  UNL     1      24.160   0.352  53.522  1.00  0.00     0.069 C 
HETATM    3  C4  UNL     1      25.187   1.107  52.771  1.00  0.00     0.072 A 
HETATM    4  N1  UNL     1      26.420   1.086  53.362  1.00  0.00    -0.241 NA
HETATM    5  C5  UNL     1      27.433   1.763  52.760  1.00  0.00     0.235 A 
HETATM    6  N2  UNL     1      27.172   2.413  51.623  1.00  0.00    -0.224 NA
HETATM    7  C6  UNL     1      25.993   2.475  50.992  1.00  0.00     0.140 A 
HETATM    8  C13 UNL     1      24.954   1.801  51.576  1.00  0.00     0.040 A 
HETATM    9  C14 UNL     1      23.669   1.904  50.801  1.00  0.00     0.216 C 
HETATM   10  O2  UNL     1      22.671   1.097  51.274  1.00  0.00    -0.348 OA
HETATM   11  C15 UNL     1      22.162   1.401  52.512  1.00  0.00     0.415 C 
ENDROOT
BRANCH   7  12
HETATM   12  N3  UNL     1      25.811   3.203  49.790  1.00  0.00    -0.340 N 
HETATM   13  H6  UNL     1      25.341   2.696  49.003  1.00  0.00     0.167 HD
BRANCH  12  14
HETATM   14  C7  UNL     1      26.174   4.538  49.502  1.00  0.00     0.035 A 
HETATM   15  C8  UNL     1      27.232   4.957  48.729  1.00  0.00     0.032 A 
HETATM   16  C9  UNL     1      27.558   6.257  48.474  1.00  0.00     0.046 A 
HETATM   17  C10 UNL     1      26.780   7.252  49.024  1.00  0.00     0.138 A 
HETATM   18  F1  UNL     1      27.059   8.556  48.804  1.00  0.00    -0.204 F 
HETATM   19  C11 UNL     1      25.711   6.920  49.803  1.00  0.00     0.074 A 
HETATM   20 CL1  UNL     1      24.717   8.165  50.507  1.00  0.00    -0.081 Cl
HETATM   21  C12 UNL     1      25.446   5.589  50.015  1.00  0.00     0.056 A 
ENDBRANCH  12  14
ENDBRANCH   7  12
BRANCH   1  22
HETATM   22  O1  UNL     1      22.219  -0.467  54.346  1.00  0.00    -0.356 OA
HETATM   23  C1  UNL     1      23.009  -1.229  55.244  1.00  0.00     0.209 C 
ENDBRANCH   1  22
BRANCH  11  24
HETATM   24  N4  UNL     1      20.734   1.340  52.623  1.00  0.00     0.132 N 
HETATM   25  H13 UNL     1      20.523   1.428  53.663  1.00  0.00     0.321 HD
BRANCH  24  26
HETATM   26  C16 UNL     1      20.066   2.451  52.000  1.00  0.00     0.387 C 
HETATM   27 CL2  UNL     1      21.049   3.909  52.314  1.00  0.00    -0.098 Cl
ENDBRANCH  24  26
ENDBRANCH  11  24
TORSDOF 5
ENDMDL
MODEL 8
REMARK VINA RESULT:      -7.4      4.182      8.325
REMARK  5 active torsions:
REMARK  status: ('A' for Active; 'I' for Inactive)
REMARK    1  A    between atoms: O1_2  and  C2_3 
REMARK    2  A    between atoms: C6_9  and  N3_10 
REMARK    3  A    between atoms: N3_10  and  C7_11 
REMARK    4  A    between atoms: C15_22  and  N4_23 
REMARK    5  A    between atoms: N4_23  and  C16_24 
ROOT
HETATM    1  C2  UNL     1      25.070   0.906  52.650  1.00  0.00     0.106 C 
HETATM    2  C3  UNL     1      24.095   1.645  52.092  1.00  0.00     0.069 C 
HETATM    3  C4  UNL     1      22.636   1.636  52.336  1.00  0.00     0.072 A 
HETATM    4  N1  UNL     1      22.006   2.775  51.918  1.00  0.00    -0.241 NA
HETATM    5  C5  UNL     1      20.663   2.874  52.110  1.00  0.00     0.235 A 
HETATM    6  N2  UNL     1      20.031   1.854  52.696  1.00  0.00    -0.224 NA
HETATM    7  C6  UNL     1      20.584   0.715  53.128  1.00  0.00     0.140 A 
HETATM    8  C13 UNL     1      21.935   0.587  52.947  1.00  0.00     0.040 A 
HETATM    9  C14 UNL     1      22.479  -0.725  53.443  1.00  0.00     0.216 C 
HETATM   10  O2  UNL     1      23.789  -0.941  53.112  1.00  0.00    -0.348 OA
HETATM   11  C15 UNL     1      24.720  -0.123  53.702  1.00  0.00     0.415 C 
ENDROOT
BRANCH   7  12
HETATM   12  N3  UNL     1      19.828  -0.309  53.750  1.00  0.00    -0.340 N 
HETATM   13  H6  UNL     1      20.180  -0.655  54.675  1.00  0.00     0.167 HD
BRANCH  12  14
HETATM   14  C7  UNL     1      18.645  -0.935  53.295  1.00  0.00     0.035 A 
HETATM   15  C8  UNL     1      17.717  -0.413  52.424  1.00  0.00     0.032 A 
HETATM   16  C9  UNL     1      16.582  -1.044  52.008  1.00  0.00     0.046 A 
HETATM   17  C10 UNL     1      16.317  -2.309  52.485  1.00  0.00     0.138 A 
HETATM   18  F1  UNL     1      15.207  -2.978  52.105  1.00  0.00    -0.204 F 
HETATM   19  C11 UNL     1      17.188  -2.898  53.353  1.00  0.00     0.074 A 
HETATM   20 CL1  UNL     1      16.870  -4.497  53.967  1.00  0.00    -0.081 Cl
HETATM   21  C12 UNL     1      18.310  -2.200  53.727  1.00  0.00     0.056 A 
ENDBRANCH  12  14
ENDBRANCH   7  12
BRANCH   1  22
HETATM   22  O1  UNL     1      26.319   1.234  52.134  1.00  0.00    -0.356 OA
HETATM   23  C1  UNL     1      26.468   2.341  51.261  1.00  0.00     0.209 C 
ENDBRANCH   1  22
BRANCH  11  24
HETATM   24  N4  UNL     1      25.899  -0.780  54.185  1.00  0.00     0.132 N 
HETATM   25  H13 UNL     1      26.577  -0.794  53.364  1.00  0.00     0.321 HD
BRANCH  24  26
HETATM   26  C16 UNL     1      26.573  -0.051  55.226  1.00  0.00     0.387 C 
HETATM   27 CL2  UNL     1      28.288   0.093  54.752  1.00  0.00    -0.098 Cl
ENDBRANCH  24  26
ENDBRANCH  11  24
TORSDOF 5
ENDMDL
MODEL 9
REMARK VINA RESULT:      -7.4      2.453      2.936
REMARK  5 active torsions:
REMARK  status: ('A' for Active; 'I' for Inactive)
REMARK    1  A    between atoms: O1_2  and  C2_3 
REMARK    2  A    between atoms: C6_9  and  N3_10 
REMARK    3  A    between atoms: N3_10  and  C7_11 
REMARK    4  A    between atoms: C15_22  and  N4_23 
REMARK    5  A    between atoms: N4_23  and  C16_24 
ROOT
HETATM    1  C2  UNL     1      20.991   1.835  50.252  1.00  0.00     0.106 C 
HETATM    2  C3  UNL     1      21.195   0.774  51.053  1.00  0.00     0.069 C 
HETATM    3  C4  UNL     1      22.296   0.496  52.001  1.00  0.00     0.072 A 
HETATM    4  N1  UNL     1      21.983  -0.450  52.937  1.00  0.00    -0.241 NA
HETATM    5  C5  UNL     1      22.922  -0.769  53.868  1.00  0.00     0.235 A 
HETATM    6  N2  UNL     1      24.100  -0.141  53.819  1.00  0.00    -0.224 NA
HETATM    7  C6  UNL     1      24.471   0.792  52.934  1.00  0.00     0.140 A 
HETATM    8  C13 UNL     1      23.544   1.132  51.984  1.00  0.00     0.040 A 
HETATM    9  C14 UNL     1      24.040   2.173  51.018  1.00  0.00     0.216 C 
HETATM   10  O2  UNL     1      23.197   2.395  49.963  1.00  0.00    -0.348 OA
HETATM   11  C15 UNL     1      21.986   2.974  50.249  1.00  0.00     0.415 C 
ENDROOT
BRANCH   7  12
HETATM   12  N3  UNL     1      25.745   1.411  52.970  1.00  0.00    -0.340 N 
HETATM   13  H6  UNL     1      25.770   2.441  52.777  1.00  0.00     0.167 HD
BRANCH  12  14
HETATM   14  C7  UNL     1      27.003   0.828  53.240  1.00  0.00     0.035 A 
HETATM   15  C8  UNL     1      28.124   1.467  53.719  1.00  0.00     0.032 A 
HETATM   16  C9  UNL     1      29.327   0.873  53.964  1.00  0.00     0.046 A 
HETATM   17  C10 UNL     1      29.459  -0.477  53.721  1.00  0.00     0.138 A 
HETATM   18  F1  UNL     1      30.629  -1.115  53.947  1.00  0.00    -0.204 F 
HETATM   19  C11 UNL     1      28.394  -1.184  53.245  1.00  0.00     0.074 A 
HETATM   20 CL1  UNL     1      28.542  -2.891  52.931  1.00  0.00    -0.081 Cl
HETATM   21  C12 UNL     1      27.215  -0.516  53.022  1.00  0.00     0.056 A 
ENDBRANCH  12  14
ENDBRANCH   7  12
BRANCH   1  22
HETATM   22  O1  UNL     1      19.821   1.699  49.512  1.00  0.00    -0.356 OA
HETATM   23  C1  UNL     1      18.710   0.998  50.046  1.00  0.00     0.209 C 
ENDBRANCH   1  22
BRANCH  11  24
HETATM   24  N4  UNL     1      21.572   4.012  49.351  1.00  0.00     0.132 N 
HETATM   25  H13 UNL     1      21.614   4.914  49.915  1.00  0.00     0.321 HD
BRANCH  24  26
HETATM   26  C16 UNL     1      22.476   4.207  48.249  1.00  0.00     0.387 C 
HETATM   27 CL2  UNL     1      21.918   3.164  46.911  1.00  0.00    -0.098 Cl
ENDBRANCH  24  26
ENDBRANCH  11  24
TORSDOF 5
ENDMDL
