MODEL 1
REMARK VINA RESULT:      -8.6      0.000      0.000
REMARK  6 active torsions:
REMARK  status: ('A' for Active; 'I' for Inactive)
REMARK    1  A    between atoms: N1_1  and  C1_2 
REMARK    2  A    between atoms: C1_2  and  C2_3 
REMARK    3  A    between atoms: C1_2  and  C4_6 
REMARK    4  A    between atoms: C2_3  and  C3_4 
REMARK    5  A    between atoms: C3_4  and  O1_5 
REMARK    6  A    between atoms: C4_6  and  C5_7 
ROOT
HETATM    1  C5  UNL     1      26.463   0.596  53.865  1.00  0.00     0.032 C 
HETATM    2  C6  UNL     1      25.779  -0.319  54.877  1.00  0.00    -0.017 C 
HETATM    3  C7  UNL     1      24.560  -0.791  55.009  1.00  0.00     0.016 C 
HETATM    4  C8  UNL     1      23.440  -1.526  55.563  1.00  0.00     0.117 C 
HETATM    5  N2  UNL     1      22.204  -1.688  55.235  1.00  0.00    -0.255 NA
HETATM    6  C9  UNL     1      21.737  -1.025  54.066  1.00  0.00     0.228 C 
HETATM    7  N3  UNL     1      21.850   0.216  53.652  1.00  0.00    -0.263 NA
HETATM    8  C10 UNL     1      21.266   0.637  52.393  1.00  0.00     0.275 C 
HETATM    9  N4  UNL     1      22.081   1.729  51.890  1.00  0.00    -0.350 N 
HETATM   10  C11 UNL     1      22.128   3.169  51.753  1.00  0.00     0.041 A 
HETATM   11  C12 UNL     1      21.560   4.417  51.956  1.00  0.00     0.030 A 
HETATM   12  C13 UNL     1      22.253   5.524  51.488  1.00  0.00     0.002 A 
HETATM   13  C14 UNL     1      23.467   5.495  50.835  1.00  0.00     0.001 A 
HETATM   14  C15 UNL     1      24.023   4.226  50.640  1.00  0.00     0.012 A 
HETATM   15  C16 UNL     1      23.341   3.113  51.102  1.00  0.00    -0.005 A 
HETATM   16  C17 UNL     1      23.347   1.629  51.234  1.00  0.00     0.144 A 
HETATM   17  C18 UNL     1      24.490   1.206  52.008  1.00  0.00    -0.000 C 
HETATM   18  C19 UNL     1      25.390   0.938  52.904  1.00  0.00    -0.020 C 
ENDROOT
BRANCH   1  19
HETATM   19  C4  UNL     1      27.617  -0.145  53.287  1.00  0.00     0.047 C 
BRANCH  19  20
HETATM   20  C1  UNL     1      28.911  -0.081  54.011  1.00  0.00     0.221 C 
BRANCH  20  21
HETATM   21  N1  UNL     1      29.701   1.056  53.651  1.00  0.00     0.083 N 
HETATM   22  H1  UNL     1      30.562   1.117  54.247  1.00  0.00     0.313 HD
HETATM   23  H2  UNL     1      29.119   1.919  53.751  1.00  0.00     0.313 HD
ENDBRANCH  20  21
BRANCH  20  24
HETATM   24  C2  UNL     1      29.766  -1.318  53.773  1.00  0.00     0.061 C 
BRANCH  24  25
HETATM   25  C3  UNL     1      29.038  -2.293  52.875  1.00  0.00     0.166 C 
BRANCH  25  26
HETATM   26  O1  UNL     1      28.733  -3.493  53.524  1.00  0.00    -0.401 OA
HETATM   27  H8  UNL     1      29.391  -4.184  53.225  1.00  0.00     0.209 HD
ENDBRANCH  25  26
ENDBRANCH  24  25
ENDBRANCH  20  24
ENDBRANCH  19  20
ENDBRANCH   1  19
TORSDOF 6
ENDMDL
MODEL 2
REMARK VINA RESULT:      -8.5      3.209      7.227
REMARK  6 active torsions:
REMARK  status: ('A' for Active; 'I' for Inactive)
REMARK    1  A    between atoms: N1_1  and  C1_2 
REMARK    2  A    between atoms: C1_2  and  C2_3 
REMARK    3  A    between atoms: C1_2  and  C4_6 
REMARK    4  A    between atoms: C2_3  and  C3_4 
REMARK    5  A    between atoms: C3_4  and  O1_5 
REMARK    6  A    between atoms: C4_6  and  C5_7 
ROOT
HETATM    1  C5  UNL     1      22.345   1.004  53.094  1.00  0.00     0.032 C 
HETATM    2  C6  UNL     1      21.779   2.266  52.450  1.00  0.00    -0.017 C 
HETATM    3  C7  UNL     1      22.258   3.166  51.620  1.00  0.00     0.016 C 
HETATM    4  C8  UNL     1      22.313   4.342  50.775  1.00  0.00     0.117 C 
HETATM    5  N2  UNL     1      23.207   4.882  50.021  1.00  0.00    -0.255 NA
HETATM    6  C9  UNL     1      24.475   4.243  49.936  1.00  0.00     0.228 C 
HETATM    7  N3  UNL     1      25.296   3.787  50.854  1.00  0.00    -0.263 NA
HETATM    8  C10 UNL     1      26.553   3.165  50.487  1.00  0.00     0.275 C 
HETATM    9  N4  UNL     1      26.872   2.203  51.529  1.00  0.00    -0.350 N 
HETATM   10  C11 UNL     1      27.705   1.992  52.693  1.00  0.00     0.041 A 
HETATM   11  C12 UNL     1      28.667   2.445  53.583  1.00  0.00     0.030 A 
HETATM   12  C13 UNL     1      29.056   1.587  54.601  1.00  0.00     0.002 A 
HETATM   13  C14 UNL     1      28.569   0.314  54.810  1.00  0.00     0.001 A 
HETATM   14  C15 UNL     1      27.599  -0.123  53.901  1.00  0.00     0.012 A 
HETATM   15  C16 UNL     1      27.202   0.724  52.880  1.00  0.00    -0.005 A 
HETATM   16  C17 UNL     1      26.312   0.899  51.699  1.00  0.00     0.144 A 
HETATM   17  C18 UNL     1      24.930   0.793  52.100  1.00  0.00    -0.000 C 
HETATM   18  C19 UNL     1      23.732   0.926  52.581  1.00  0.00    -0.020 C 
ENDROOT
BRANCH   1  19
HETATM   19  C4  UNL     1      21.465  -0.135  52.716  1.00  0.00     0.047 C 
BRANCH  19  20
HETATM   20  C1  UNL     1      20.217  -0.331  53.493  1.00  0.00     0.221 C 
BRANCH  20  21
HETATM   21  N1  UNL     1      20.226  -1.526  54.280  1.00  0.00     0.083 N 
HETATM   22  H1  UNL     1      20.963  -2.191  53.942  1.00  0.00     0.313 HD
HETATM   23  H2  UNL     1      19.280  -1.969  54.235  1.00  0.00     0.313 HD
ENDBRANCH  20  21
BRANCH  20  24
HETATM   24  C2  UNL     1      18.985  -0.389  52.600  1.00  0.00     0.061 C 
BRANCH  24  25
HETATM   25  C3  UNL     1      18.086  -1.529  53.022  1.00  0.00     0.166 C 
BRANCH  25  26
HETATM   26  O1  UNL     1      17.177  -1.154  54.016  1.00  0.00    -0.401 OA
HETATM   27  H8  UNL     1      16.462  -0.599  53.591  1.00  0.00     0.209 HD
ENDBRANCH  25  26
ENDBRANCH  24  25
ENDBRANCH  20  24
ENDBRANCH  19  20
ENDBRANCH   1  19
TORSDOF 6
ENDMDL
MODEL 3
REMARK VINA RESULT:      -8.3      1.635      1.843
REMARK  6 active torsions:
REMARK  status: ('A' for Active; 'I' for Inactive)
REMARK    1  A    between atoms: N1_1  and  C1_2 
REMARK    2  A    between atoms: C1_2  and  C2_3 
REMARK    3  A    between atoms: C1_2  and  C4_6 
REMARK    4  A    between atoms: C2_3  and  C3_4 
REMARK    5  A    between atoms: C3_4  and  O1_5 
REMARK    6  A    between atoms: C4_6  and  C5_7 
ROOT
HETATM    1  C5  UNL     1      25.897   0.081  53.671  1.00  0.00     0.032 C 
HETATM    2  C6  UNL     1      25.027  -0.734  54.625  1.00  0.00    -0.017 C 
HETATM    3  C7  UNL     1      23.738  -0.976  54.710  1.00  0.00     0.016 C 
HETATM    4  C8  UNL     1      22.486  -1.512  55.206  1.00  0.00     0.117 C 
HETATM    5  N2  UNL     1      21.252  -1.424  54.847  1.00  0.00    -0.255 NA
HETATM    6  C9  UNL     1      20.948  -0.634  53.704  1.00  0.00     0.228 C 
HETATM    7  N3  UNL     1      21.301   0.581  53.353  1.00  0.00    -0.263 NA
HETATM    8  C10 UNL     1      20.841   1.160  52.106  1.00  0.00     0.275 C 
HETATM    9  N4  UNL     1      21.859   2.102  51.673  1.00  0.00    -0.350 N 
HETATM   10  C11 UNL     1      22.177   3.512  51.608  1.00  0.00     0.041 A 
HETATM   11  C12 UNL     1      21.846   4.834  51.862  1.00  0.00     0.030 A 
HETATM   12  C13 UNL     1      22.746   5.812  51.463  1.00  0.00     0.002 A 
HETATM   13  C14 UNL     1      23.950   5.586  50.832  1.00  0.00     0.001 A 
HETATM   14  C15 UNL     1      24.266   4.245  50.584  1.00  0.00     0.012 A 
HETATM   15  C16 UNL     1      23.376   3.260  50.978  1.00  0.00    -0.005 A 
HETATM   16  C17 UNL     1      23.102   1.797  51.037  1.00  0.00     0.144 A 
HETATM   17  C18 UNL     1      24.124   1.133  51.810  1.00  0.00    -0.000 C 
HETATM   18  C19 UNL     1      24.933   0.661  52.709  1.00  0.00    -0.020 C 
ENDROOT
BRANCH   1  19
HETATM   19  C4  UNL     1      26.908  -0.837  53.080  1.00  0.00     0.047 C 
BRANCH  19  20
HETATM   20  C1  UNL     1      28.341  -0.530  53.316  1.00  0.00     0.221 C 
BRANCH  20  21
HETATM   21  N1  UNL     1      29.123  -1.690  53.614  1.00  0.00     0.083 N 
HETATM   22  H1  UNL     1      29.996  -1.713  53.033  1.00  0.00     0.313 HD
HETATM   23  H2  UNL     1      28.543  -2.544  53.442  1.00  0.00     0.313 HD
ENDBRANCH  20  21
BRANCH  20  24
HETATM   24  C2  UNL     1      28.538   0.453  54.462  1.00  0.00     0.061 C 
BRANCH  24  25
HETATM   25  C3  UNL     1      29.024   1.783  53.933  1.00  0.00     0.166 C 
BRANCH  25  26
HETATM   26  O1  UNL     1      28.088   2.806  54.115  1.00  0.00    -0.401 OA
HETATM   27  H8  UNL     1      28.576   3.625  54.413  1.00  0.00     0.209 HD
ENDBRANCH  25  26
ENDBRANCH  24  25
ENDBRANCH  20  24
ENDBRANCH  19  20
ENDBRANCH   1  19
TORSDOF 6
ENDMDL
MODEL 4
REMARK VINA RESULT:      -8.3      2.439      3.473
REMARK  6 active torsions:
REMARK  status: ('A' for Active; 'I' for Inactive)
REMARK    1  A    between atoms: N1_1  and  C1_2 
REMARK    2  A    between atoms: C1_2  and  C2_3 
REMARK    3  A    between atoms: C1_2  and  C4_6 
REMARK    4  A    between atoms: C2_3  and  C3_4 
REMARK    5  A    between atoms: C3_4  and  O1_5 
REMARK    6  A    between atoms: C4_6  and  C5_7 
ROOT
HETATM    1  C5  UNL     1      27.192   2.191  53.101  1.00  0.00     0.032 C 
HETATM    2  C6  UNL     1      25.901   1.673  53.730  1.00  0.00    -0.017 C 
HETATM    3  C7  UNL     1      24.673   1.504  53.294  1.00  0.00     0.016 C 
HETATM    4  C8  UNL     1      23.266   1.153  53.297  1.00  0.00     0.117 C 
HETATM    5  N2  UNL     1      22.316   1.187  52.428  1.00  0.00    -0.255 NA
HETATM    6  C9  UNL     1      22.627   1.673  51.127  1.00  0.00     0.228 C 
HETATM    7  N3  UNL     1      23.259   2.747  50.715  1.00  0.00    -0.263 NA
HETATM    8  C10 UNL     1      23.441   3.007  49.300  1.00  0.00     0.275 C 
HETATM    9  N4  UNL     1      24.668   3.775  49.163  1.00  0.00    -0.350 N 
HETATM   10  C11 UNL     1      25.177   5.111  48.944  1.00  0.00     0.041 A 
HETATM   11  C12 UNL     1      24.958   6.464  48.739  1.00  0.00     0.030 A 
HETATM   12  C13 UNL     1      26.069   7.279  48.573  1.00  0.00     0.002 A 
HETATM   13  C14 UNL     1      27.382   6.861  48.594  1.00  0.00     0.001 A 
HETATM   14  C15 UNL     1      27.582   5.491  48.801  1.00  0.00     0.012 A 
HETATM   15  C16 UNL     1      26.481   4.668  48.969  1.00  0.00    -0.005 A 
HETATM   16  C17 UNL     1      26.007   3.277  49.213  1.00  0.00     0.144 A 
HETATM   17  C18 UNL     1      26.514   2.796  50.476  1.00  0.00    -0.000 C 
HETATM   18  C19 UNL     1      26.804   2.540  51.715  1.00  0.00    -0.020 C 
ENDROOT
BRANCH   1  19
HETATM   19  C4  UNL     1      28.218   1.120  53.220  1.00  0.00     0.047 C 
BRANCH  19  20
HETATM   20  C1  UNL     1      27.818  -0.151  53.871  1.00  0.00     0.221 C 
BRANCH  20  21
HETATM   21  N1  UNL     1      28.661  -0.511  54.970  1.00  0.00     0.083 N 
HETATM   22  H1  UNL     1      28.104  -0.954  55.740  1.00  0.00     0.313 HD
HETATM   23  H2  UNL     1      29.153   0.346  55.314  1.00  0.00     0.313 HD
ENDBRANCH  20  21
BRANCH  20  24
HETATM   24  C2  UNL     1      27.821  -1.322  52.898  1.00  0.00     0.061 C 
BRANCH  24  25
HETATM   25  C3  UNL     1      29.036  -2.191  53.129  1.00  0.00     0.166 C 
BRANCH  25  26
HETATM   26  O1  UNL     1      28.699  -3.499  53.488  1.00  0.00    -0.401 OA
HETATM   27  H8  UNL     1      28.981  -4.108  52.747  1.00  0.00     0.209 HD
ENDBRANCH  25  26
ENDBRANCH  24  25
ENDBRANCH  20  24
ENDBRANCH  19  20
ENDBRANCH   1  19
TORSDOF 6
ENDMDL
MODEL 5
REMARK VINA RESULT:      -8.1      2.445      4.628
REMARK  6 active torsions:
REMARK  status: ('A' for Active; 'I' for Inactive)
REMARK    1  A    between atoms: N1_1  and  C1_2 
REMARK    2  A    between atoms: C1_2  and  C2_3 
REMARK    3  A    between atoms: C1_2  and  C4_6 
REMARK    4  A    between atoms: C2_3  and  C3_4 
REMARK    5  A    between atoms: C3_4  and  O1_5 
REMARK    6  A    between atoms: C4_6  and  C5_7 
ROOT
HETATM    1  C5  UNL     1      25.761  -0.048  52.516  1.00  0.00     0.032 C 
HETATM    2  C6  UNL     1      26.566   0.859  51.588  1.00  0.00    -0.017 C 
HETATM    3  C7  UNL     1      26.353   2.037  51.046  1.00  0.00     0.016 C 
HETATM    4  C8  UNL     1      26.584   3.233  50.260  1.00  0.00     0.117 C 
HETATM    5  N2  UNL     1      25.916   4.307  50.017  1.00  0.00    -0.255 NA
HETATM    6  C9  UNL     1      24.633   4.439  50.618  1.00  0.00     0.228 C 
HETATM    7  N3  UNL     1      23.605   3.626  50.690  1.00  0.00    -0.263 NA
HETATM    8  C10 UNL     1      22.391   4.018  51.378  1.00  0.00     0.275 C 
HETATM    9  N4  UNL     1      21.777   2.802  51.886  1.00  0.00    -0.350 N 
HETATM   10  C11 UNL     1      20.712   1.855  51.639  1.00  0.00     0.041 A 
HETATM   11  C12 UNL     1      19.642   1.419  50.874  1.00  0.00     0.030 A 
HETATM   12  C13 UNL     1      18.975   0.276  51.291  1.00  0.00     0.002 A 
HETATM   13  C14 UNL     1      19.282  -0.471  52.407  1.00  0.00     0.001 A 
HETATM   14  C15 UNL     1      20.366  -0.014  53.166  1.00  0.00     0.012 A 
HETATM   15  C16 UNL     1      21.040   1.125  52.760  1.00  0.00    -0.005 A 
HETATM   16  C17 UNL     1      22.161   2.063  53.048  1.00  0.00     0.144 A 
HETATM   17  C18 UNL     1      23.418   1.354  53.026  1.00  0.00    -0.000 C 
HETATM   18  C19 UNL     1      24.503   0.699  52.749  1.00  0.00    -0.020 C 
ENDROOT
BRANCH   1  19
HETATM   19  C4  UNL     1      26.581  -0.301  53.731  1.00  0.00     0.047 C 
BRANCH  19  20
HETATM   20  C1  UNL     1      28.057  -0.296  53.580  1.00  0.00     0.221 C 
BRANCH  20  21
HETATM   21  N1  UNL     1      28.637  -1.600  53.686  1.00  0.00     0.083 N 
HETATM   22  H1  UNL     1      29.674  -1.538  53.831  1.00  0.00     0.313 HD
HETATM   23  H2  UNL     1      28.417  -2.141  52.818  1.00  0.00     0.313 HD
ENDBRANCH  20  21
BRANCH  20  24
HETATM   24  C2  UNL     1      28.739   0.586  54.617  1.00  0.00     0.061 C 
BRANCH  24  25
HETATM   25  C3  UNL     1      29.027   1.951  54.035  1.00  0.00     0.166 C 
BRANCH  25  26
HETATM   26  O1  UNL     1      27.951   2.832  54.178  1.00  0.00    -0.401 OA
HETATM   27  H8  UNL     1      27.812   2.998  55.154  1.00  0.00     0.209 HD
ENDBRANCH  25  26
ENDBRANCH  24  25
ENDBRANCH  20  24
ENDBRANCH  19  20
ENDBRANCH   1  19
TORSDOF 6
ENDMDL
MODEL 6
REMARK VINA RESULT:      -8.0      3.554      6.903
REMARK  6 active torsions:
REMARK  status: ('A' for Active; 'I' for Inactive)
REMARK    1  A    between atoms: N1_1  and  C1_2 
REMARK    2  A    between atoms: C1_2  and  C2_3 
REMARK    3  A    between atoms: C1_2  and  C4_6 
REMARK    4  A    between atoms: C2_3  and  C3_4 
REMARK    5  A    between atoms: C3_4  and  O1_5 
REMARK    6  A    between atoms: C4_6  and  C5_7 
ROOT
HETATM    1  C5  UNL     1      25.977   3.606  49.741  1.00  0.00     0.032 C 
HETATM    2  C6  UNL     1      24.571   3.205  49.305  1.00  0.00    -0.017 C 
HETATM    3  C7  UNL     1      23.612   2.490  49.848  1.00  0.00     0.016 C 
HETATM    4  C8  UNL     1      22.329   1.833  50.005  1.00  0.00     0.117 C 
HETATM    5  N2  UNL     1      21.782   1.108  50.919  1.00  0.00    -0.255 NA
HETATM    6  C9  UNL     1      22.543   0.833  52.090  1.00  0.00     0.228 C 
HETATM    7  N3  UNL     1      23.772   0.404  52.261  1.00  0.00    -0.263 NA
HETATM    8  C10 UNL     1      24.312   0.204  53.592  1.00  0.00     0.275 C 
HETATM    9  N4  UNL     1      25.747   0.419  53.506  1.00  0.00    -0.350 N 
HETATM   10  C11 UNL     1      27.018  -0.270  53.451  1.00  0.00     0.041 A 
HETATM   11  C12 UNL     1      27.749  -1.448  53.429  1.00  0.00     0.030 A 
HETATM   12  C13 UNL     1      29.131  -1.347  53.371  1.00  0.00     0.002 A 
HETATM   13  C14 UNL     1      29.850  -0.171  53.333  1.00  0.00     0.001 A 
HETATM   14  C15 UNL     1      29.093   1.006  53.356  1.00  0.00     0.012 A 
HETATM   15  C16 UNL     1      27.712   0.918  53.413  1.00  0.00    -0.005 A 
HETATM   16  C17 UNL     1      26.429   1.673  53.450  1.00  0.00     0.144 A 
HETATM   17  C18 UNL     1      26.292   2.477  52.259  1.00  0.00    -0.000 C 
HETATM   18  C19 UNL     1      26.141   2.968  51.067  1.00  0.00    -0.020 C 
ENDROOT
BRANCH   1  19
HETATM   19  C4  UNL     1      26.048   5.092  49.741  1.00  0.00     0.047 C 
BRANCH  19  20
HETATM   20  C1  UNL     1      26.906   5.742  48.719  1.00  0.00     0.221 C 
BRANCH  20  21
HETATM   21  N1  UNL     1      28.299   5.473  48.899  1.00  0.00     0.083 N 
HETATM   22  H1  UNL     1      28.636   5.844  49.821  1.00  0.00     0.313 HD
HETATM   23  H2  UNL     1      28.833   5.903  48.110  1.00  0.00     0.313 HD
ENDBRANCH  20  21
BRANCH  20  24
HETATM   24  C2  UNL     1      26.738   7.256  48.704  1.00  0.00     0.061 C 
BRANCH  24  25
HETATM   25  C3  UNL     1      26.020   7.715  49.952  1.00  0.00     0.166 C 
BRANCH  25  26
HETATM   26  O1  UNL     1      26.860   8.408  50.828  1.00  0.00    -0.401 OA
HETATM   27  H8  UNL     1      26.622   8.144  51.763  1.00  0.00     0.209 HD
ENDBRANCH  25  26
ENDBRANCH  24  25
ENDBRANCH  20  24
ENDBRANCH  19  20
ENDBRANCH   1  19
TORSDOF 6
ENDMDL
MODEL 7
REMARK VINA RESULT:      -8.0      3.468      5.105
REMARK  6 active torsions:
REMARK  status: ('A' for Active; 'I' for Inactive)
REMARK    1  A    between atoms: N1_1  and  C1_2 
REMARK    2  A    between atoms: C1_2  and  C2_3 
REMARK    3  A    between atoms: C1_2  and  C4_6 
REMARK    4  A    between atoms: C2_3  and  C3_4 
REMARK    5  A    between atoms: C3_4  and  O1_5 
REMARK    6  A    between atoms: C4_6  and  C5_7 
ROOT
HETATM    1  C5  UNL     1      26.679   2.119  52.140  1.00  0.00     0.032 C 
HETATM    2  C6  UNL     1      25.426   2.443  52.950  1.00  0.00    -0.017 C 
HETATM    3  C7  UNL     1      24.382   3.216  52.752  1.00  0.00     0.016 C 
HETATM    4  C8  UNL     1      23.114   3.876  52.996  1.00  0.00     0.117 C 
HETATM    5  N2  UNL     1      22.382   4.712  52.344  1.00  0.00    -0.255 NA
HETATM    6  C9  UNL     1      22.849   5.151  51.074  1.00  0.00     0.228 C 
HETATM    7  N3  UNL     1      24.011   5.612  50.673  1.00  0.00    -0.263 NA
HETATM    8  C10 UNL     1      24.224   5.996  49.291  1.00  0.00     0.275 C 
HETATM    9  N4  UNL     1      25.633   5.786  49.003  1.00  0.00    -0.350 N 
HETATM   10  C11 UNL     1      26.896   6.473  48.845  1.00  0.00     0.041 A 
HETATM   11  C12 UNL     1      27.638   7.644  48.849  1.00  0.00     0.030 A 
HETATM   12  C13 UNL     1      28.992   7.550  48.561  1.00  0.00     0.002 A 
HETATM   13  C14 UNL     1      29.672   6.386  48.269  1.00  0.00     0.001 A 
HETATM   14  C15 UNL     1      28.904   5.216  48.269  1.00  0.00     0.012 A 
HETATM   15  C16 UNL     1      27.552   5.298  48.556  1.00  0.00    -0.005 A 
HETATM   16  C17 UNL     1      26.280   4.542  48.725  1.00  0.00     0.144 A 
HETATM   17  C18 UNL     1      26.412   3.583  49.795  1.00  0.00    -0.000 C 
HETATM   18  C19 UNL     1      26.537   2.933  50.912  1.00  0.00    -0.020 C 
ENDROOT
BRANCH   1  19
HETATM   19  C4  UNL     1      26.714   0.647  51.925  1.00  0.00     0.047 C 
BRANCH  19  20
HETATM   20  C1  UNL     1      27.149  -0.207  53.057  1.00  0.00     0.221 C 
BRANCH  20  21
HETATM   21  N1  UNL     1      28.405   0.194  53.614  1.00  0.00     0.083 N 
HETATM   22  H1  UNL     1      28.273   0.946  54.333  1.00  0.00     0.313 HD
HETATM   23  H2  UNL     1      29.028   0.525  52.842  1.00  0.00     0.313 HD
ENDBRANCH  20  21
BRANCH  20  24
HETATM   24  C2  UNL     1      27.279  -1.671  52.659  1.00  0.00     0.061 C 
BRANCH  24  25
HETATM   25  C3  UNL     1      28.641  -2.200  53.047  1.00  0.00     0.166 C 
BRANCH  25  26
HETATM   26  O1  UNL     1      28.605  -3.547  53.420  1.00  0.00    -0.401 OA
HETATM   27  H8  UNL     1      29.061  -4.079  52.708  1.00  0.00     0.209 HD
ENDBRANCH  25  26
ENDBRANCH  24  25
ENDBRANCH  20  24
ENDBRANCH  19  20
ENDBRANCH   1  19
TORSDOF 6
ENDMDL
MODEL 8
REMARK VINA RESULT:      -7.7      3.299      6.704
REMARK  6 active torsions:
REMARK  status: ('A' for Active; 'I' for Inactive)
REMARK    1  A    between atoms: N1_1  and  C1_2 
REMARK    2  A    between atoms: C1_2  and  C2_3 
REMARK    3  A    between atoms: C1_2  and  C4_6 
REMARK    4  A    between atoms: C2_3  and  C3_4 
REMARK    5  A    between atoms: C3_4  and  O1_5 
REMARK    6  A    between atoms: C4_6  and  C5_7 
ROOT
HETATM    1  C5  UNL     1      23.941   3.759  49.733  1.00  0.00     0.032 C 
HETATM    2  C6  UNL     1      22.614   3.219  49.207  1.00  0.00    -0.017 C 
HETATM    3  C7  UNL     1      21.748   2.332  49.642  1.00  0.00     0.016 C 
HETATM    4  C8  UNL     1      20.564   1.497  49.687  1.00  0.00     0.117 C 
HETATM    5  N2  UNL     1      20.098   0.619  50.506  1.00  0.00    -0.255 NA
HETATM    6  C9  UNL     1      20.859   0.332  51.674  1.00  0.00     0.228 C 
HETATM    7  N3  UNL     1      22.130   0.056  51.851  1.00  0.00    -0.263 NA
HETATM    8  C10 UNL     1      22.658  -0.201  53.177  1.00  0.00     0.275 C 
HETATM    9  N4  UNL     1      24.052   0.211  53.167  1.00  0.00    -0.350 N 
HETATM   10  C11 UNL     1      25.406  -0.293  53.096  1.00  0.00     0.041 A 
HETATM   11  C12 UNL     1      26.291  -1.354  52.991  1.00  0.00     0.030 A 
HETATM   12  C13 UNL     1      27.648  -1.065  52.996  1.00  0.00     0.002 A 
HETATM   13  C14 UNL     1      28.200   0.195  53.097  1.00  0.00     0.001 A 
HETATM   14  C15 UNL     1      27.289   1.252  53.203  1.00  0.00     0.012 A 
HETATM   15  C16 UNL     1      25.933   0.975  53.198  1.00  0.00    -0.005 A 
HETATM   16  C17 UNL     1      24.558   1.545  53.257  1.00  0.00     0.144 A 
HETATM   17  C18 UNL     1      24.343   2.437  52.143  1.00  0.00    -0.000 C 
HETATM   18  C19 UNL     1      24.156   3.020  50.998  1.00  0.00    -0.020 C 
ENDROOT
BRANCH   1  19
HETATM   19  C4  UNL     1      23.809   5.234  49.877  1.00  0.00     0.047 C 
BRANCH  19  20
HETATM   20  C1  UNL     1      24.912   5.964  50.548  1.00  0.00     0.221 C 
BRANCH  20  21
HETATM   21  N1  UNL     1      24.455   6.871  51.556  1.00  0.00     0.083 N 
HETATM   22  H1  UNL     1      23.681   6.444  52.120  1.00  0.00     0.313 HD
HETATM   23  H2  UNL     1      24.134   7.754  51.097  1.00  0.00     0.313 HD
ENDBRANCH  20  21
BRANCH  20  24
HETATM   24  C2  UNL     1      25.752   6.769  49.565  1.00  0.00     0.061 C 
BRANCH  24  25
HETATM   25  C3  UNL     1      25.833   8.213  50.005  1.00  0.00     0.166 C 
BRANCH  25  26
HETATM   26  O1  UNL     1      26.958   8.470  50.794  1.00  0.00    -0.401 OA
HETATM   27  H8  UNL     1      27.160   9.447  50.739  1.00  0.00     0.209 HD
ENDBRANCH  25  26
ENDBRANCH  24  25
ENDBRANCH  20  24
ENDBRANCH  19  20
ENDBRANCH   1  19
TORSDOF 6
ENDMDL
MODEL 9
REMARK VINA RESULT:      -7.5      3.073      5.651
REMARK  6 active torsions:
REMARK  status: ('A' for Active; 'I' for Inactive)
REMARK    1  A    between atoms: N1_1  and  C1_2 
REMARK    2  A    between atoms: C1_2  and  C2_3 
REMARK    3  A    between atoms: C1_2  and  C4_6 
REMARK    4  A    between atoms: C2_3  and  C3_4 
REMARK    5  A    between atoms: C3_4  and  O1_5 
REMARK    6  A    between atoms: C4_6  and  C5_7 
ROOT
HETATM    1  C5  UNL     1      25.832   2.476  50.755  1.00  0.00     0.032 C 
HETATM    2  C6  UNL     1      26.587   3.353  49.759  1.00  0.00    -0.017 C 
HETATM    3  C7  UNL     1      26.459   4.595  49.351  1.00  0.00     0.016 C 
HETATM    4  C8  UNL     1      26.724   5.820  48.622  1.00  0.00     0.117 C 
HETATM    5  N2  UNL     1      26.190   6.992  48.585  1.00  0.00    -0.255 NA
HETATM    6  C9  UNL     1      25.067   7.235  49.423  1.00  0.00     0.228 C 
HETATM    7  N3  UNL     1      23.958   6.562  49.628  1.00  0.00    -0.263 NA
HETATM    8  C10 UNL     1      22.955   7.044  50.558  1.00  0.00     0.275 C 
HETATM    9  N4  UNL     1      22.267   5.878  51.085  1.00  0.00    -0.350 N 
HETATM   10  C11 UNL     1      21.047   5.108  50.975  1.00  0.00     0.041 A 
HETATM   11  C12 UNL     1      19.806   4.894  50.395  1.00  0.00     0.030 A 
HETATM   12  C13 UNL     1      19.060   3.816  50.849  1.00  0.00     0.002 A 
HETATM   13  C14 UNL     1      19.445   2.930  51.832  1.00  0.00     0.001 A 
HETATM   14  C15 UNL     1      20.700   3.163  52.405  1.00  0.00     0.012 A 
HETATM   15  C16 UNL     1      21.454   4.236  51.961  1.00  0.00    -0.005 A 
HETATM   16  C17 UNL     1      22.734   4.985  52.099  1.00  0.00     0.144 A 
HETATM   17  C18 UNL     1      23.849   4.121  51.793  1.00  0.00    -0.000 C 
HETATM   18  C19 UNL     1      24.759   3.357  51.271  1.00  0.00    -0.020 C 
ENDROOT
BRANCH   1  19
HETATM   19  C4  UNL     1      26.806   2.000  51.773  1.00  0.00     0.047 C 
BRANCH  19  20
HETATM   20  C1  UNL     1      26.402   2.068  53.200  1.00  0.00     0.221 C 
BRANCH  20  21
HETATM   21  N1  UNL     1      27.460   2.492  54.064  1.00  0.00     0.083 N 
HETATM   22  H1  UNL     1      27.142   3.271  54.691  1.00  0.00     0.313 HD
HETATM   23  H2  UNL     1      28.273   2.796  53.481  1.00  0.00     0.313 HD
ENDBRANCH  20  21
BRANCH  20  24
HETATM   24  C2  UNL     1      25.904   0.727  53.722  1.00  0.00     0.061 C 
BRANCH  24  25
HETATM   25  C3  UNL     1      26.712   0.301  54.926  1.00  0.00     0.166 C 
BRANCH  25  26
HETATM   26  O1  UNL     1      27.806  -0.497  54.581  1.00  0.00    -0.401 OA
HETATM   27  H8  UNL     1      27.492  -1.195  53.939  1.00  0.00     0.209 HD
ENDBRANCH  25  26
ENDBRANCH  24  25
ENDBRANCH  20  24
ENDBRANCH  19  20
ENDBRANCH   1  19
TORSDOF 6
ENDMDL
