MODEL 1
REMARK VINA RESULT:      -7.9      0.000      0.000
REMARK  5 active torsions:
REMARK  status: ('A' for Active; 'I' for Inactive)
REMARK    1  A    between atoms: C2_2  and  C3_3 
REMARK    2  A    between atoms: C3_3  and  N1_4 
REMARK    3  A    between atoms: N1_4  and  P1_5 
REMARK    4  A    between atoms: P1_5  and  C4_6 
REMARK    5  A    between atoms: C16_19  and  N2_20 
ROOT
HETATM    1  C1  UNL     1      26.428   1.164  51.559  1.00  0.00     0.026 C 
HETATM    2  C2  UNL     1      26.239   0.478  52.874  1.00  0.00     0.052 C 
HETATM    3  C10 UNL     1      27.218  -0.632  52.960  1.00  0.00    -0.011 A 
HETATM    4  C11 UNL     1      27.149  -1.964  52.606  1.00  0.00     0.011 A 
HETATM    5  C12 UNL     1      28.223  -2.805  52.793  1.00  0.00     0.001 A 
HETATM    6  C13 UNL     1      29.383  -2.264  53.353  1.00  0.00     0.003 A 
HETATM    7  C14 UNL     1      29.502  -0.930  53.727  1.00  0.00     0.037 A 
HETATM    8  C15 UNL     1      28.378  -0.125  53.512  1.00  0.00     0.079 A 
HETATM    9  O1  UNL     1      28.162   1.224  53.765  1.00  0.00    -0.315 OA
HETATM   10  C16 UNL     1      26.755   1.358  53.990  1.00  0.00     0.373 C 
ENDROOT
BRANCH   2  11
HETATM   11  C3  UNL     1      24.826   0.035  53.120  1.00  0.00     0.110 C 
BRANCH  11  12
HETATM   12  N1  UNL     1      23.905   1.114  53.268  1.00  0.00    -0.297 NA
HETATM   13  H6  UNL     1      23.682   1.254  54.274  1.00  0.00     0.126 HD
BRANCH  12  14
HETATM   14  P1  UNL     1      22.344   0.810  52.433  1.00  0.00    -0.023 P 
HETATM   15  H7  UNL     1      21.223   1.316  53.165  1.00  0.00     0.079 HD
BRANCH  14  16
HETATM   16  C4  UNL     1      22.378   1.405  50.704  1.00  0.00    -0.019 A 
HETATM   17  C5  UNL     1      23.266   2.414  50.328  1.00  0.00     0.013 A 
HETATM   18  C6  UNL     1      23.302   2.874  49.021  1.00  0.00     0.001 A 
HETATM   19  C7  UNL     1      22.464   2.353  48.046  1.00  0.00     0.000 A 
HETATM   20  C8  UNL     1      21.582   1.345  48.436  1.00  0.00     0.001 A 
HETATM   21  C9  UNL     1      21.536   0.879  49.733  1.00  0.00     0.013 A 
ENDBRANCH  14  16
ENDBRANCH  12  14
ENDBRANCH  11  12
ENDBRANCH   2  11
BRANCH  10  22
HETATM   22  N2  UNL     1      26.334   2.730  53.888  1.00  0.00     0.108 N 
HETATM   23  H18 UNL     1      25.683   2.828  53.099  1.00  0.00     0.316 HD
HETATM   24  H19 UNL     1      27.139   3.393  53.861  1.00  0.00     0.316 HD
ENDBRANCH  10  22
TORSDOF 5
ENDMDL
MODEL 2
REMARK VINA RESULT:      -7.9      3.136      4.708
REMARK  5 active torsions:
REMARK  status: ('A' for Active; 'I' for Inactive)
REMARK    1  A    between atoms: C2_2  and  C3_3 
REMARK    2  A    between atoms: C3_3  and  N1_4 
REMARK    3  A    between atoms: N1_4  and  P1_5 
REMARK    4  A    between atoms: P1_5  and  C4_6 
REMARK    5  A    between atoms: C16_19  and  N2_20 
ROOT
HETATM    1  C1  UNL     1      26.320  -0.809  52.594  1.00  0.00     0.026 C 
HETATM    2  C2  UNL     1      25.756   0.238  53.501  1.00  0.00     0.052 C 
HETATM    3  C10 UNL     1      24.334  -0.092  53.757  1.00  0.00    -0.011 A 
HETATM    4  C11 UNL     1      23.165   0.271  53.121  1.00  0.00     0.011 A 
HETATM    5  C12 UNL     1      21.943  -0.182  53.566  1.00  0.00     0.001 A 
HETATM    6  C13 UNL     1      21.929  -1.020  54.684  1.00  0.00     0.003 A 
HETATM    7  C14 UNL     1      23.078  -1.414  55.361  1.00  0.00     0.037 A 
HETATM    8  C15 UNL     1      24.289  -0.922  54.860  1.00  0.00     0.079 A 
HETATM    9  O1  UNL     1      25.596  -1.115  55.288  1.00  0.00    -0.315 OA
HETATM   10  C16 UNL     1      26.313   0.060  54.896  1.00  0.00     0.373 C 
ENDROOT
BRANCH   2  11
HETATM   11  C3  UNL     1      25.952   1.637  52.996  1.00  0.00     0.110 C 
BRANCH  11  12
HETATM   12  N1  UNL     1      26.009   1.731  51.573  1.00  0.00    -0.297 NA
HETATM   13  H6  UNL     1      26.971   1.990  51.273  1.00  0.00     0.126 HD
BRANCH  12  14
HETATM   14  P1  UNL     1      24.909   2.991  50.919  1.00  0.00    -0.023 P 
HETATM   15  H7  UNL     1      24.063   3.556  51.926  1.00  0.00     0.079 HD
BRANCH  14  16
HETATM   16  C4  UNL     1      25.827   4.264  49.981  1.00  0.00    -0.019 A 
HETATM   17  C5  UNL     1      26.991   3.923  49.293  1.00  0.00     0.013 A 
HETATM   18  C6  UNL     1      27.697   4.879  48.577  1.00  0.00     0.001 A 
HETATM   19  C7  UNL     1      27.274   6.198  48.519  1.00  0.00     0.000 A 
HETATM   20  C8  UNL     1      26.108   6.525  49.211  1.00  0.00     0.001 A 
HETATM   21  C9  UNL     1      25.398   5.584  49.926  1.00  0.00     0.013 A 
ENDBRANCH  14  16
ENDBRANCH  12  14
ENDBRANCH  11  12
ENDBRANCH   2  11
BRANCH  10  22
HETATM   22  N2  UNL     1      27.735  -0.154  54.929  1.00  0.00     0.108 N 
HETATM   23  H18 UNL     1      28.085   0.030  55.878  1.00  0.00     0.316 HD
HETATM   24  H19 UNL     1      28.234   0.374  54.181  1.00  0.00     0.316 HD
ENDBRANCH  10  22
TORSDOF 5
ENDMDL
MODEL 3
REMARK VINA RESULT:      -7.8      2.079      3.622
REMARK  5 active torsions:
REMARK  status: ('A' for Active; 'I' for Inactive)
REMARK    1  A    between atoms: C2_2  and  C3_3 
REMARK    2  A    between atoms: C3_3  and  N1_4 
REMARK    3  A    between atoms: N1_4  and  P1_5 
REMARK    4  A    between atoms: P1_5  and  C4_6 
REMARK    5  A    between atoms: C16_19  and  N2_20 
ROOT
HETATM    1  C1  UNL     1      26.671  -1.056  52.772  1.00  0.00     0.026 C 
HETATM    2  C2  UNL     1      25.824   0.078  53.254  1.00  0.00     0.052 C 
HETATM    3  C10 UNL     1      24.511  -0.471  53.670  1.00  0.00    -0.011 A 
HETATM    4  C11 UNL     1      23.325  -0.662  52.991  1.00  0.00     0.011 A 
HETATM    5  C12 UNL     1      22.226  -1.204  53.620  1.00  0.00     0.001 A 
HETATM    6  C13 UNL     1      22.354  -1.552  54.967  1.00  0.00     0.003 A 
HETATM    7  C14 UNL     1      23.526  -1.379  55.695  1.00  0.00     0.037 A 
HETATM    8  C15 UNL     1      24.608  -0.825  55.001  1.00  0.00     0.079 A 
HETATM    9  O1  UNL     1      25.899  -0.524  55.418  1.00  0.00    -0.315 OA
HETATM   10  C16 UNL     1      26.331   0.563  54.594  1.00  0.00     0.373 C 
ENDROOT
BRANCH   2  11
HETATM   11  C3  UNL     1      25.704   1.199  52.263  1.00  0.00     0.110 C 
BRANCH  11  12
HETATM   12  N1  UNL     1      25.370   2.454  52.855  1.00  0.00    -0.297 NA
HETATM   13  H6  UNL     1      24.917   2.300  53.779  1.00  0.00     0.126 HD
BRANCH  12  14
HETATM   14  P1  UNL     1      24.208   3.398  51.863  1.00  0.00    -0.023 P 
HETATM   15  H7  UNL     1      24.815   3.963  50.697  1.00  0.00     0.079 HD
BRANCH  14  16
HETATM   16  C4  UNL     1      22.711   2.425  51.471  1.00  0.00    -0.019 A 
HETATM   17  C5  UNL     1      21.624   2.430  52.346  1.00  0.00     0.013 A 
HETATM   18  C6  UNL     1      20.482   1.697  52.061  1.00  0.00     0.001 A 
HETATM   19  C7  UNL     1      20.379   0.938  50.904  1.00  0.00     0.000 A 
HETATM   20  C8  UNL     1      21.472   0.942  50.039  1.00  0.00     0.001 A 
HETATM   21  C9  UNL     1      22.613   1.667  50.311  1.00  0.00     0.013 A 
ENDBRANCH  14  16
ENDBRANCH  12  14
ENDBRANCH  11  12
ENDBRANCH   2  11
BRANCH  10  22
HETATM   22  N2  UNL     1      27.759   0.729  54.647  1.00  0.00     0.108 N 
HETATM   23  H18 UNL     1      28.194   0.184  53.892  1.00  0.00     0.316 HD
HETATM   24  H19 UNL     1      28.148   0.530  55.594  1.00  0.00     0.316 HD
ENDBRANCH  10  22
TORSDOF 5
ENDMDL
MODEL 4
REMARK VINA RESULT:      -7.7      2.059      2.701
REMARK  5 active torsions:
REMARK  status: ('A' for Active; 'I' for Inactive)
REMARK    1  A    between atoms: C2_2  and  C3_3 
REMARK    2  A    between atoms: C3_3  and  N1_4 
REMARK    3  A    between atoms: N1_4  and  P1_5 
REMARK    4  A    between atoms: P1_5  and  C4_6 
REMARK    5  A    between atoms: C16_19  and  N2_20 
ROOT
HETATM    1  C1  UNL     1      26.292   1.523  51.403  1.00  0.00     0.026 C 
HETATM    2  C2  UNL     1      26.092   0.856  52.727  1.00  0.00     0.052 C 
HETATM    3  C10 UNL     1      27.331   0.113  53.060  1.00  0.00    -0.011 A 
HETATM    4  C11 UNL     1      27.732  -1.185  52.815  1.00  0.00     0.011 A 
HETATM    5  C12 UNL     1      28.961  -1.641  53.239  1.00  0.00     0.001 A 
HETATM    6  C13 UNL     1      29.785  -0.745  53.924  1.00  0.00     0.003 A 
HETATM    7  C14 UNL     1      29.427   0.572  54.196  1.00  0.00     0.037 A 
HETATM    8  C15 UNL     1      28.167   0.975  53.740  1.00  0.00     0.079 A 
HETATM    9  O1  UNL     1      27.512   2.197  53.840  1.00  0.00    -0.315 OA
HETATM   10  C16 UNL     1      26.114   1.890  53.830  1.00  0.00     0.373 C 
ENDROOT
BRANCH   2  11
HETATM   11  C3  UNL     1      24.860   0.001  52.786  1.00  0.00     0.110 C 
BRANCH  11  12
HETATM   12  N1  UNL     1      23.768   0.616  53.467  1.00  0.00    -0.297 NA
HETATM   13  H6  UNL     1      24.106   1.072  54.339  1.00  0.00     0.126 HD
BRANCH  12  14
HETATM   14  P1  UNL     1      22.506  -0.563  53.958  1.00  0.00    -0.023 P 
HETATM   15  H7  UNL     1      22.281  -0.569  55.371  1.00  0.00     0.079 HD
BRANCH  14  16
HETATM   16  C4  UNL     1      20.963  -0.336  53.004  1.00  0.00    -0.019 A 
HETATM   17  C5  UNL     1      20.996   0.297  51.762  1.00  0.00     0.013 A 
HETATM   18  C6  UNL     1      19.833   0.476  51.027  1.00  0.00     0.001 A 
HETATM   19  C7  UNL     1      18.605   0.034  51.497  1.00  0.00     0.000 A 
HETATM   20  C8  UNL     1      18.587  -0.598  52.740  1.00  0.00     0.001 A 
HETATM   21  C9  UNL     1      19.737  -0.781  53.480  1.00  0.00     0.013 A 
ENDBRANCH  14  16
ENDBRANCH  12  14
ENDBRANCH  11  12
ENDBRANCH   2  11
BRANCH  10  22
HETATM   22  N2  UNL     1      25.320   3.057  53.545  1.00  0.00     0.108 N 
HETATM   23  H18 UNL     1      24.365   2.767  53.301  1.00  0.00     0.316 HD
HETATM   24  H19 UNL     1      25.770   3.681  52.842  1.00  0.00     0.316 HD
ENDBRANCH  10  22
TORSDOF 5
ENDMDL
MODEL 5
REMARK VINA RESULT:      -7.3      3.030      6.072
REMARK  5 active torsions:
REMARK  status: ('A' for Active; 'I' for Inactive)
REMARK    1  A    between atoms: C2_2  and  C3_3 
REMARK    2  A    between atoms: C3_3  and  N1_4 
REMARK    3  A    between atoms: N1_4  and  P1_5 
REMARK    4  A    between atoms: P1_5  and  C4_6 
REMARK    5  A    between atoms: C16_19  and  N2_20 
ROOT
HETATM    1  C1  UNL     1      23.155   3.476  52.814  1.00  0.00     0.026 C 
HETATM    2  C2  UNL     1      22.715   2.322  51.971  1.00  0.00     0.052 C 
HETATM    3  C10 UNL     1      22.479   1.163  52.864  1.00  0.00    -0.011 A 
HETATM    4  C11 UNL     1      23.297   0.137  53.293  1.00  0.00     0.011 A 
HETATM    5  C12 UNL     1      22.825  -0.840  54.142  1.00  0.00     0.001 A 
HETATM    6  C13 UNL     1      21.493  -0.756  54.552  1.00  0.00     0.003 A 
HETATM    7  C14 UNL     1      20.628   0.256  54.148  1.00  0.00     0.037 A 
HETATM    8  C15 UNL     1      21.166   1.219  53.286  1.00  0.00     0.079 A 
HETATM    9  O1  UNL     1      20.590   2.341  52.704  1.00  0.00    -0.315 OA
HETATM   10  C16 UNL     1      21.303   2.555  51.481  1.00  0.00     0.373 C 
ENDROOT
BRANCH   2  11
HETATM   11  C3  UNL     1      23.653   2.013  50.842  1.00  0.00     0.110 C 
BRANCH  11  12
HETATM   12  N1  UNL     1      24.478   3.113  50.464  1.00  0.00    -0.297 NA
HETATM   13  H6  UNL     1      24.353   3.319  49.452  1.00  0.00     0.126 HD
BRANCH  12  14
HETATM   14  P1  UNL     1      26.227   2.783  50.709  1.00  0.00    -0.023 P 
HETATM   15  H7  UNL     1      26.995   3.981  50.862  1.00  0.00     0.079 HD
BRANCH  14  16
HETATM   16  C4  UNL     1      26.504   1.595  52.071  1.00  0.00    -0.019 A 
HETATM   17  C5  UNL     1      26.712   0.245  51.789  1.00  0.00     0.013 A 
HETATM   18  C6  UNL     1      26.924  -0.668  52.813  1.00  0.00     0.001 A 
HETATM   19  C7  UNL     1      26.936  -0.273  54.143  1.00  0.00     0.000 A 
HETATM   20  C8  UNL     1      26.727   1.079  54.409  1.00  0.00     0.001 A 
HETATM   21  C9  UNL     1      26.515   1.996  53.400  1.00  0.00     0.013 A 
ENDBRANCH  14  16
ENDBRANCH  12  14
ENDBRANCH  11  12
ENDBRANCH   2  11
BRANCH  10  22
HETATM   22  N2  UNL     1      21.080   3.880  50.966  1.00  0.00     0.108 N 
HETATM   23  H18 UNL     1      20.905   3.826  49.955  1.00  0.00     0.316 HD
HETATM   24  H19 UNL     1      21.838   4.543  51.233  1.00  0.00     0.316 HD
ENDBRANCH  10  22
TORSDOF 5
ENDMDL
MODEL 6
REMARK VINA RESULT:      -7.3      3.611      5.329
REMARK  5 active torsions:
REMARK  status: ('A' for Active; 'I' for Inactive)
REMARK    1  A    between atoms: C2_2  and  C3_3 
REMARK    2  A    between atoms: C3_3  and  N1_4 
REMARK    3  A    between atoms: N1_4  and  P1_5 
REMARK    4  A    between atoms: P1_5  and  C4_6 
REMARK    5  A    between atoms: C16_19  and  N2_20 
ROOT
HETATM    1  C1  UNL     1      23.772   1.797  50.919  1.00  0.00     0.026 C 
HETATM    2  C2  UNL     1      23.517   2.250  52.322  1.00  0.00     0.052 C 
HETATM    3  C10 UNL     1      22.628   1.259  52.972  1.00  0.00    -0.011 A 
HETATM    4  C11 UNL     1      21.255   1.170  53.080  1.00  0.00     0.011 A 
HETATM    5  C12 UNL     1      20.661   0.124  53.752  1.00  0.00     0.001 A 
HETATM    6  C13 UNL     1      21.496  -0.841  54.320  1.00  0.00     0.003 A 
HETATM    7  C14 UNL     1      22.884  -0.796  54.239  1.00  0.00     0.037 A 
HETATM    8  C15 UNL     1      23.427   0.290  53.543  1.00  0.00     0.079 A 
HETATM    9  O1  UNL     1      24.748   0.632  53.280  1.00  0.00    -0.315 OA
HETATM   10  C16 UNL     1      24.763   2.058  53.157  1.00  0.00     0.373 C 
ENDROOT
BRANCH   2  11
HETATM   11  C3  UNL     1      22.996   3.655  52.411  1.00  0.00     0.110 C 
BRANCH  11  12
HETATM   12  N1  UNL     1      24.019   4.649  52.378  1.00  0.00    -0.297 NA
HETATM   13  H6  UNL     1      23.933   5.272  53.206  1.00  0.00     0.126 HD
BRANCH  12  14
HETATM   14  P1  UNL     1      23.911   5.703  50.928  1.00  0.00    -0.023 P 
HETATM   15  H7  UNL     1      23.518   7.040  51.251  1.00  0.00     0.079 HD
BRANCH  14  16
HETATM   16  C4  UNL     1      25.447   5.644  49.937  1.00  0.00    -0.019 A 
HETATM   17  C5  UNL     1      26.008   6.824  49.447  1.00  0.00     0.013 A 
HETATM   18  C6  UNL     1      27.173   6.794  48.694  1.00  0.00     0.001 A 
HETATM   19  C7  UNL     1      27.817   5.600  48.404  1.00  0.00     0.000 A 
HETATM   20  C8  UNL     1      27.245   4.430  48.901  1.00  0.00     0.001 A 
HETATM   21  C9  UNL     1      26.087   4.446  49.650  1.00  0.00     0.013 A 
ENDBRANCH  14  16
ENDBRANCH  12  14
ENDBRANCH  11  12
ENDBRANCH   2  11
BRANCH  10  22
HETATM   22  N2  UNL     1      25.967   2.519  52.516  1.00  0.00     0.108 N 
HETATM   23  H18 UNL     1      26.615   2.876  53.228  1.00  0.00     0.316 HD
HETATM   24  H19 UNL     1      25.773   3.189  51.741  1.00  0.00     0.316 HD
ENDBRANCH  10  22
TORSDOF 5
ENDMDL
MODEL 7
REMARK VINA RESULT:      -7.2      3.147      6.821
REMARK  5 active torsions:
REMARK  status: ('A' for Active; 'I' for Inactive)
REMARK    1  A    between atoms: C2_2  and  C3_3 
REMARK    2  A    between atoms: C3_3  and  N1_4 
REMARK    3  A    between atoms: N1_4  and  P1_5 
REMARK    4  A    between atoms: P1_5  and  C4_6 
REMARK    5  A    between atoms: C16_19  and  N2_20 
ROOT
HETATM    1  C1  UNL     1      23.749   3.047  49.563  1.00  0.00     0.026 C 
HETATM    2  C2  UNL     1      24.800   3.468  50.540  1.00  0.00     0.052 C 
HETATM    3  C10 UNL     1      25.774   4.329  49.827  1.00  0.00    -0.011 A 
HETATM    4  C11 UNL     1      26.948   4.049  49.158  1.00  0.00     0.011 A 
HETATM    5  C12 UNL     1      27.685   5.051  48.567  1.00  0.00     0.001 A 
HETATM    6  C13 UNL     1      27.204   6.358  48.669  1.00  0.00     0.003 A 
HETATM    7  C14 UNL     1      26.028   6.692  49.333  1.00  0.00     0.037 A 
HETATM    8  C15 UNL     1      25.324   5.631  49.912  1.00  0.00     0.079 A 
HETATM    9  O1  UNL     1      24.135   5.613  50.632  1.00  0.00    -0.315 OA
HETATM   10  C16 UNL     1      24.226   4.482  51.504  1.00  0.00     0.373 C 
ENDROOT
BRANCH   2  11
HETATM   11  C3  UNL     1      25.446   2.319  51.257  1.00  0.00     0.110 C 
BRANCH  11  12
HETATM   12  N1  UNL     1      25.135   2.263  52.648  1.00  0.00    -0.297 NA
HETATM   13  H6  UNL     1      25.772   2.892  53.179  1.00  0.00     0.126 HD
BRANCH  12  14
HETATM   14  P1  UNL     1      25.343   0.618  53.338  1.00  0.00    -0.023 P 
HETATM   15  H7  UNL     1      24.556  -0.365  52.658  1.00  0.00     0.079 HD
BRANCH  14  16
HETATM   16  C4  UNL     1      27.107   0.151  53.445  1.00  0.00    -0.019 A 
HETATM   17  C5  UNL     1      27.515  -1.131  53.076  1.00  0.00     0.013 A 
HETATM   18  C6  UNL     1      28.850  -1.499  53.152  1.00  0.00     0.001 A 
HETATM   19  C7  UNL     1      29.822  -0.612  53.594  1.00  0.00     0.000 A 
HETATM   20  C8  UNL     1      29.400   0.666  53.958  1.00  0.00     0.001 A 
HETATM   21  C9  UNL     1      28.075   1.044  53.887  1.00  0.00     0.013 A 
ENDBRANCH  14  16
ENDBRANCH  12  14
ENDBRANCH  11  12
ENDBRANCH   2  11
BRANCH  10  22
HETATM   22  N2  UNL     1      22.936   4.117  52.029  1.00  0.00     0.108 N 
HETATM   23  H18 UNL     1      22.818   4.533  52.961  1.00  0.00     0.316 HD
HETATM   24  H19 UNL     1      22.771   3.088  51.998  1.00  0.00     0.316 HD
ENDBRANCH  10  22
TORSDOF 5
ENDMDL
MODEL 8
REMARK VINA RESULT:      -7.1      2.929      3.819
REMARK  5 active torsions:
REMARK  status: ('A' for Active; 'I' for Inactive)
REMARK    1  A    between atoms: C2_2  and  C3_3 
REMARK    2  A    between atoms: C3_3  and  N1_4 
REMARK    3  A    between atoms: N1_4  and  P1_5 
REMARK    4  A    between atoms: P1_5  and  C4_6 
REMARK    5  A    between atoms: C16_19  and  N2_20 
ROOT
HETATM    1  C1  UNL     1      26.107   1.532  51.399  1.00  0.00     0.026 C 
HETATM    2  C2  UNL     1      25.121   2.111  52.363  1.00  0.00     0.052 C 
HETATM    3  C10 UNL     1      24.023   1.133  52.544  1.00  0.00    -0.011 A 
HETATM    4  C11 UNL     1      22.817   0.956  51.895  1.00  0.00     0.011 A 
HETATM    5  C12 UNL     1      21.954  -0.053  52.263  1.00  0.00     0.001 A 
HETATM    6  C13 UNL     1      22.341  -0.889  53.312  1.00  0.00     0.003 A 
HETATM    7  C14 UNL     1      23.545  -0.753  53.997  1.00  0.00     0.037 A 
HETATM    8  C15 UNL     1      24.378   0.290  53.577  1.00  0.00     0.079 A 
HETATM    9  O1  UNL     1      25.626   0.698  54.035  1.00  0.00    -0.315 OA
HETATM   10  C16 UNL     1      25.703   2.100  53.759  1.00  0.00     0.373 C 
ENDROOT
BRANCH   2  11
HETATM   11  C3  UNL     1      24.633   3.476  51.972  1.00  0.00     0.110 C 
BRANCH  11  12
HETATM   12  N1  UNL     1      25.370   4.063  50.901  1.00  0.00    -0.297 NA
HETATM   13  H6  UNL     1      25.913   4.878  51.249  1.00  0.00     0.126 HD
BRANCH  12  14
HETATM   14  P1  UNL     1      24.309   4.676  49.587  1.00  0.00    -0.023 P 
HETATM   15  H7  UNL     1      25.034   4.967  48.388  1.00  0.00     0.079 HD
BRANCH  14  16
HETATM   16  C4  UNL     1      22.888   3.563  49.294  1.00  0.00    -0.019 A 
HETATM   17  C5  UNL     1      21.648   3.845  49.867  1.00  0.00     0.013 A 
HETATM   18  C6  UNL     1      20.562   3.010  49.653  1.00  0.00     0.001 A 
HETATM   19  C7  UNL     1      20.668   1.872  48.867  1.00  0.00     0.000 A 
HETATM   20  C8  UNL     1      21.913   1.603  48.299  1.00  0.00     0.001 A 
HETATM   21  C9  UNL     1      23.000   2.425  48.505  1.00  0.00     0.013 A 
ENDBRANCH  14  16
ENDBRANCH  12  14
ENDBRANCH  11  12
ENDBRANCH   2  11
BRANCH  10  22
HETATM   22  N2  UNL     1      27.059   2.576  53.826  1.00  0.00     0.108 N 
HETATM   23  H18 UNL     1      27.066   3.598  53.713  1.00  0.00     0.316 HD
HETATM   24  H19 UNL     1      27.691   2.070  53.169  1.00  0.00     0.316 HD
ENDBRANCH  10  22
TORSDOF 5
ENDMDL
MODEL 9
REMARK VINA RESULT:      -7.1      2.619      6.229
REMARK  5 active torsions:
REMARK  status: ('A' for Active; 'I' for Inactive)
REMARK    1  A    between atoms: C2_2  and  C3_3 
REMARK    2  A    between atoms: C3_3  and  N1_4 
REMARK    3  A    between atoms: N1_4  and  P1_5 
REMARK    4  A    between atoms: P1_5  and  C4_6 
REMARK    5  A    between atoms: C16_19  and  N2_20 
ROOT
HETATM    1  C1  UNL     1      23.556   3.841  52.661  1.00  0.00     0.026 C 
HETATM    2  C2  UNL     1      24.094   2.687  51.876  1.00  0.00     0.052 C 
HETATM    3  C10 UNL     1      23.407   1.457  52.337  1.00  0.00    -0.011 A 
HETATM    4  C11 UNL     1      23.711   0.532  53.316  1.00  0.00     0.011 A 
HETATM    5  C12 UNL     1      22.889  -0.548  53.552  1.00  0.00     0.001 A 
HETATM    6  C13 UNL     1      21.741  -0.675  52.768  1.00  0.00     0.003 A 
HETATM    7  C14 UNL     1      21.391   0.229  51.770  1.00  0.00     0.037 A 
HETATM    8  C15 UNL     1      22.265   1.305  51.578  1.00  0.00     0.079 A 
HETATM    9  O1  UNL     1      22.216   2.368  50.684  1.00  0.00    -0.315 OA
HETATM   10  C16 UNL     1      23.576   2.748  50.456  1.00  0.00     0.373 C 
ENDROOT
BRANCH   2  11
HETATM   11  C3  UNL     1      25.590   2.576  51.921  1.00  0.00     0.110 C 
BRANCH  11  12
HETATM   12  N1  UNL     1      26.118   2.484  53.243  1.00  0.00    -0.297 NA
HETATM   13  H6  UNL     1      26.059   3.411  53.713  1.00  0.00     0.126 HD
BRANCH  12  14
HETATM   14  P1  UNL     1      27.849   2.006  53.264  1.00  0.00    -0.023 P 
HETATM   15  H7  UNL     1      28.560   2.569  54.372  1.00  0.00     0.079 HD
BRANCH  14  16
HETATM   16  C4  UNL     1      28.048   0.192  53.152  1.00  0.00    -0.019 A 
HETATM   17  C5  UNL     1      29.248  -0.405  53.542  1.00  0.00     0.013 A 
HETATM   18  C6  UNL     1      29.413  -1.780  53.462  1.00  0.00     0.001 A 
HETATM   19  C7  UNL     1      28.399  -2.605  52.997  1.00  0.00     0.000 A 
HETATM   20  C8  UNL     1      27.206  -1.994  52.612  1.00  0.00     0.001 A 
HETATM   21  C9  UNL     1      27.030  -0.628  52.686  1.00  0.00     0.013 A 
ENDBRANCH  14  16
ENDBRANCH  12  14
ENDBRANCH  11  12
ENDBRANCH   2  11
BRANCH  10  22
HETATM   22  N2  UNL     1      23.666   4.056  49.863  1.00  0.00     0.108 N 
HETATM   23  H18 UNL     1      24.632   4.226  49.557  1.00  0.00     0.316 HD
HETATM   24  H19 UNL     1      23.278   4.801  50.482  1.00  0.00     0.316 HD
ENDBRANCH  10  22
TORSDOF 5
ENDMDL
