MODEL 1
REMARK VINA RESULT:      -7.5      0.000      0.000
REMARK  5 active torsions:
REMARK  status: ('A' for Active; 'I' for Inactive)
REMARK    1  A    between atoms: O1_2  and  C2_3 
REMARK    2  A    between atoms: C5_6  and  C6_7 
REMARK    3  A    between atoms: C7_8  and  C8_9 
REMARK       I    between atoms: C8_9  and  N1_11 
REMARK    4  A    between atoms: N1_11  and  S1_12 
REMARK    5  A    between atoms: S1_12  and  C9_15 
ROOT
HETATM    1  C8  UNL     1      26.475   3.580  49.938  1.00  0.00     0.310 C 
HETATM    2  O2  UNL     1      26.866   2.426  49.554  1.00  0.00    -0.257 OA
HETATM    3  N1  UNL     1      25.684   3.709  51.128  1.00  0.00    -0.239 N 
HETATM    4  H6  UNL     1      25.397   4.699  51.381  1.00  0.00     0.182 HD
ENDROOT
BRANCH   1   5
HETATM    5  C7  UNL     1      26.823   4.762  49.181  1.00  0.00     0.001 C 
HETATM    6  C6  UNL     1      27.136   5.747  48.548  1.00  0.00    -0.057 C 
BRANCH   6   7
HETATM    7  C5  UNL     1      27.532   6.914  47.795  1.00  0.00     0.018 A 
HETATM    8  C4  UNL     1      26.597   7.852  47.407  1.00  0.00     0.023 A 
HETATM    9  C3  UNL     1      26.950   8.976  46.687  1.00  0.00     0.038 A 
HETATM   10  C2  UNL     1      28.268   9.188  46.334  1.00  0.00     0.068 A 
HETATM   11  C17 UNL     1      29.213   8.251  46.720  1.00  0.00     0.038 A 
HETATM   12  C16 UNL     1      28.867   7.113  47.447  1.00  0.00     0.023 A 
BRANCH  10  13
HETATM   13  O1  UNL     1      28.839  10.219  45.632  1.00  0.00    -0.356 OA
HETATM   14  C1  UNL     1      29.705  11.160  46.230  1.00  0.00     0.210 C 
ENDBRANCH  10  13
ENDBRANCH   6   7
ENDBRANCH   1   5
BRANCH   3  15
HETATM   15  S1  UNL     1      25.170   2.439  52.155  1.00  0.00     0.266 S 
HETATM   16  O3  UNL     1      24.600   3.017  53.414  1.00  0.00    -0.200 OA
HETATM   17  O4  UNL     1      24.198   1.532  51.465  1.00  0.00    -0.200 OA
BRANCH  15  18
HETATM   18  C9  UNL     1      26.553   1.482  52.639  1.00  0.00     0.080 A 
HETATM   19  C10 UNL     1      27.706   2.035  53.165  1.00  0.00     0.026 A 
HETATM   20  C11 UNL     1      28.758   1.255  53.527  1.00  0.00     0.008 A 
HETATM   21  C12 UNL     1      28.718  -0.105  53.386  1.00  0.00    -0.062 A 
HETATM   22  C13 UNL     1      29.842  -1.014  53.765  1.00  0.00     0.048 C 
HETATM   23  C14 UNL     1      27.587  -0.720  52.862  1.00  0.00     0.008 A 
HETATM   24  C15 UNL     1      26.551   0.115  52.511  1.00  0.00     0.026 A 
ENDBRANCH  15  18
ENDBRANCH   3  15
TORSDOF 5
ENDMDL
MODEL 2
REMARK VINA RESULT:      -7.4      2.965      4.191
REMARK  5 active torsions:
REMARK  status: ('A' for Active; 'I' for Inactive)
REMARK    1  A    between atoms: O1_2  and  C2_3 
REMARK    2  A    between atoms: C5_6  and  C6_7 
REMARK    3  A    between atoms: C7_8  and  C8_9 
REMARK       I    between atoms: C8_9  and  N1_11 
REMARK    4  A    between atoms: N1_11  and  S1_12 
REMARK    5  A    between atoms: S1_12  and  C9_15 
ROOT
HETATM    1  C8  UNL     1      26.577   1.621  51.457  1.00  0.00     0.310 C 
HETATM    2  O2  UNL     1      26.624   0.466  50.914  1.00  0.00    -0.257 OA
HETATM    3  N1  UNL     1      26.506   1.740  52.885  1.00  0.00    -0.239 N 
HETATM    4  H6  UNL     1      26.470   2.733  53.260  1.00  0.00     0.182 HD
ENDROOT
BRANCH   1   5
HETATM    5  C7  UNL     1      26.593   2.815  50.641  1.00  0.00     0.001 C 
HETATM    6  C6  UNL     1      26.590   3.823  49.968  1.00  0.00    -0.057 C 
BRANCH   6   7
HETATM    7  C5  UNL     1      26.567   5.032  49.179  1.00  0.00     0.018 A 
HETATM    8  C4  UNL     1      27.720   5.512  48.591  1.00  0.00     0.023 A 
HETATM    9  C3  UNL     1      27.724   6.666  47.833  1.00  0.00     0.038 A 
HETATM   10  C2  UNL     1      26.554   7.375  47.643  1.00  0.00     0.068 A 
HETATM   11  C17 UNL     1      25.393   6.900  48.228  1.00  0.00     0.038 A 
HETATM   12  C16 UNL     1      25.377   5.737  48.996  1.00  0.00     0.023 A 
BRANCH  10  13
HETATM   13  O1  UNL     1      26.327   8.529  46.937  1.00  0.00    -0.356 OA
HETATM   14  C1  UNL     1      27.119   8.916  45.834  1.00  0.00     0.210 C 
ENDBRANCH  10  13
ENDBRANCH   6   7
ENDBRANCH   1   5
BRANCH   3  15
HETATM   15  S1  UNL     1      26.477   0.456  54.016  1.00  0.00     0.266 S 
HETATM   16  O3  UNL     1      27.324  -0.671  53.512  1.00  0.00    -0.200 OA
HETATM   17  O4  UNL     1      26.904   0.911  55.378  1.00  0.00    -0.200 OA
BRANCH  15  18
HETATM   18  C9  UNL     1      24.849  -0.174  54.144  1.00  0.00     0.080 A 
HETATM   19  C10 UNL     1      24.426  -0.964  55.197  1.00  0.00     0.026 A 
HETATM   20  C11 UNL     1      23.153  -1.434  55.257  1.00  0.00     0.008 A 
HETATM   21  C12 UNL     1      22.241  -1.144  54.280  1.00  0.00    -0.062 A 
HETATM   22  C13 UNL     1      20.827  -1.631  54.291  1.00  0.00     0.048 C 
HETATM   23  C14 UNL     1      22.605  -0.355  53.195  1.00  0.00     0.008 A 
HETATM   24  C15 UNL     1      23.906   0.094  53.183  1.00  0.00     0.026 A 
ENDBRANCH  15  18
ENDBRANCH   3  15
TORSDOF 5
ENDMDL
MODEL 3
REMARK VINA RESULT:      -7.2      3.510      4.291
REMARK  5 active torsions:
REMARK  status: ('A' for Active; 'I' for Inactive)
REMARK    1  A    between atoms: O1_2  and  C2_3 
REMARK    2  A    between atoms: C5_6  and  C6_7 
REMARK    3  A    between atoms: C7_8  and  C8_9 
REMARK       I    between atoms: C8_9  and  N1_11 
REMARK    4  A    between atoms: N1_11  and  S1_12 
REMARK    5  A    between atoms: S1_12  and  C9_15 
ROOT
HETATM    1  C8  UNL     1      23.587   4.034  49.846  1.00  0.00     0.310 C 
HETATM    2  O2  UNL     1      22.851   4.622  50.709  1.00  0.00    -0.257 OA
HETATM    3  N1  UNL     1      23.207   2.747  49.338  1.00  0.00    -0.239 N 
HETATM    4  H6  UNL     1      23.870   2.323  48.625  1.00  0.00     0.182 HD
ENDROOT
BRANCH   1   5
HETATM    5  C7  UNL     1      24.806   4.655  49.377  1.00  0.00     0.001 C 
HETATM    6  C6  UNL     1      25.836   5.171  49.001  1.00  0.00    -0.057 C 
BRANCH   6   7
HETATM    7  C5  UNL     1      27.074   5.780  48.576  1.00  0.00     0.018 A 
HETATM    8  C4  UNL     1      28.236   5.038  48.503  1.00  0.00     0.023 A 
HETATM    9  C3  UNL     1      29.432   5.597  48.099  1.00  0.00     0.038 A 
HETATM   10  C2  UNL     1      29.492   6.933  47.754  1.00  0.00     0.068 A 
HETATM   11  C17 UNL     1      28.331   7.685  47.824  1.00  0.00     0.038 A 
HETATM   12  C16 UNL     1      27.118   7.131  48.231  1.00  0.00     0.023 A 
BRANCH  10  13
HETATM   13  O1  UNL     1      30.556   7.688  47.330  1.00  0.00    -0.356 OA
HETATM   14  C1  UNL     1      31.862   7.518  47.840  1.00  0.00     0.210 C 
ENDBRANCH  10  13
ENDBRANCH   6   7
ENDBRANCH   1   5
BRANCH   3  15
HETATM   15  S1  UNL     1      21.812   1.852  49.765  1.00  0.00     0.266 S 
HETATM   16  O3  UNL     1      20.673   2.793  50.013  1.00  0.00    -0.200 OA
HETATM   17  O4  UNL     1      21.475   0.826  48.726  1.00  0.00    -0.200 OA
BRANCH  15  18
HETATM   18  C9  UNL     1      22.093   1.016  51.277  1.00  0.00     0.080 A 
HETATM   19  C10 UNL     1      23.272   1.126  51.991  1.00  0.00     0.026 A 
HETATM   20  C11 UNL     1      23.450   0.460  53.161  1.00  0.00     0.008 A 
HETATM   21  C12 UNL     1      22.473  -0.345  53.678  1.00  0.00    -0.062 A 
HETATM   22  C13 UNL     1      22.610  -1.103  54.960  1.00  0.00     0.048 C 
HETATM   23  C14 UNL     1      21.265  -0.497  53.007  1.00  0.00     0.008 A 
HETATM   24  C15 UNL     1      21.137   0.199  51.826  1.00  0.00     0.026 A 
ENDBRANCH  15  18
ENDBRANCH   3  15
TORSDOF 5
ENDMDL
MODEL 4
REMARK VINA RESULT:      -7.2      2.453      3.179
REMARK  5 active torsions:
REMARK  status: ('A' for Active; 'I' for Inactive)
REMARK    1  A    between atoms: O1_2  and  C2_3 
REMARK    2  A    between atoms: C5_6  and  C6_7 
REMARK    3  A    between atoms: C7_8  and  C8_9 
REMARK       I    between atoms: C8_9  and  N1_11 
REMARK    4  A    between atoms: N1_11  and  S1_12 
REMARK    5  A    between atoms: S1_12  and  C9_15 
ROOT
HETATM    1  C8  UNL     1      25.818   4.194  49.693  1.00  0.00     0.310 C 
HETATM    2  O2  UNL     1      25.472   3.019  49.329  1.00  0.00    -0.257 OA
HETATM    3  N1  UNL     1      25.086   4.869  50.726  1.00  0.00    -0.239 N 
HETATM    4  H6  UNL     1      25.434   5.841  50.972  1.00  0.00     0.182 HD
ENDROOT
BRANCH   1   5
HETATM    5  C7  UNL     1      26.944   4.853  49.069  1.00  0.00     0.001 C 
HETATM    6  C6  UNL     1      27.895   5.387  48.539  1.00  0.00    -0.057 C 
BRANCH   6   7
HETATM    7  C5  UNL     1      29.035   6.000  47.900  1.00  0.00     0.018 A 
HETATM    8  C4  UNL     1      28.904   7.197  47.224  1.00  0.00     0.023 A 
HETATM    9  C3  UNL     1      29.978   7.803  46.605  1.00  0.00     0.038 A 
HETATM   10  C2  UNL     1      31.227   7.216  46.648  1.00  0.00     0.068 A 
HETATM   11  C17 UNL     1      31.367   6.015  47.325  1.00  0.00     0.038 A 
HETATM   12  C16 UNL     1      30.289   5.393  47.954  1.00  0.00     0.023 A 
BRANCH  10  13
HETATM   13  O1  UNL     1      32.419   7.634  46.113  1.00  0.00    -0.356 OA
HETATM   14  C1  UNL     1      33.669   7.237  46.635  1.00  0.00     0.210 C 
ENDBRANCH  10  13
ENDBRANCH   6   7
ENDBRANCH   1   5
BRANCH   3  15
HETATM   15  S1  UNL     1      23.733   4.262  51.581  1.00  0.00     0.266 S 
HETATM   16  O3  UNL     1      23.380   5.206  52.689  1.00  0.00    -0.200 OA
HETATM   17  O4  UNL     1      22.572   4.012  50.668  1.00  0.00    -0.200 OA
BRANCH  15  18
HETATM   18  C9  UNL     1      24.156   2.746  52.346  1.00  0.00     0.080 A 
HETATM   19  C10 UNL     1      23.385   1.603  52.232  1.00  0.00     0.026 A 
HETATM   20  C11 UNL     1      23.749   0.446  52.843  1.00  0.00     0.008 A 
HETATM   21  C12 UNL     1      24.890   0.365  53.593  1.00  0.00    -0.062 A 
HETATM   22  C13 UNL     1      25.342  -0.879  54.288  1.00  0.00     0.048 C 
HETATM   23  C14 UNL     1      25.706   1.479  53.746  1.00  0.00     0.008 A 
HETATM   24  C15 UNL     1      25.292   2.626  53.108  1.00  0.00     0.026 A 
ENDBRANCH  15  18
ENDBRANCH   3  15
TORSDOF 5
ENDMDL
MODEL 5
REMARK VINA RESULT:      -7.2      8.349     12.053
REMARK  5 active torsions:
REMARK  status: ('A' for Active; 'I' for Inactive)
REMARK    1  A    between atoms: O1_2  and  C2_3 
REMARK    2  A    between atoms: C5_6  and  C6_7 
REMARK    3  A    between atoms: C7_8  and  C8_9 
REMARK       I    between atoms: C8_9  and  N1_11 
REMARK    4  A    between atoms: N1_11  and  S1_12 
REMARK    5  A    between atoms: S1_12  and  C9_15 
ROOT
HETATM    1  C8  UNL     1      18.469  -0.678  52.887  1.00  0.00     0.310 C 
HETATM    2  O2  UNL     1      17.581  -1.050  53.727  1.00  0.00    -0.257 OA
HETATM    3  N1  UNL     1      18.078  -0.243  51.577  1.00  0.00    -0.239 N 
HETATM    4  H6  UNL     1      18.873   0.050  50.936  1.00  0.00     0.182 HD
ENDROOT
BRANCH   1   5
HETATM    5  C7  UNL     1      19.869  -0.693  53.246  1.00  0.00     0.001 C 
HETATM    6  C6  UNL     1      21.043  -0.684  53.552  1.00  0.00    -0.057 C 
BRANCH   6   7
HETATM    7  C5  UNL     1      22.438  -0.650  53.921  1.00  0.00     0.018 A 
HETATM    8  C4  UNL     1      23.365  -0.021  53.115  1.00  0.00     0.023 A 
HETATM    9  C3  UNL     1      24.704   0.025  53.445  1.00  0.00     0.038 A 
HETATM   10  C2  UNL     1      25.153  -0.568  54.609  1.00  0.00     0.068 A 
HETATM   11  C17 UNL     1      24.229  -1.201  55.424  1.00  0.00     0.038 A 
HETATM   12  C16 UNL     1      22.874  -1.254  55.100  1.00  0.00     0.023 A 
BRANCH  10  13
HETATM   13  O1  UNL     1      26.419  -0.643  55.130  1.00  0.00    -0.356 OA
HETATM   14  C1  UNL     1      27.468   0.203  54.708  1.00  0.00     0.210 C 
ENDBRANCH  10  13
ENDBRANCH   6   7
ENDBRANCH   1   5
BRANCH   3  15
HETATM   15  S1  UNL     1      16.482  -0.154  50.964  1.00  0.00     0.266 S 
HETATM   16  O3  UNL     1      16.526   0.222  49.515  1.00  0.00    -0.200 OA
HETATM   17  O4  UNL     1      15.733  -1.432  51.189  1.00  0.00    -0.200 OA
BRANCH  15  18
HETATM   18  C9  UNL     1      15.615   1.131  51.776  1.00  0.00     0.080 A 
HETATM   19  C10 UNL     1      14.475   0.913  52.528  1.00  0.00     0.026 A 
HETATM   20  C11 UNL     1      13.831   1.940  53.142  1.00  0.00     0.008 A 
HETATM   21  C12 UNL     1      14.284   3.226  53.042  1.00  0.00    -0.062 A 
HETATM   22  C13 UNL     1      13.619   4.396  53.694  1.00  0.00     0.048 C 
HETATM   23  C14 UNL     1      15.424   3.510  52.300  1.00  0.00     0.008 A 
HETATM   24  C15 UNL     1      16.038   2.435  51.698  1.00  0.00     0.026 A 
ENDBRANCH  15  18
ENDBRANCH   3  15
TORSDOF 5
ENDMDL
MODEL 6
REMARK VINA RESULT:      -7.2      6.177     10.450
REMARK  5 active torsions:
REMARK  status: ('A' for Active; 'I' for Inactive)
REMARK    1  A    between atoms: O1_2  and  C2_3 
REMARK    2  A    between atoms: C5_6  and  C6_7 
REMARK    3  A    between atoms: C7_8  and  C8_9 
REMARK       I    between atoms: C8_9  and  N1_11 
REMARK    4  A    between atoms: N1_11  and  S1_12 
REMARK    5  A    between atoms: S1_12  and  C9_15 
ROOT
HETATM    1  C8  UNL     1      22.100   1.857  52.524  1.00  0.00     0.310 C 
HETATM    2  O2  UNL     1      21.936   3.109  52.333  1.00  0.00    -0.257 OA
HETATM    3  N1  UNL     1      23.421   1.327  52.707  1.00  0.00    -0.239 N 
HETATM    4  H6  UNL     1      23.475   0.277  52.860  1.00  0.00     0.182 HD
ENDROOT
BRANCH   1   5
HETATM    5  C7  UNL     1      20.962   0.965  52.559  1.00  0.00     0.001 C 
HETATM    6  C6  UNL     1      19.996   0.234  52.594  1.00  0.00    -0.057 C 
BRANCH   6   7
HETATM    7  C5  UNL     1      18.830  -0.617  52.641  1.00  0.00     0.018 A 
HETATM    8  C4  UNL     1      17.717  -0.330  51.879  1.00  0.00     0.023 A 
HETATM    9  C3  UNL     1      16.591  -1.127  51.906  1.00  0.00     0.038 A 
HETATM   10  C2  UNL     1      16.554  -2.249  52.711  1.00  0.00     0.068 A 
HETATM   11  C17 UNL     1      17.668  -2.546  53.478  1.00  0.00     0.038 A 
HETATM   12  C16 UNL     1      18.811  -1.746  53.459  1.00  0.00     0.023 A 
BRANCH  10  13
HETATM   13  O1  UNL     1      15.557  -3.173  52.893  1.00  0.00    -0.356 OA
HETATM   14  C1  UNL     1      14.349  -3.143  52.164  1.00  0.00     0.210 C 
ENDBRANCH  10  13
ENDBRANCH   6   7
ENDBRANCH   1   5
BRANCH   3  15
HETATM   15  S1  UNL     1      24.886   2.212  52.699  1.00  0.00     0.266 S 
HETATM   16  O3  UNL     1      25.087   2.831  51.350  1.00  0.00    -0.200 OA
HETATM   17  O4  UNL     1      24.918   3.233  53.795  1.00  0.00    -0.200 OA
BRANCH  15  18
HETATM   18  C9  UNL     1      26.231   1.118  52.941  1.00  0.00     0.080 A 
HETATM   19  C10 UNL     1      27.440   1.517  53.480  1.00  0.00     0.026 A 
HETATM   20  C11 UNL     1      28.460   0.636  53.650  1.00  0.00     0.008 A 
HETATM   21  C12 UNL     1      28.331  -0.678  53.295  1.00  0.00    -0.062 A 
HETATM   22  C13 UNL     1      29.416  -1.695  53.457  1.00  0.00     0.048 C 
HETATM   23  C14 UNL     1      27.140  -1.141  52.747  1.00  0.00     0.008 A 
HETATM   24  C15 UNL     1      26.140  -0.207  52.595  1.00  0.00     0.026 A 
ENDBRANCH  15  18
ENDBRANCH   3  15
TORSDOF 5
ENDMDL
MODEL 7
REMARK VINA RESULT:      -7.1      3.937      5.071
REMARK  5 active torsions:
REMARK  status: ('A' for Active; 'I' for Inactive)
REMARK    1  A    between atoms: O1_2  and  C2_3 
REMARK    2  A    between atoms: C5_6  and  C6_7 
REMARK    3  A    between atoms: C7_8  and  C8_9 
REMARK       I    between atoms: C8_9  and  N1_11 
REMARK    4  A    between atoms: N1_11  and  S1_12 
REMARK    5  A    between atoms: S1_12  and  C9_15 
ROOT
HETATM    1  C8  UNL     1      26.902   5.692  48.726  1.00  0.00     0.310 C 
HETATM    2  O2  UNL     1      26.243   6.663  48.222  1.00  0.00    -0.257 OA
HETATM    3  N1  UNL     1      26.258   4.781  49.629  1.00  0.00    -0.239 N 
HETATM    4  H6  UNL     1      26.871   4.001  50.007  1.00  0.00     0.182 HD
ENDROOT
BRANCH   1   5
HETATM    5  C7  UNL     1      28.296   5.502  48.395  1.00  0.00     0.001 C 
HETATM    6  C6  UNL     1      29.468   5.363  48.116  1.00  0.00    -0.057 C 
BRANCH   6   7
HETATM    7  C5  UNL     1      30.866   5.223  47.784  1.00  0.00     0.018 A 
HETATM    8  C4  UNL     1      31.770   6.215  48.106  1.00  0.00     0.023 A 
HETATM    9  C3  UNL     1      33.111   6.105  47.799  1.00  0.00     0.038 A 
HETATM   10  C2  UNL     1      33.585   4.981  47.152  1.00  0.00     0.068 A 
HETATM   11  C17 UNL     1      32.685   3.980  46.826  1.00  0.00     0.038 A 
HETATM   12  C16 UNL     1      31.328   4.081  47.130  1.00  0.00     0.023 A 
BRANCH  10  13
HETATM   13  O1  UNL     1      34.858   4.661  46.755  1.00  0.00    -0.356 OA
HETATM   14  C1  UNL     1      35.127   3.682  45.774  1.00  0.00     0.210 C 
ENDBRANCH  10  13
ENDBRANCH   6   7
ENDBRANCH   1   5
BRANCH   3  15
HETATM   15  S1  UNL     1      24.626   4.836  50.143  1.00  0.00     0.266 S 
HETATM   16  O3  UNL     1      24.446   5.966  51.109  1.00  0.00    -0.200 OA
HETATM   17  O4  UNL     1      23.686   4.936  48.981  1.00  0.00    -0.200 OA
BRANCH  15  18
HETATM   18  C9  UNL     1      24.241   3.373  51.025  1.00  0.00     0.080 A 
HETATM   19  C10 UNL     1      23.301   2.457  50.591  1.00  0.00     0.026 A 
HETATM   20  C11 UNL     1      23.031   1.334  51.306  1.00  0.00     0.008 A 
HETATM   21  C12 UNL     1      23.678   1.066  52.481  1.00  0.00    -0.062 A 
HETATM   22  C13 UNL     1      23.424  -0.151  53.311  1.00  0.00     0.048 C 
HETATM   23  C14 UNL     1      24.633   1.949  52.970  1.00  0.00     0.008 A 
HETATM   24  C15 UNL     1      24.868   3.071  52.208  1.00  0.00     0.026 A 
ENDBRANCH  15  18
ENDBRANCH   3  15
TORSDOF 5
ENDMDL
MODEL 8
REMARK VINA RESULT:      -7.0      4.230      8.517
REMARK  5 active torsions:
REMARK  status: ('A' for Active; 'I' for Inactive)
REMARK    1  A    between atoms: O1_2  and  C2_3 
REMARK    2  A    between atoms: C5_6  and  C6_7 
REMARK    3  A    between atoms: C7_8  and  C8_9 
REMARK       I    between atoms: C8_9  and  N1_11 
REMARK    4  A    between atoms: N1_11  and  S1_12 
REMARK    5  A    between atoms: S1_12  and  C9_15 
ROOT
HETATM    1  C8  UNL     1      27.596   6.033  48.588  1.00  0.00     0.310 C 
HETATM    2  O2  UNL     1      27.237   7.197  48.202  1.00  0.00    -0.257 OA
HETATM    3  N1  UNL     1      28.981   5.660  48.543  1.00  0.00    -0.239 N 
HETATM    4  H6  UNL     1      29.200   4.677  48.880  1.00  0.00     0.182 HD
ENDROOT
BRANCH   1   5
HETATM    5  C7  UNL     1      26.616   5.086  49.070  1.00  0.00     0.001 C 
HETATM    6  C6  UNL     1      25.783   4.295  49.457  1.00  0.00    -0.057 C 
BRANCH   6   7
HETATM    7  C5  UNL     1      24.778   3.357  49.898  1.00  0.00     0.018 A 
HETATM    8  C4  UNL     1      24.929   2.668  51.084  1.00  0.00     0.023 A 
HETATM    9  C3  UNL     1      23.982   1.766  51.527  1.00  0.00     0.038 A 
HETATM   10  C2  UNL     1      22.845   1.531  50.780  1.00  0.00     0.068 A 
HETATM   11  C17 UNL     1      22.685   2.218  49.589  1.00  0.00     0.038 A 
HETATM   12  C16 UNL     1      23.635   3.131  49.131  1.00  0.00     0.023 A 
BRANCH  10  13
HETATM   13  O1  UNL     1      21.787   0.692  51.023  1.00  0.00    -0.356 OA
HETATM   14  C1  UNL     1      21.643  -0.021  52.233  1.00  0.00     0.210 C 
ENDBRANCH  10  13
ENDBRANCH   6   7
ENDBRANCH   1   5
BRANCH   3  15
HETATM   15  S1  UNL     1      30.284   6.632  48.009  1.00  0.00     0.266 S 
HETATM   16  O3  UNL     1      29.883   7.360  46.763  1.00  0.00    -0.200 OA
HETATM   17  O4  UNL     1      30.748   7.570  49.081  1.00  0.00    -0.200 OA
BRANCH  15  18
HETATM   18  C9  UNL     1      31.634   5.610  47.565  1.00  0.00     0.080 A 
HETATM   19  C10 UNL     1      31.491   4.275  47.232  1.00  0.00     0.026 A 
HETATM   20  C11 UNL     1      32.566   3.516  46.894  1.00  0.00     0.008 A 
HETATM   21  C12 UNL     1      33.828   4.041  46.870  1.00  0.00    -0.062 A 
HETATM   22  C13 UNL     1      35.049   3.257  46.507  1.00  0.00     0.048 C 
HETATM   23  C14 UNL     1      34.037   5.376  47.195  1.00  0.00     0.008 A 
HETATM   24  C15 UNL     1      32.916   6.100  47.530  1.00  0.00     0.026 A 
ENDBRANCH  15  18
ENDBRANCH   3  15
TORSDOF 5
ENDMDL
MODEL 9
REMARK VINA RESULT:      -7.0      7.525     12.177
REMARK  5 active torsions:
REMARK  status: ('A' for Active; 'I' for Inactive)
REMARK    1  A    between atoms: O1_2  and  C2_3 
REMARK    2  A    between atoms: C5_6  and  C6_7 
REMARK    3  A    between atoms: C7_8  and  C8_9 
REMARK       I    between atoms: C8_9  and  N1_11 
REMARK    4  A    between atoms: N1_11  and  S1_12 
REMARK    5  A    between atoms: S1_12  and  C9_15 
ROOT
HETATM    1  C8  UNL     1      20.412   0.446  53.179  1.00  0.00     0.310 C 
HETATM    2  O2  UNL     1      20.739   1.004  54.281  1.00  0.00    -0.257 OA
HETATM    3  N1  UNL     1      21.096   0.798  51.967  1.00  0.00    -0.239 N 
HETATM    4  H6  UNL     1      20.767   0.292  51.093  1.00  0.00     0.182 HD
ENDROOT
BRANCH   1   5
HETATM    5  C7  UNL     1      19.355  -0.540  53.142  1.00  0.00     0.001 C 
HETATM    6  C6  UNL     1      18.456  -1.353  53.119  1.00  0.00    -0.057 C 
BRANCH   6   7
HETATM    7  C5  UNL     1      17.370  -2.304  53.103  1.00  0.00     0.018 A 
HETATM    8  C4  UNL     1      16.171  -1.994  52.494  1.00  0.00     0.023 A 
HETATM    9  C3  UNL     1      15.118  -2.886  52.465  1.00  0.00     0.038 A 
HETATM   10  C2  UNL     1      15.244  -4.128  53.055  1.00  0.00     0.068 A 
HETATM   11  C17 UNL     1      16.445  -4.448  53.667  1.00  0.00     0.038 A 
HETATM   12  C16 UNL     1      17.515  -3.555  53.703  1.00  0.00     0.023 A 
BRANCH  10  13
HETATM   13  O1  UNL     1      14.343  -5.159  53.144  1.00  0.00    -0.356 OA
HETATM   14  C1  UNL     1      14.502  -6.233  54.046  1.00  0.00     0.210 C 
ENDBRANCH  10  13
ENDBRANCH   6   7
ENDBRANCH   1   5
BRANCH   3  15
HETATM   15  S1  UNL     1      22.365   1.935  51.804  1.00  0.00     0.266 S 
HETATM   16  O3  UNL     1      22.779   2.016  50.367  1.00  0.00    -0.200 OA
HETATM   17  O4  UNL     1      21.979   3.275  52.352  1.00  0.00    -0.200 OA
BRANCH  15  18
HETATM   18  C9  UNL     1      23.769   1.375  52.687  1.00  0.00     0.080 A 
HETATM   19  C10 UNL     1      23.956   0.053  53.046  1.00  0.00     0.026 A 
HETATM   20  C11 UNL     1      25.060  -0.340  53.732  1.00  0.00     0.008 A 
HETATM   21  C12 UNL     1      26.029   0.555  54.094  1.00  0.00    -0.062 A 
HETATM   22  C13 UNL     1      27.265   0.183  54.849  1.00  0.00     0.048 C 
HETATM   23  C14 UNL     1      25.899   1.898  53.763  1.00  0.00     0.008 A 
HETATM   24  C15 UNL     1      24.761   2.243  53.069  1.00  0.00     0.026 A 
ENDBRANCH  15  18
ENDBRANCH   3  15
TORSDOF 5
ENDMDL
