MODEL 1
REMARK VINA RESULT:      -7.9      0.000      0.000
REMARK  1 active torsions:
REMARK  status: ('A' for Active; 'I' for Inactive)
REMARK    1  A    between atoms: C15_17  and  O1_18 
ROOT
HETATM    1  C1  UNL     1      26.798   7.761  47.454  1.00  0.00     0.038 C 
HETATM    2  C2  UNL     1      26.896   7.121  48.801  1.00  0.00    -0.002 C 
HETATM    3  C3  UNL     1      26.227   6.007  48.986  1.00  0.00     0.030 C 
HETATM    4  C4  UNL     1      25.385   4.876  48.757  1.00  0.00     0.038 C 
HETATM    5  C5  UNL     1      25.148   3.896  49.575  1.00  0.00    -0.020 C 
HETATM    6  C6  UNL     1      25.461   3.341  50.886  1.00  0.00     0.315 C 
HETATM    7  N1  UNL     1      24.153   3.116  51.417  1.00  0.00     0.130 N 
HETATM    8  C7  UNL     1      23.396   4.452  51.193  1.00  0.00     0.375 C 
HETATM    9  C8  UNL     1      22.398   4.323  52.297  1.00  0.00     0.331 C 
HETATM   10  N2  UNL     1      21.859   2.944  52.123  1.00  0.00     0.090 N 
HETATM   11  C9  UNL     1      22.589   2.092  53.010  1.00  0.00     0.310 C 
HETATM   12  C10 UNL     1      22.037   2.444  50.753  1.00  0.00     0.312 C 
HETATM   13  C11 UNL     1      23.481   2.314  50.344  1.00  0.00     0.287 C 
HETATM   14  C12 UNL     1      23.899   3.171  49.200  1.00  0.00    -0.018 C 
HETATM   15  C13 UNL     1      23.022   3.148  48.256  1.00  0.00    -0.010 C 
HETATM   16  C14 UNL     1      21.893   2.854  47.407  1.00  0.00     0.093 C 
HETATM   17  C15 UNL     1      20.873   3.932  47.416  1.00  0.00     0.062 C 
HETATM   18  C16 UNL     1      20.398   5.014  47.946  1.00  0.00     0.018 C 
HETATM   19  C17 UNL     1      20.367   6.085  48.895  1.00  0.00     0.063 C 
HETATM   20  C18 UNL     1      20.553   6.956  49.871  1.00  0.00     0.091 C 
HETATM   21  N3  UNL     1      21.304   7.416  51.027  1.00  0.00    -0.293 N 
HETATM   22  N4  UNL     1      22.621   7.019  50.941  1.00  0.00    -0.184 NA
HETATM   23  C19 UNL     1      23.648   7.768  50.828  1.00  0.00     0.188 C 
HETATM   24  C20 UNL     1      24.608   6.579  50.790  1.00  0.00     0.144 C 
HETATM   25  N5  UNL     1      24.265   5.438  50.957  1.00  0.00    -0.233 NA
HETATM   26  N6  UNL     1      26.040   6.230  50.464  1.00  0.00    -0.340 N 
HETATM   27  H23 UNL     1      20.594   7.922  51.592  1.00  0.00     0.187 HD
HETATM   28  H25 UNL     1      26.704   6.203  51.294  1.00  0.00     0.167 HD
ENDROOT
BRANCH  17  29
HETATM   29  O1  UNL     1      20.009   3.632  46.335  1.00  0.00    -0.275 OA
HETATM   30 BR1  UNL     1      20.680   4.007  44.626  1.00  0.00     0.105 Br
ENDBRANCH  17  29
TORSDOF 1
ENDMDL
MODEL 2
REMARK VINA RESULT:      -7.6      2.440      3.821
REMARK  1 active torsions:
REMARK  status: ('A' for Active; 'I' for Inactive)
REMARK    1  A    between atoms: C15_17  and  O1_18 
ROOT
HETATM    1  C1  UNL     1      26.653   1.870  51.833  1.00  0.00     0.038 C 
HETATM    2  C2  UNL     1      25.380   1.599  52.566  1.00  0.00    -0.002 C 
HETATM    3  C3  UNL     1      24.291   1.459  51.846  1.00  0.00     0.030 C 
HETATM    4  C4  UNL     1      23.404   1.380  50.730  1.00  0.00     0.038 C 
HETATM    5  C5  UNL     1      22.141   1.081  50.751  1.00  0.00    -0.020 C 
HETATM    6  C6  UNL     1      21.027   0.690  51.606  1.00  0.00     0.315 C 
HETATM    7  N1  UNL     1      20.031   1.643  51.226  1.00  0.00     0.130 N 
HETATM    8  C7  UNL     1      20.746   3.018  51.298  1.00  0.00     0.375 C 
HETATM    9  C8  UNL     1      19.546   3.875  51.535  1.00  0.00     0.331 C 
HETATM   10  N2  UNL     1      18.578   3.417  50.497  1.00  0.00     0.090 N 
HETATM   11  C9  UNL     1      17.717   2.458  51.118  1.00  0.00     0.310 C 
HETATM   12  C10 UNL     1      19.244   2.770  49.359  1.00  0.00     0.312 C 
HETATM   13  C11 UNL     1      19.984   1.512  49.734  1.00  0.00     0.287 C 
HETATM   14  C12 UNL     1      21.456   1.547  49.509  1.00  0.00    -0.018 C 
HETATM   15  C13 UNL     1      21.741   2.072  48.368  1.00  0.00    -0.010 C 
HETATM   16  C14 UNL     1      21.694   2.640  47.042  1.00  0.00     0.093 C 
HETATM   17  C15 UNL     1      21.988   4.095  47.031  1.00  0.00     0.062 C 
HETATM   18  C16 UNL     1      22.143   5.207  47.677  1.00  0.00     0.018 C 
HETATM   19  C17 UNL     1      22.178   6.030  48.848  1.00  0.00     0.063 C 
HETATM   20  C18 UNL     1      22.150   6.566  50.055  1.00  0.00     0.091 C 
HETATM   21  N3  UNL     1      21.954   6.439  51.489  1.00  0.00    -0.293 N 
HETATM   22  N4  UNL     1      22.259   5.161  51.909  1.00  0.00    -0.184 NA
HETATM   23  C19 UNL     1      23.201   4.811  52.694  1.00  0.00     0.188 C 
HETATM   24  C20 UNL     1      22.833   3.331  52.603  1.00  0.00     0.144 C 
HETATM   25  N5  UNL     1      21.863   2.918  52.023  1.00  0.00    -0.233 NA
HETATM   26  N6  UNL     1      23.372   1.959  52.929  1.00  0.00    -0.340 N 
HETATM   27  H23 UNL     1      21.629   7.383  51.774  1.00  0.00     0.187 HD
HETATM   28  H25 UNL     1      23.051   1.551  53.857  1.00  0.00     0.167 HD
ENDROOT
BRANCH  17  29
HETATM   29  O1  UNL     1      22.193   4.419  45.669  1.00  0.00    -0.275 OA
HETATM   30 BR1  UNL     1      20.758   4.057  44.519  1.00  0.00     0.105 Br
ENDBRANCH  17  29
TORSDOF 1
ENDMDL
MODEL 3
REMARK VINA RESULT:      -7.0      6.663      8.853
REMARK  1 active torsions:
REMARK  status: ('A' for Active; 'I' for Inactive)
REMARK    1  A    between atoms: C15_17  and  O1_18 
ROOT
HETATM    1  C1  UNL     1      31.663   3.536  46.521  1.00  0.00     0.038 C 
HETATM    2  C2  UNL     1      32.420   4.749  46.955  1.00  0.00    -0.002 C 
HETATM    3  C3  UNL     1      31.751   5.674  47.603  1.00  0.00     0.030 C 
HETATM    4  C4  UNL     1      30.688   6.384  48.240  1.00  0.00     0.038 C 
HETATM    5  C5  UNL     1      30.771   7.506  48.887  1.00  0.00    -0.020 C 
HETATM    6  C6  UNL     1      31.682   8.547  49.350  1.00  0.00     0.315 C 
HETATM    7  N1  UNL     1      31.027   9.726  48.878  1.00  0.00     0.130 N 
HETATM    8  C7  UNL     1      30.715   9.440  47.385  1.00  0.00     0.375 C 
HETATM    9  C8  UNL     1      30.675  10.851  46.897  1.00  0.00     0.331 C 
HETATM   10  N2  UNL     1      29.794  11.539  47.884  1.00  0.00     0.090 N 
HETATM   11  C9  UNL     1      30.648  12.153  48.854  1.00  0.00     0.310 C 
HETATM   12  C10 UNL     1      28.902  10.604  48.582  1.00  0.00     0.312 C 
HETATM   13  C11 UNL     1      29.634   9.581  49.412  1.00  0.00     0.287 C 
HETATM   14  C12 UNL     1      29.436   8.164  48.999  1.00  0.00    -0.018 C 
HETATM   15  C13 UNL     1      28.197   7.924  48.738  1.00  0.00    -0.010 C 
HETATM   16  C14 UNL     1      26.764   7.993  48.587  1.00  0.00     0.093 C 
HETATM   17  C15 UNL     1      26.342   8.122  47.170  1.00  0.00     0.062 C 
HETATM   18  C16 UNL     1      26.645   8.355  45.933  1.00  0.00     0.018 C 
HETATM   19  C17 UNL     1      27.532   8.673  44.855  1.00  0.00     0.063 C 
HETATM   20  C18 UNL     1      28.534   8.975  44.049  1.00  0.00     0.091 C 
HETATM   21  N3  UNL     1      29.941   9.273  43.840  1.00  0.00    -0.293 N 
HETATM   22  N4  UNL     1      30.715   8.665  44.805  1.00  0.00    -0.184 NA
HETATM   23  C19 UNL     1      31.584   7.748  44.633  1.00  0.00     0.188 C 
HETATM   24  C20 UNL     1      31.914   7.671  46.124  1.00  0.00     0.144 C 
HETATM   25  N5  UNL     1      31.458   8.421  46.948  1.00  0.00    -0.233 NA
HETATM   26  N6  UNL     1      32.629   6.803  47.130  1.00  0.00    -0.340 N 
HETATM   27  H23 UNL     1      29.938   9.879  42.996  1.00  0.00     0.187 HD
HETATM   28  H25 UNL     1      33.629   7.089  47.352  1.00  0.00     0.167 HD
ENDROOT
BRANCH  17  29
HETATM   29  O1  UNL     1      24.947   7.879  47.177  1.00  0.00    -0.275 OA
HETATM   30 BR1  UNL     1      24.345   6.618  48.426  1.00  0.00     0.105 Br
ENDBRANCH  17  29
TORSDOF 1
ENDMDL
MODEL 4
REMARK VINA RESULT:      -6.9      8.631     10.832
REMARK  1 active torsions:
REMARK  status: ('A' for Active; 'I' for Inactive)
REMARK    1  A    between atoms: C15_17  and  O1_18 
ROOT
HETATM    1  C1  UNL     1      30.534   9.972  41.554  1.00  0.00     0.038 C 
HETATM    2  C2  UNL     1      31.902   9.517  41.948  1.00  0.00    -0.002 C 
HETATM    3  C3  UNL     1      31.992   8.719  42.986  1.00  0.00     0.030 C 
HETATM    4  C4  UNL     1      31.643   7.908  44.108  1.00  0.00     0.038 C 
HETATM    5  C5  UNL     1      32.439   7.176  44.826  1.00  0.00    -0.020 C 
HETATM    6  C6  UNL     1      33.816   6.724  44.987  1.00  0.00     0.315 C 
HETATM    7  N1  UNL     1      34.049   7.013  46.367  1.00  0.00     0.130 N 
HETATM    8  C7  UNL     1      33.586   8.482  46.551  1.00  0.00     0.375 C 
HETATM    9  C8  UNL     1      34.440   8.834  47.724  1.00  0.00     0.331 C 
HETATM   10  N2  UNL     1      34.226   7.698  48.666  1.00  0.00     0.090 N 
HETATM   11  C9  UNL     1      35.301   6.777  48.466  1.00  0.00     0.310 C 
HETATM   12  C10 UNL     1      32.962   6.994  48.414  1.00  0.00     0.312 C 
HETATM   13  C11 UNL     1      32.898   6.345  47.056  1.00  0.00     0.287 C 
HETATM   14  C12 UNL     1      31.832   6.860  46.152  1.00  0.00    -0.018 C 
HETATM   15  C13 UNL     1      30.717   7.004  46.782  1.00  0.00    -0.010 C 
HETATM   16  C14 UNL     1      29.652   6.990  47.756  1.00  0.00     0.093 C 
HETATM   17  C15 UNL     1      29.371   8.335  48.317  1.00  0.00     0.062 C 
HETATM   18  C16 UNL     1      29.719   9.572  48.477  1.00  0.00     0.018 C 
HETATM   19  C17 UNL     1      30.575  10.708  48.314  1.00  0.00     0.063 C 
HETATM   20  C18 UNL     1      31.518  11.588  48.028  1.00  0.00     0.091 C 
HETATM   21  N3  UNL     1      32.786  11.922  47.402  1.00  0.00    -0.293 N 
HETATM   22  N4  UNL     1      33.022  11.106  46.316  1.00  0.00    -0.184 NA
HETATM   23  C19 UNL     1      33.103  11.454  45.092  1.00  0.00     0.188 C 
HETATM   24  C20 UNL     1      33.349  10.021  44.619  1.00  0.00     0.144 C 
HETATM   25  N5  UNL     1      33.498   9.088  45.364  1.00  0.00    -0.233 NA
HETATM   26  N6  UNL     1      33.375   9.181  43.365  1.00  0.00    -0.340 N 
HETATM   27  H23 UNL     1      33.146  12.702  47.985  1.00  0.00     0.187 HD
HETATM   28  H25 UNL     1      34.334   9.046  42.926  1.00  0.00     0.167 HD
ENDROOT
BRANCH  17  29
HETATM   29  O1  UNL     1      28.141   8.198  49.005  1.00  0.00    -0.275 OA
HETATM   30 BR1  UNL     1      27.113   6.699  48.547  1.00  0.00     0.105 Br
ENDBRANCH  17  29
TORSDOF 1
ENDMDL
MODEL 5
REMARK VINA RESULT:      -6.7      6.791      8.916
REMARK  1 active torsions:
REMARK  status: ('A' for Active; 'I' for Inactive)
REMARK    1  A    between atoms: C15_17  and  O1_18 
ROOT
HETATM    1  C1  UNL     1      31.833   5.328  48.245  1.00  0.00     0.038 C 
HETATM    2  C2  UNL     1      32.304   6.730  48.034  1.00  0.00    -0.002 C 
HETATM    3  C3  UNL     1      31.504   7.697  48.421  1.00  0.00     0.030 C 
HETATM    4  C4  UNL     1      30.379   8.393  48.957  1.00  0.00     0.038 C 
HETATM    5  C5  UNL     1      30.251   9.675  49.114  1.00  0.00    -0.020 C 
HETATM    6  C6  UNL     1      30.917  10.963  48.962  1.00  0.00     0.315 C 
HETATM    7  N1  UNL     1      29.935  11.706  48.237  1.00  0.00     0.130 N 
HETATM    8  C7  UNL     1      29.532  10.786  47.053  1.00  0.00     0.375 C 
HETATM    9  C8  UNL     1      29.081  11.844  46.101  1.00  0.00     0.331 C 
HETATM   10  N2  UNL     1      28.177  12.696  46.926  1.00  0.00     0.090 N 
HETATM   11  C9  UNL     1      28.956  13.797  47.402  1.00  0.00     0.310 C 
HETATM   12  C10 UNL     1      27.638  11.976  48.087  1.00  0.00     0.312 C 
HETATM   13  C11 UNL     1      28.697  11.534  49.063  1.00  0.00     0.287 C 
HETATM   14  C12 UNL     1      28.816  10.061  49.251  1.00  0.00    -0.018 C 
HETATM   15  C13 UNL     1      27.657   9.510  49.360  1.00  0.00    -0.010 C 
HETATM   16  C14 UNL     1      26.244   9.245  49.495  1.00  0.00     0.093 C 
HETATM   17  C15 UNL     1      25.640   8.707  48.251  1.00  0.00     0.062 C 
HETATM   18  C16 UNL     1      25.727   8.470  46.981  1.00  0.00     0.018 C 
HETATM   19  C17 UNL     1      26.372   8.482  45.702  1.00  0.00     0.063 C 
HETATM   20  C18 UNL     1      27.163   8.612  44.653  1.00  0.00     0.091 C 
HETATM   21  N3  UNL     1      28.415   9.056  44.062  1.00  0.00    -0.293 N 
HETATM   22  N4  UNL     1      29.425   9.046  45.000  1.00  0.00    -0.184 NA
HETATM   23  C19 UNL     1      30.471   8.317  45.001  1.00  0.00     0.188 C 
HETATM   24  C20 UNL     1      30.982   8.914  46.312  1.00  0.00     0.144 C 
HETATM   25  N5  UNL     1      30.452   9.835  46.878  1.00  0.00    -0.233 NA
HETATM   26  N6  UNL     1      32.007   8.678  47.395  1.00  0.00    -0.340 N 
HETATM   27  H23 UNL     1      28.160   9.255  43.075  1.00  0.00     0.187 HD
HETATM   28  H25 UNL     1      32.921   9.210  47.283  1.00  0.00     0.167 HD
ENDROOT
BRANCH  17  29
HETATM   29  O1  UNL     1      24.363   8.233  48.636  1.00  0.00    -0.275 OA
HETATM   30 BR1  UNL     1      24.151   7.846  50.458  1.00  0.00     0.105 Br
ENDBRANCH  17  29
TORSDOF 1
ENDMDL
MODEL 6
REMARK VINA RESULT:      -6.5      5.535      9.582
REMARK  1 active torsions:
REMARK  status: ('A' for Active; 'I' for Inactive)
REMARK    1  A    between atoms: C15_17  and  O1_18 
ROOT
HETATM    1  C1  UNL     1      25.314   5.915  48.504  1.00  0.00     0.038 C 
HETATM    2  C2  UNL     1      25.113   7.378  48.274  1.00  0.00    -0.002 C 
HETATM    3  C3  UNL     1      25.898   7.961  47.398  1.00  0.00     0.030 C 
HETATM    4  C4  UNL     1      26.914   8.174  46.418  1.00  0.00     0.038 C 
HETATM    5  C5  UNL     1      27.165   9.273  45.774  1.00  0.00    -0.020 C 
HETATM    6  C6  UNL     1      26.748  10.656  45.575  1.00  0.00     0.315 C 
HETATM    7  N1  UNL     1      27.984  11.352  45.750  1.00  0.00     0.130 N 
HETATM    8  C7  UNL     1      28.570  10.800  47.076  1.00  0.00     0.375 C 
HETATM    9  C8  UNL     1      29.407  11.979  47.451  1.00  0.00     0.331 C 
HETATM   10  N2  UNL     1      30.153  12.291  46.199  1.00  0.00     0.090 N 
HETATM   11  C9  UNL     1      29.429  13.325  45.525  1.00  0.00     0.310 C 
HETATM   12  C10 UNL     1      30.247  11.133  45.301  1.00  0.00     0.312 C 
HETATM   13  C11 UNL     1      28.910  10.648  44.804  1.00  0.00     0.287 C 
HETATM   14  C12 UNL     1      28.545   9.261  45.205  1.00  0.00    -0.018 C 
HETATM   15  C13 UNL     1      29.543   8.458  45.066  1.00  0.00    -0.010 C 
HETATM   16  C14 UNL     1      30.813   7.853  44.744  1.00  0.00     0.093 C 
HETATM   17  C15 UNL     1      31.660   7.626  45.942  1.00  0.00     0.062 C 
HETATM   18  C16 UNL     1      31.897   7.839  47.197  1.00  0.00     0.018 C 
HETATM   19  C17 UNL     1      31.640   8.409  48.485  1.00  0.00     0.063 C 
HETATM   20  C18 UNL     1      31.195   9.046  49.553  1.00  0.00     0.091 C 
HETATM   21  N3  UNL     1      30.228   9.926  50.188  1.00  0.00    -0.293 N 
HETATM   22  N4  UNL     1      29.005   9.841  49.555  1.00  0.00    -0.184 NA
HETATM   23  C19 UNL     1      27.911   9.406  50.045  1.00  0.00     0.188 C 
HETATM   24  C20 UNL     1      27.143   9.645  48.746  1.00  0.00     0.144 C 
HETATM   25  N5  UNL     1      27.615  10.189  47.781  1.00  0.00    -0.233 NA
HETATM   26  N6  UNL     1      25.836   9.308  48.069  1.00  0.00    -0.340 N 
HETATM   27  H23 UNL     1      30.771  10.371  50.953  1.00  0.00     0.187 HD
HETATM   28  H25 UNL     1      25.070  10.039  48.166  1.00  0.00     0.167 HD
ENDROOT
BRANCH  17  29
HETATM   29  O1  UNL     1      32.704   6.779  45.500  1.00  0.00    -0.275 OA
HETATM   30 BR1  UNL     1      32.835   5.123  46.368  1.00  0.00     0.105 Br
ENDBRANCH  17  29
TORSDOF 1
ENDMDL
MODEL 7
REMARK VINA RESULT:      -6.5      2.770      5.547
REMARK  1 active torsions:
REMARK  status: ('A' for Active; 'I' for Inactive)
REMARK    1  A    between atoms: C15_17  and  O1_18 
ROOT
HETATM    1  C1  UNL     1      17.351   2.024  51.490  1.00  0.00     0.038 C 
HETATM    2  C2  UNL     1      18.703   1.404  51.630  1.00  0.00    -0.002 C 
HETATM    3  C3  UNL     1      19.723   2.217  51.785  1.00  0.00     0.030 C 
HETATM    4  C4  UNL     1      20.499   3.407  51.926  1.00  0.00     0.038 C 
HETATM    5  C5  UNL     1      21.773   3.490  52.161  1.00  0.00    -0.020 C 
HETATM    6  C6  UNL     1      22.987   2.723  52.416  1.00  0.00     0.315 C 
HETATM    7  N1  UNL     1      23.884   3.286  51.457  1.00  0.00     0.130 N 
HETATM    8  C7  UNL     1      23.103   3.263  50.117  1.00  0.00     0.375 C 
HETATM    9  C8  UNL     1      24.270   3.228  49.186  1.00  0.00     0.331 C 
HETATM   10  N2  UNL     1      25.155   4.315  49.692  1.00  0.00     0.090 N 
HETATM   11  C9  UNL     1      26.126   3.704  50.546  1.00  0.00     0.310 C 
HETATM   12  C10 UNL     1      24.419   5.317  50.474  1.00  0.00     0.312 C 
HETATM   13  C11 UNL     1      23.792   4.758  51.726  1.00  0.00     0.287 C 
HETATM   14  C12 UNL     1      22.306   4.832  51.782  1.00  0.00    -0.018 C 
HETATM   15  C13 UNL     1      21.880   5.979  51.380  1.00  0.00    -0.010 C 
HETATM   16  C14 UNL     1      21.765   7.348  50.938  1.00  0.00     0.093 C 
HETATM   17  C15 UNL     1      21.388   7.458  49.506  1.00  0.00     0.062 C 
HETATM   18  C16 UNL     1      21.235   6.901  48.347  1.00  0.00     0.018 C 
HETATM   19  C17 UNL     1      21.268   5.810  47.420  1.00  0.00     0.063 C 
HETATM   20  C18 UNL     1      21.384   4.665  46.773  1.00  0.00     0.091 C 
HETATM   21  N3  UNL     1      21.726   3.253  46.755  1.00  0.00    -0.293 N 
HETATM   22  N4  UNL     1      21.538   2.691  48.001  1.00  0.00    -0.184 NA
HETATM   23  C19 UNL     1      20.698   1.786  48.320  1.00  0.00     0.188 C 
HETATM   24  C20 UNL     1      21.139   1.783  49.784  1.00  0.00     0.144 C 
HETATM   25  N5  UNL     1      22.070   2.421  50.202  1.00  0.00    -0.233 NA
HETATM   26  N6  UNL     1      20.713   1.283  51.143  1.00  0.00    -0.340 N 
HETATM   27  H23 UNL     1      22.023   3.087  45.774  1.00  0.00     0.187 HD
HETATM   28  H25 UNL     1      21.147   0.360  51.446  1.00  0.00     0.167 HD
ENDROOT
BRANCH  17  29
HETATM   29  O1  UNL     1      21.033   8.816  49.321  1.00  0.00    -0.275 OA
HETATM   30 BR1  UNL     1      22.188   9.823  48.243  1.00  0.00     0.105 Br
ENDBRANCH  17  29
TORSDOF 1
ENDMDL
MODEL 8
REMARK VINA RESULT:      -6.4      5.759      9.275
REMARK  1 active torsions:
REMARK  status: ('A' for Active; 'I' for Inactive)
REMARK    1  A    between atoms: C15_17  and  O1_18 
ROOT
HETATM    1  C1  UNL     1      24.385   8.045  50.627  1.00  0.00     0.038 C 
HETATM    2  C2  UNL     1      25.675   7.479  50.129  1.00  0.00    -0.002 C 
HETATM    3  C3  UNL     1      26.649   8.326  49.887  1.00  0.00     0.030 C 
HETATM    4  C4  UNL     1      27.391   9.539  49.763  1.00  0.00     0.038 C 
HETATM    5  C5  UNL     1      28.641   9.664  49.433  1.00  0.00    -0.020 C 
HETATM    6  C6  UNL     1      29.857   8.938  49.087  1.00  0.00     0.315 C 
HETATM    7  N1  UNL     1      30.243   9.593  47.878  1.00  0.00     0.130 N 
HETATM    8  C7  UNL     1      28.960   9.612  47.005  1.00  0.00     0.375 C 
HETATM    9  C8  UNL     1      29.611   9.680  45.663  1.00  0.00     0.331 C 
HETATM   10  N2  UNL     1      30.612  10.775  45.814  1.00  0.00     0.090 N 
HETATM   11  C9  UNL     1      31.865  10.159  46.123  1.00  0.00     0.310 C 
HETATM   12  C10 UNL     1      30.270  11.697  46.905  1.00  0.00     0.312 C 
HETATM   13  C11 UNL     1      30.254  11.042  48.262  1.00  0.00     0.287 C 
HETATM   14  C12 UNL     1      28.937  11.047  48.957  1.00  0.00    -0.018 C 
HETATM   15  C13 UNL     1      28.362  12.196  48.858  1.00  0.00    -0.010 C 
HETATM   16  C14 UNL     1      28.046  13.581  48.605  1.00  0.00     0.093 C 
HETATM   17  C15 UNL     1      27.086  13.755  47.486  1.00  0.00     0.062 C 
HETATM   18  C16 UNL     1      26.456  13.258  46.470  1.00  0.00     0.018 C 
HETATM   19  C17 UNL     1      26.102  12.224  45.545  1.00  0.00     0.063 C 
HETATM   20  C18 UNL     1      25.944  11.123  44.832  1.00  0.00     0.091 C 
HETATM   21  N3  UNL     1      26.267   9.731  44.570  1.00  0.00    -0.293 N 
HETATM   22  N4  UNL     1      26.643   9.092  45.733  1.00  0.00    -0.184 NA
HETATM   23  C19 UNL     1      26.038   8.134  46.318  1.00  0.00     0.188 C 
HETATM   24  C20 UNL     1      27.068   8.068  47.446  1.00  0.00     0.144 C 
HETATM   25  N5  UNL     1      28.078   8.722  47.467  1.00  0.00    -0.233 NA
HETATM   26  N6  UNL     1      27.279   7.474  48.818  1.00  0.00    -0.340 N 
HETATM   27  H23 UNL     1      26.114   9.634  43.548  1.00  0.00     0.187 HD
HETATM   28  H25 UNL     1      27.815   6.556  48.840  1.00  0.00     0.167 HD
ENDROOT
BRANCH  17  29
HETATM   29  O1  UNL     1      26.665  15.104  47.567  1.00  0.00    -0.275 OA
HETATM   30 BR1  UNL     1      24.948  15.383  48.263  1.00  0.00     0.105 Br
ENDBRANCH  17  29
TORSDOF 1
ENDMDL
MODEL 9
REMARK VINA RESULT:      -6.3      7.256     10.465
REMARK  1 active torsions:
REMARK  status: ('A' for Active; 'I' for Inactive)
REMARK    1  A    between atoms: C15_17  and  O1_18 
ROOT
HETATM    1  C1  UNL     1      25.264   8.093  46.592  1.00  0.00     0.038 C 
HETATM    2  C2  UNL     1      25.911   9.208  45.837  1.00  0.00    -0.002 C 
HETATM    3  C3  UNL     1      27.157   9.034  45.461  1.00  0.00     0.030 C 
HETATM    4  C4  UNL     1      28.444   8.449  45.259  1.00  0.00     0.038 C 
HETATM    5  C5  UNL     1      29.432   8.943  44.578  1.00  0.00    -0.020 C 
HETATM    6  C6  UNL     1      29.860  10.060  43.744  1.00  0.00     0.315 C 
HETATM    7  N1  UNL     1      31.086  10.432  44.377  1.00  0.00     0.130 N 
HETATM    8  C7  UNL     1      30.737  10.552  45.884  1.00  0.00     0.375 C 
HETATM    9  C8  UNL     1      31.807  11.517  46.279  1.00  0.00     0.331 C 
HETATM   10  N2  UNL     1      33.043  10.931  45.685  1.00  0.00     0.090 N 
HETATM   11  C9  UNL     1      33.255  11.582  44.429  1.00  0.00     0.310 C 
HETATM   12  C10 UNL     1      32.916   9.488  45.442  1.00  0.00     0.312 C 
HETATM   13  C11 UNL     1      31.844   9.141  44.442  1.00  0.00     0.287 C 
HETATM   14  C12 UNL     1      30.726   8.309  44.968  1.00  0.00    -0.018 C 
HETATM   15  C13 UNL     1      31.166   7.350  45.707  1.00  0.00    -0.010 C 
HETATM   16  C14 UNL     1      31.988   6.391  46.406  1.00  0.00     0.093 C 
HETATM   17  C15 UNL     1      32.050   6.646  47.867  1.00  0.00     0.062 C 
HETATM   18  C16 UNL     1      31.830   7.433  48.872  1.00  0.00     0.018 C 
HETATM   19  C17 UNL     1      31.388   8.642  49.497  1.00  0.00     0.063 C 
HETATM   20  C18 UNL     1      30.920   9.833  49.828  1.00  0.00     0.091 C 
HETATM   21  N3  UNL     1      30.342  11.112  49.451  1.00  0.00    -0.293 N 
HETATM   22  N4  UNL     1      29.608  10.990  48.290  1.00  0.00    -0.184 NA
HETATM   23  C19 UNL     1      28.350  11.151  48.151  1.00  0.00     0.188 C 
HETATM   24  C20 UNL     1      28.396  10.833  46.657  1.00  0.00     0.144 C 
HETATM   25  N5  UNL     1      29.415  10.652  46.043  1.00  0.00    -0.233 NA
HETATM   26  N6  UNL     1      27.492  10.501  45.494  1.00  0.00    -0.340 N 
HETATM   27  H23 UNL     1      30.670  11.755  50.197  1.00  0.00     0.187 HD
HETATM   28  H25 UNL     1      27.213  11.326  44.883  1.00  0.00     0.167 HD
ENDROOT
BRANCH  17  29
HETATM   29  O1  UNL     1      32.627   5.479  48.421  1.00  0.00    -0.275 OA
HETATM   30 BR1  UNL     1      32.402   3.906  47.426  1.00  0.00     0.105 Br
ENDBRANCH  17  29
TORSDOF 1
ENDMDL
