MODEL 1
REMARK VINA RESULT:      -6.0      0.000      0.000
REMARK  0 active torsions:
REMARK  status: ('A' for Active; 'I' for Inactive)
ROOT
HETATM    1  C1  UNL     1      29.362   6.400  47.752  1.00  0.00     0.232 C 
HETATM    2  N1  UNL     1      29.281   7.706  47.888  1.00  0.00    -0.253 NA
HETATM    3  C2  UNL     1      30.246   8.753  47.819  1.00  0.00     0.130 C 
HETATM    4  C3  UNL     1      31.556   8.671  48.099  1.00  0.00     0.016 C 
HETATM    5  C4  UNL     1      32.417   9.684  47.356  1.00  0.00     0.210 C 
HETATM    6  O1  UNL     1      32.817   8.981  46.233  1.00  0.00    -0.385 OA
HETATM    7  C5  UNL     1      33.762   9.439  45.420  1.00  0.00     0.198 C 
HETATM    8  C6  UNL     1      34.078   8.504  44.251  1.00  0.00     0.295 C 
HETATM    9  N2  UNL     1      34.361   7.159  44.776  1.00  0.00     0.087 N 
HETATM   10  C7  UNL     1      33.154   6.452  45.052  1.00  0.00     0.289 C 
HETATM   11  C8  UNL     1      33.184   5.276  45.953  1.00  0.00     0.147 C 
HETATM   12  N3  UNL     1      33.299   5.520  47.335  1.00  0.00    -0.403 N 
HETATM   13  C9  UNL     1      34.537   5.752  47.942  1.00  0.00     0.144 C 
HETATM   14  C10 UNL     1      34.919   7.192  48.181  1.00  0.00     0.195 C 
HETATM   15  O2  UNL     1      33.859   7.860  48.820  1.00  0.00    -0.349 OA
HETATM   16  C11 UNL     1      32.428   7.740  48.955  1.00  0.00     0.080 C 
HETATM   17  C12 UNL     1      31.970   6.769  49.861  1.00  0.00     0.066 C 
HETATM   18  C13 UNL     1      31.527   5.689  48.881  1.00  0.00     0.056 C 
HETATM   19  N4  UNL     1      30.267   5.466  48.454  1.00  0.00    -0.245 NA
HETATM   20  C14 UNL     1      32.375   4.674  48.125  1.00  0.00     0.176 C 
HETATM   21  H9  UNL     1      34.887   6.662  44.024  1.00  0.00     0.316 HD
ENDROOT
TORSDOF 0
ENDMDL
MODEL 2
REMARK VINA RESULT:      -5.9      8.561     10.933
REMARK  0 active torsions:
REMARK  status: ('A' for Active; 'I' for Inactive)
ROOT
HETATM    1  C1  UNL     1      21.459   0.983  49.179  1.00  0.00     0.232 C 
HETATM    2  N1  UNL     1      20.856   1.999  48.598  1.00  0.00    -0.253 NA
HETATM    3  C2  UNL     1      21.007   3.412  48.709  1.00  0.00     0.130 C 
HETATM    4  C3  UNL     1      21.432   4.103  49.778  1.00  0.00     0.016 C 
HETATM    5  C4  UNL     1      22.089   5.434  49.439  1.00  0.00     0.210 C 
HETATM    6  O1  UNL     1      23.431   5.103  49.368  1.00  0.00    -0.385 OA
HETATM    7  C5  UNL     1      24.379   6.032  49.301  1.00  0.00     0.198 C 
HETATM    8  C6  UNL     1      25.798   5.465  49.256  1.00  0.00     0.295 C 
HETATM    9  N2  UNL     1      25.976   4.529  50.377  1.00  0.00     0.087 N 
HETATM   10  C7  UNL     1      25.426   3.250  50.070  1.00  0.00     0.289 C 
HETATM   11  C8  UNL     1      25.120   2.302  51.167  1.00  0.00     0.147 C 
HETATM   12  N3  UNL     1      23.974   2.556  51.944  1.00  0.00    -0.403 N 
HETATM   13  C9  UNL     1      23.992   3.457  53.012  1.00  0.00     0.144 C 
HETATM   14  C10 UNL     1      23.479   4.849  52.737  1.00  0.00     0.195 C 
HETATM   15  O2  UNL     1      22.226   4.773  52.102  1.00  0.00    -0.349 OA
HETATM   16  C11 UNL     1      21.478   3.843  51.291  1.00  0.00     0.080 C 
HETATM   17  C12 UNL     1      20.866   2.779  51.973  1.00  0.00     0.066 C 
HETATM   18  C13 UNL     1      21.824   1.650  51.605  1.00  0.00     0.056 C 
HETATM   19  N4  UNL     1      21.647   0.742  50.624  1.00  0.00    -0.245 NA
HETATM   20  C14 UNL     1      23.191   1.323  52.192  1.00  0.00     0.176 C 
HETATM   21  H9  UNL     1      27.007   4.436  50.512  1.00  0.00     0.316 HD
ENDROOT
TORSDOF 0
ENDMDL
MODEL 3
REMARK VINA RESULT:      -5.9      7.326      9.951
REMARK  0 active torsions:
REMARK  status: ('A' for Active; 'I' for Inactive)
ROOT
HETATM    1  C1  UNL     1      24.935   2.639  53.434  1.00  0.00     0.232 C 
HETATM    2  N1  UNL     1      25.981   2.234  52.746  1.00  0.00    -0.253 NA
HETATM    3  C2  UNL     1      26.456   2.529  51.435  1.00  0.00     0.130 C 
HETATM    4  C3  UNL     1      25.727   2.891  50.368  1.00  0.00     0.016 C 
HETATM    5  C4  UNL     1      26.487   3.732  49.351  1.00  0.00     0.210 C 
HETATM    6  O1  UNL     1      26.191   5.027  49.743  1.00  0.00    -0.385 OA
HETATM    7  C5  UNL     1      26.490   6.075  48.982  1.00  0.00     0.198 C 
HETATM    8  C6  UNL     1      26.059   7.415  49.579  1.00  0.00     0.295 C 
HETATM    9  N2  UNL     1      24.634   7.343  49.939  1.00  0.00     0.087 N 
HETATM   10  C7  UNL     1      24.455   6.694  51.196  1.00  0.00     0.289 C 
HETATM   11  C8  UNL     1      23.126   6.147  51.555  1.00  0.00     0.147 C 
HETATM   12  N3  UNL     1      22.728   4.947  50.934  1.00  0.00    -0.403 N 
HETATM   13  C9  UNL     1      22.156   4.933  49.659  1.00  0.00     0.144 C 
HETATM   14  C10 UNL     1      23.074   4.620  48.504  1.00  0.00     0.195 C 
HETATM   15  O2  UNL     1      23.812   3.457  48.790  1.00  0.00    -0.349 OA
HETATM   16  C11 UNL     1      24.261   2.716  49.944  1.00  0.00     0.080 C 
HETATM   17  C12 UNL     1      23.303   1.906  50.573  1.00  0.00     0.066 C 
HETATM   18  C13 UNL     1      22.997   2.769  51.794  1.00  0.00     0.056 C 
HETATM   19  N4  UNL     1      23.514   2.615  53.029  1.00  0.00    -0.245 NA
HETATM   20  C14 UNL     1      22.112   4.005  51.896  1.00  0.00     0.176 C 
HETATM   21  H9  UNL     1      24.306   8.331  50.013  1.00  0.00     0.316 HD
ENDROOT
TORSDOF 0
ENDMDL
MODEL 4
REMARK VINA RESULT:      -5.8      8.349     11.348
REMARK  0 active torsions:
REMARK  status: ('A' for Active; 'I' for Inactive)
ROOT
HETATM    1  C1  UNL     1      26.506   3.394  49.562  1.00  0.00     0.232 C 
HETATM    2  N1  UNL     1      26.675   2.933  50.784  1.00  0.00    -0.253 NA
HETATM    3  C2  UNL     1      25.768   2.611  51.835  1.00  0.00     0.130 C 
HETATM    4  C3  UNL     1      24.561   3.151  52.062  1.00  0.00     0.016 C 
HETATM    5  C4  UNL     1      23.593   2.230  52.793  1.00  0.00     0.210 C 
HETATM    6  O1  UNL     1      22.906   1.623  51.755  1.00  0.00    -0.385 OA
HETATM    7  C5  UNL     1      21.815   0.896  51.969  1.00  0.00     0.198 C 
HETATM    8  C6  UNL     1      21.188   0.333  50.692  1.00  0.00     0.295 C 
HETATM    9  N2  UNL     1      20.980   1.431  49.736  1.00  0.00     0.087 N 
HETATM   10  C7  UNL     1      22.185   1.741  49.040  1.00  0.00     0.289 C 
HETATM   11  C8  UNL     1      22.320   3.048  48.355  1.00  0.00     0.147 C 
HETATM   12  N3  UNL     1      22.549   4.182  49.158  1.00  0.00    -0.403 N 
HETATM   13  C9  UNL     1      21.503   4.859  49.791  1.00  0.00     0.144 C 
HETATM   14  C10 UNL     1      21.253   4.524  51.241  1.00  0.00     0.195 C 
HETATM   15  O2  UNL     1      22.464   4.589  51.954  1.00  0.00    -0.349 OA
HETATM   16  C11 UNL     1      23.879   4.478  51.698  1.00  0.00     0.080 C 
HETATM   17  C12 UNL     1      24.497   5.604  51.130  1.00  0.00     0.066 C 
HETATM   18  C13 UNL     1      24.645   5.120  49.692  1.00  0.00     0.056 C 
HETATM   19  N4  UNL     1      25.755   4.592  49.137  1.00  0.00    -0.245 NA
HETATM   20  C14 UNL     1      23.596   5.060  48.588  1.00  0.00     0.176 C 
HETATM   21  H9  UNL     1      20.268   1.088  49.054  1.00  0.00     0.316 HD
ENDROOT
TORSDOF 0
ENDMDL
MODEL 5
REMARK VINA RESULT:      -5.7      8.360     10.756
REMARK  0 active torsions:
REMARK  status: ('A' for Active; 'I' for Inactive)
ROOT
HETATM    1  C1  UNL     1      20.684   4.079  47.806  1.00  0.00     0.232 C 
HETATM    2  N1  UNL     1      20.134   5.229  48.132  1.00  0.00    -0.253 NA
HETATM    3  C2  UNL     1      20.443   6.208  49.121  1.00  0.00     0.130 C 
HETATM    4  C3  UNL     1      21.045   6.008  50.304  1.00  0.00     0.016 C 
HETATM    5  C4  UNL     1      21.799   7.221  50.833  1.00  0.00     0.210 C 
HETATM    6  O1  UNL     1      23.085   7.007  50.367  1.00  0.00    -0.385 OA
HETATM    7  C5  UNL     1      24.113   7.736  50.790  1.00  0.00     0.198 C 
HETATM    8  C6  UNL     1      25.453   7.328  50.176  1.00  0.00     0.295 C 
HETATM    9  N2  UNL     1      25.646   5.882  50.364  1.00  0.00     0.087 N 
HETATM   10  C7  UNL     1      24.937   5.137  49.377  1.00  0.00     0.289 C 
HETATM   11  C8  UNL     1      24.647   3.703  49.609  1.00  0.00     0.147 C 
HETATM   12  N3  UNL     1      23.619   3.386  50.517  1.00  0.00    -0.403 N 
HETATM   13  C9  UNL     1      23.840   3.348  51.896  1.00  0.00     0.144 C 
HETATM   14  C10 UNL     1      23.451   4.575  52.683  1.00  0.00     0.195 C 
HETATM   15  O2  UNL     1      22.139   4.953  52.346  1.00  0.00    -0.349 OA
HETATM   16  C11 UNL     1      21.218   4.806  51.245  1.00  0.00     0.080 C 
HETATM   17  C12 UNL     1      20.571   3.565  51.139  1.00  0.00     0.066 C 
HETATM   18  C13 UNL     1      21.363   2.958  49.985  1.00  0.00     0.056 C 
HETATM   19  N4  UNL     1      20.993   2.935  48.688  1.00  0.00    -0.245 NA
HETATM   20  C14 UNL     1      22.741   2.310  50.004  1.00  0.00     0.176 C 
HETATM   21  H9  UNL     1      26.670   5.712  50.252  1.00  0.00     0.316 HD
ENDROOT
TORSDOF 0
ENDMDL
MODEL 6
REMARK VINA RESULT:      -5.7      9.339     11.994
REMARK  0 active torsions:
REMARK  status: ('A' for Active; 'I' for Inactive)
ROOT
HETATM    1  C1  UNL     1      22.456   5.733  48.129  1.00  0.00     0.232 C 
HETATM    2  N1  UNL     1      22.269   4.678  47.363  1.00  0.00    -0.253 NA
HETATM    3  C2  UNL     1      22.150   3.285  47.640  1.00  0.00     0.130 C 
HETATM    4  C3  UNL     1      22.691   2.611  48.666  1.00  0.00     0.016 C 
HETATM    5  C4  UNL     1      21.917   1.362  49.068  1.00  0.00     0.210 C 
HETATM    6  O1  UNL     1      21.085   1.828  50.072  1.00  0.00    -0.385 OA
HETATM    7  C5  UNL     1      20.388   1.000  50.844  1.00  0.00     0.198 C 
HETATM    8  C6  UNL     1      19.550   1.708  51.909  1.00  0.00     0.295 C 
HETATM    9  N2  UNL     1      20.415   2.625  52.668  1.00  0.00     0.087 N 
HETATM   10  C7  UNL     1      20.606   3.851  51.964  1.00  0.00     0.289 C 
HETATM   11  C8  UNL     1      21.741   4.733  52.323  1.00  0.00     0.147 C 
HETATM   12  N3  UNL     1      23.025   4.343  51.896  1.00  0.00    -0.403 N 
HETATM   13  C9  UNL     1      23.791   3.419  52.611  1.00  0.00     0.144 C 
HETATM   14  C10 UNL     1      23.763   1.991  52.126  1.00  0.00     0.195 C 
HETATM   15  O2  UNL     1      24.013   1.959  50.742  1.00  0.00    -0.349 OA
HETATM   16  C11 UNL     1      23.891   2.831  49.600  1.00  0.00     0.080 C 
HETATM   17  C12 UNL     1      24.889   3.809  49.457  1.00  0.00     0.066 C 
HETATM   18  C13 UNL     1      24.116   5.038  49.925  1.00  0.00     0.056 C 
HETATM   19  N4  UNL     1      23.515   5.951  49.135  1.00  0.00    -0.245 NA
HETATM   20  C14 UNL     1      23.793   5.484  51.345  1.00  0.00     0.176 C 
HETATM   21  H9  UNL     1      19.914   2.818  53.563  1.00  0.00     0.316 HD
ENDROOT
TORSDOF 0
ENDMDL
MODEL 7
REMARK VINA RESULT:      -5.6      1.824      4.038
REMARK  0 active torsions:
REMARK  status: ('A' for Active; 'I' for Inactive)
ROOT
HETATM    1  C1  UNL     1      30.534   9.730  48.804  1.00  0.00     0.232 C 
HETATM    2  N1  UNL     1      29.877   8.602  48.973  1.00  0.00    -0.253 NA
HETATM    3  C2  UNL     1      30.136   7.258  48.577  1.00  0.00     0.130 C 
HETATM    4  C3  UNL     1      30.837   6.845  47.509  1.00  0.00     0.016 C 
HETATM    5  C4  UNL     1      31.478   5.473  47.678  1.00  0.00     0.210 C 
HETATM    6  O1  UNL     1      32.745   5.784  48.140  1.00  0.00    -0.385 OA
HETATM    7  C5  UNL     1      33.707   4.869  48.214  1.00  0.00     0.198 C 
HETATM    8  C6  UNL     1      35.041   5.415  48.726  1.00  0.00     0.295 C 
HETATM    9  N2  UNL     1      35.414   6.593  47.927  1.00  0.00     0.087 N 
HETATM   10  C7  UNL     1      34.731   7.759  48.382  1.00  0.00     0.289 C 
HETATM   11  C8  UNL     1      34.629   8.941  47.494  1.00  0.00     0.147 C 
HETATM   12  N3  UNL     1      33.710   8.876  46.430  1.00  0.00    -0.403 N 
HETATM   13  C9  UNL     1      34.028   8.257  45.218  1.00  0.00     0.144 C 
HETATM   14  C10 UNL     1      33.552   6.837  45.033  1.00  0.00     0.195 C 
HETATM   15  O2  UNL     1      32.184   6.754  45.352  1.00  0.00    -0.349 OA
HETATM   16  C11 UNL     1      31.214   7.460  46.153  1.00  0.00     0.080 C 
HETATM   17  C12 UNL     1      30.712   8.654  45.611  1.00  0.00     0.066 C 
HETATM   18  C13 UNL     1      31.488   9.665  46.448  1.00  0.00     0.056 C 
HETATM   19  N4  UNL     1      31.035  10.311  47.541  1.00  0.00    -0.245 NA
HETATM   20  C14 UNL     1      32.931  10.129  46.295  1.00  0.00     0.176 C 
HETATM   21  H9  UNL     1      36.441   6.721  48.067  1.00  0.00     0.316 HD
ENDROOT
TORSDOF 0
ENDMDL
MODEL 8
REMARK VINA RESULT:      -5.5     22.936     24.942
REMARK  0 active torsions:
REMARK  status: ('A' for Active; 'I' for Inactive)
ROOT
HETATM    1  C1  UNL     1      37.590  -0.061  67.967  1.00  0.00     0.232 C 
HETATM    2  N1  UNL     1      37.408  -1.073  67.145  1.00  0.00    -0.253 NA
HETATM    3  C2  UNL     1      38.090  -2.311  66.961  1.00  0.00     0.130 C 
HETATM    4  C3  UNL     1      39.383  -2.572  67.210  1.00  0.00     0.016 C 
HETATM    5  C4  UNL     1      39.671  -4.031  67.539  1.00  0.00     0.210 C 
HETATM    6  O1  UNL     1      39.606  -4.051  68.922  1.00  0.00    -0.385 OA
HETATM    7  C5  UNL     1      40.011  -5.103  69.626  1.00  0.00     0.198 C 
HETATM    8  C6  UNL     1      39.882  -4.920  71.139  1.00  0.00     0.295 C 
HETATM    9  N2  UNL     1      40.546  -3.666  71.528  1.00  0.00     0.087 N 
HETATM   10  C7  UNL     1      39.700  -2.543  71.292  1.00  0.00     0.289 C 
HETATM   11  C8  UNL     1      40.290  -1.185  71.214  1.00  0.00     0.147 C 
HETATM   12  N3  UNL     1      40.987  -0.847  70.039  1.00  0.00    -0.403 N 
HETATM   13  C9  UNL     1      42.322  -1.209  69.843  1.00  0.00     0.144 C 
HETATM   14  C10 UNL     1      42.578  -2.447  69.020  1.00  0.00     0.195 C 
HETATM   15  O2  UNL     1      41.846  -2.376  67.821  1.00  0.00    -0.349 OA
HETATM   16  C11 UNL     1      40.662  -1.728  67.313  1.00  0.00     0.080 C 
HETATM   17  C12 UNL     1      40.796  -0.374  66.965  1.00  0.00     0.066 C 
HETATM   18  C13 UNL     1      40.103   0.271  68.160  1.00  0.00     0.056 C 
HETATM   19  N4  UNL     1      38.828   0.709  68.203  1.00  0.00    -0.245 NA
HETATM   20  C14 UNL     1      40.641   0.513  69.565  1.00  0.00     0.176 C 
HETATM   21  H9  UNL     1      40.734  -3.746  72.552  1.00  0.00     0.316 HD
ENDROOT
TORSDOF 0
ENDMDL
MODEL 9
REMARK VINA RESULT:      -5.5      2.138      4.027
REMARK  0 active torsions:
REMARK  status: ('A' for Active; 'I' for Inactive)
ROOT
HETATM    1  C1  UNL     1      35.047   3.642  47.201  1.00  0.00     0.232 C 
HETATM    2  N1  UNL     1      34.936   3.541  45.893  1.00  0.00    -0.253 NA
HETATM    3  C2  UNL     1      34.402   4.405  44.893  1.00  0.00     0.130 C 
HETATM    4  C3  UNL     1      33.423   5.312  45.041  1.00  0.00     0.016 C 
HETATM    5  C4  UNL     1      33.501   6.476  44.062  1.00  0.00     0.210 C 
HETATM    6  O1  UNL     1      34.215   7.426  44.773  1.00  0.00    -0.385 OA
HETATM    7  C5  UNL     1      34.322   8.682  44.352  1.00  0.00     0.198 C 
HETATM    8  C6  UNL     1      35.129   9.580  45.290  1.00  0.00     0.295 C 
HETATM    9  N2  UNL     1      34.585   9.465  46.652  1.00  0.00     0.087 N 
HETATM   10  C7  UNL     1      35.078   8.296  47.303  1.00  0.00     0.289 C 
HETATM   11  C8  UNL     1      34.365   7.762  48.488  1.00  0.00     0.147 C 
HETATM   12  N3  UNL     1      33.159   7.070  48.263  1.00  0.00    -0.403 N 
HETATM   13  C9  UNL     1      31.945   7.741  48.096  1.00  0.00     0.144 C 
HETATM   14  C10 UNL     1      31.478   7.964  46.679  1.00  0.00     0.195 C 
HETATM   15  O2  UNL     1      31.541   6.752  45.967  1.00  0.00    -0.349 OA
HETATM   16  C11 UNL     1      32.256   5.501  46.020  1.00  0.00     0.080 C 
HETATM   17  C12 UNL     1      31.812   4.573  46.977  1.00  0.00     0.066 C 
HETATM   18  C13 UNL     1      32.907   4.738  48.025  1.00  0.00     0.056 C 
HETATM   19  N4  UNL     1      33.987   3.947  48.183  1.00  0.00    -0.245 NA
HETATM   20  C14 UNL     1      33.074   5.833  49.072  1.00  0.00     0.176 C 
HETATM   21  H9  UNL     1      34.916  10.310  47.166  1.00  0.00     0.316 HD
ENDROOT
TORSDOF 0
ENDMDL
