MODEL 1
REMARK VINA RESULT:      -7.5      0.000      0.000
REMARK  4 active torsions:
REMARK  status: ('A' for Active; 'I' for Inactive)
REMARK    1  A    between atoms: C2_2  and  C3_3 
REMARK    2  A    between atoms: C8_10  and  C9_11 
REMARK    3  A    between atoms: C9_11  and  N2_12 
REMARK    4  A    between atoms: C15_19  and  N3_20 
ROOT
HETATM    1  C3  UNL     1      26.955  -0.871  53.172  1.00  0.00     0.097 A 
HETATM    2  C4  UNL     1      25.568  -0.071  53.177  1.00  0.00     0.018 A 
HETATM    3 BR1  UNL     1      26.685   0.955  51.874  1.00  0.00    -0.119 Br
HETATM    4  C5  UNL     1      24.227   0.396  53.261  1.00  0.00     0.056 C 
HETATM    5  N1  UNL     1      23.395  -0.644  53.634  1.00  0.00    -0.390 N 
HETATM    6  C6  UNL     1      22.444  -0.127  54.612  1.00  0.00     0.120 C 
HETATM    7  C7  UNL     1      21.041  -0.656  54.305  1.00  0.00     0.027 C 
HETATM    8  C8  UNL     1      20.853  -0.089  52.743  1.00  0.00    -0.016 C 
HETATM    9  C10 UNL     1      21.853   0.655  52.035  1.00  0.00     0.056 A 
HETATM   10  C11 UNL     1      21.008   0.775  50.895  1.00  0.00     0.021 A 
HETATM   11  C12 UNL     1      22.163   1.439  50.624  1.00  0.00     0.041 A 
HETATM   12  I1  UNL     1      21.480   1.957  48.603  1.00  0.00    -0.074 I 
HETATM   13  C13 UNL     1      23.490   2.124  50.513  1.00  0.00    -0.007 C 
HETATM   14  C14 UNL     1      24.315   2.134  51.484  1.00  0.00     0.012 C 
HETATM   15  C15 UNL     1      24.641   1.747  52.818  1.00  0.00     0.290 C 
HETATM   16  H6  UNL     1      23.742  -1.427  53.003  1.00  0.00     0.159 HD
ENDROOT
BRANCH  15  17
HETATM   17  N3  UNL     1      25.606   2.381  53.651  1.00  0.00     0.092 NA
HETATM   18  H20 UNL     1      25.918   1.789  54.527  1.00  0.00     0.314 HD
HETATM   19  H21 UNL     1      25.223   3.247  54.081  1.00  0.00     0.314 HD
ENDBRANCH  15  17
BRANCH   1  20
HETATM   20  C2  UNL     1      28.341  -0.896  53.083  1.00  0.00     0.005 C 
HETATM   21  C1  UNL     1      28.252  -2.452  52.877  1.00  0.00     0.012 C 
ENDBRANCH   1  20
BRANCH   8  22
HETATM   22  C9  UNL     1      19.364  -0.507  52.543  1.00  0.00     0.272 C 
BRANCH  22  23
HETATM   23  N2  UNL     1      18.856  -1.121  53.717  1.00  0.00     0.078 N 
HETATM   24  H13 UNL     1      18.575  -0.443  54.479  1.00  0.00     0.312 HD
HETATM   25  H14 UNL     1      17.916  -1.593  53.482  1.00  0.00     0.312 HD
ENDBRANCH  22  23
ENDBRANCH   8  22
TORSDOF 4
ENDMDL
MODEL 2
REMARK VINA RESULT:      -7.0      2.992      4.475
REMARK  4 active torsions:
REMARK  status: ('A' for Active; 'I' for Inactive)
REMARK    1  A    between atoms: C2_2  and  C3_3 
REMARK    2  A    between atoms: C8_10  and  C9_11 
REMARK    3  A    between atoms: C9_11  and  N2_12 
REMARK    4  A    between atoms: C15_19  and  N3_20 
ROOT
HETATM    1  C3  UNL     1      25.792   4.782  49.513  1.00  0.00     0.097 A 
HETATM    2  C4  UNL     1      24.919   4.209  50.727  1.00  0.00     0.018 A 
HETATM    3 BR1  UNL     1      23.779   5.680  49.996  1.00  0.00    -0.119 Br
HETATM    4  C5  UNL     1      24.287   3.465  51.760  1.00  0.00     0.056 C 
HETATM    5  N1  UNL     1      24.789   2.176  51.779  1.00  0.00    -0.390 N 
HETATM    6  C6  UNL     1      24.987   1.795  53.173  1.00  0.00     0.120 C 
HETATM    7  C7  UNL     1      24.496   0.363  53.397  1.00  0.00     0.027 C 
HETATM    8  C8  UNL     1      22.905   0.524  52.911  1.00  0.00    -0.016 C 
HETATM    9  C10 UNL     1      22.335   1.745  52.423  1.00  0.00     0.056 A 
HETATM   10  C11 UNL     1      21.062   1.128  52.257  1.00  0.00     0.021 A 
HETATM   11  C12 UNL     1      20.937   2.433  51.900  1.00  0.00     0.041 A 
HETATM   12  I1  UNL     1      18.825   2.163  51.368  1.00  0.00    -0.074 I 
HETATM   13  C13 UNL     1      20.992   3.891  51.562  1.00  0.00    -0.007 C 
HETATM   14  C14 UNL     1      22.058   4.569  51.718  1.00  0.00     0.012 C 
HETATM   15  C15 UNL     1      23.429   4.622  52.107  1.00  0.00     0.290 C 
HETATM   16  H6  UNL     1      24.781   1.933  50.744  1.00  0.00     0.159 HD
ENDROOT
BRANCH  15  17
HETATM   17  N3  UNL     1      24.137   5.797  52.489  1.00  0.00     0.092 NA
HETATM   18  H20 UNL     1      24.846   5.659  53.322  1.00  0.00     0.314 HD
HETATM   19  H21 UNL     1      23.491   6.526  52.853  1.00  0.00     0.314 HD
ENDBRANCH  15  17
BRANCH   1  20
HETATM   20  C2  UNL     1      26.225   5.840  48.723  1.00  0.00     0.005 C 
HETATM   21  C1  UNL     1      27.614   5.115  48.597  1.00  0.00     0.012 C 
ENDBRANCH   1  20
BRANCH   8  22
HETATM   22  C9  UNL     1      22.415  -0.903  53.311  1.00  0.00     0.272 C 
BRANCH  22  23
HETATM   23  N2  UNL     1      22.589  -1.117  54.703  1.00  0.00     0.078 N 
HETATM   24  H13 UNL     1      21.972  -0.517  55.319  1.00  0.00     0.312 HD
HETATM   25  H14 UNL     1      22.246  -2.110  54.945  1.00  0.00     0.312 HD
ENDBRANCH  22  23
ENDBRANCH   8  22
TORSDOF 4
ENDMDL
MODEL 3
REMARK VINA RESULT:      -6.9      3.286      5.856
REMARK  4 active torsions:
REMARK  status: ('A' for Active; 'I' for Inactive)
REMARK    1  A    between atoms: C2_2  and  C3_3 
REMARK    2  A    between atoms: C8_10  and  C9_11 
REMARK    3  A    between atoms: C9_11  and  N2_12 
REMARK    4  A    between atoms: C15_19  and  N3_20 
ROOT
HETATM    1  C3  UNL     1      24.013   4.648  48.948  1.00  0.00     0.097 A 
HETATM    2  C4  UNL     1      24.317   3.930  50.347  1.00  0.00     0.018 A 
HETATM    3 BR1  UNL     1      22.389   4.438  50.500  1.00  0.00    -0.119 Br
HETATM    4  C5  UNL     1      24.787   3.162  51.447  1.00  0.00     0.056 C 
HETATM    5  N1  UNL     1      25.829   2.349  51.035  1.00  0.00    -0.390 N 
HETATM    6  C6  UNL     1      26.856   2.380  52.071  1.00  0.00     0.120 C 
HETATM    7  C7  UNL     1      27.390   0.968  52.317  1.00  0.00     0.027 C 
HETATM    8  C8  UNL     1      25.970   0.188  52.730  1.00  0.00    -0.016 C 
HETATM    9  C10 UNL     1      24.687   0.827  52.767  1.00  0.00     0.056 A 
HETATM   10  C11 UNL     1      24.058  -0.380  53.187  1.00  0.00     0.021 A 
HETATM   11  C12 UNL     1      23.101   0.582  53.123  1.00  0.00     0.041 A 
HETATM   12  I1  UNL     1      21.529  -0.835  53.702  1.00  0.00    -0.074 I 
HETATM   13  C13 UNL     1      22.196   1.770  53.004  1.00  0.00    -0.007 C 
HETATM   14  C14 UNL     1      22.645   2.919  52.688  1.00  0.00     0.012 C 
HETATM   15  C15 UNL     1      23.753   3.745  52.332  1.00  0.00     0.290 C 
HETATM   16  H6  UNL     1      25.442   1.959  50.125  1.00  0.00     0.159 HD
ENDROOT
BRANCH  15  17
HETATM   17  N3  UNL     1      23.802   5.162  52.458  1.00  0.00     0.092 NA
HETATM   18  H20 UNL     1      23.526   5.547  53.453  1.00  0.00     0.314 HD
HETATM   19  H21 UNL     1      23.112   5.621  51.832  1.00  0.00     0.314 HD
ENDBRANCH  15  17
BRANCH   1  20
HETATM   20  C2  UNL     1      23.359   5.618  48.199  1.00  0.00     0.005 C 
HETATM   21  C1  UNL     1      24.657   6.499  48.294  1.00  0.00     0.012 C 
ENDBRANCH   1  20
BRANCH   8  22
HETATM   22  C9  UNL     1      26.590  -1.187  53.126  1.00  0.00     0.272 C 
BRANCH  22  23
HETATM   23  N2  UNL     1      27.682  -1.005  54.012  1.00  0.00     0.078 N 
HETATM   24  H13 UNL     1      28.634  -1.124  53.564  1.00  0.00     0.312 HD
HETATM   25  H14 UNL     1      27.709   0.026  54.322  1.00  0.00     0.312 HD
ENDBRANCH  22  23
ENDBRANCH   8  22
TORSDOF 4
ENDMDL
MODEL 4
REMARK VINA RESULT:      -6.6      3.271      5.283
REMARK  4 active torsions:
REMARK  status: ('A' for Active; 'I' for Inactive)
REMARK    1  A    between atoms: C2_2  and  C3_3 
REMARK    2  A    between atoms: C8_10  and  C9_11 
REMARK    3  A    between atoms: C9_11  and  N2_12 
REMARK    4  A    between atoms: C15_19  and  N3_20 
ROOT
HETATM    1  C3  UNL     1      22.777   5.873  51.299  1.00  0.00     0.097 A 
HETATM    2  C4  UNL     1      22.860   4.274  51.266  1.00  0.00     0.018 A 
HETATM    3 BR1  UNL     1      24.642   4.841  50.560  1.00  0.00    -0.119 Br
HETATM    4  C5  UNL     1      22.742   2.868  51.440  1.00  0.00     0.056 C 
HETATM    5  N1  UNL     1      21.835   2.598  52.449  1.00  0.00    -0.390 N 
HETATM    6  C6  UNL     1      21.007   1.477  52.017  1.00  0.00     0.120 C 
HETATM    7  C7  UNL     1      20.819   0.493  53.173  1.00  0.00     0.027 C 
HETATM    8  C8  UNL     1      22.416   0.127  53.505  1.00  0.00    -0.016 C 
HETATM    9  C10 UNL     1      23.530   0.696  52.806  1.00  0.00     0.056 A 
HETATM   10  C11 UNL     1      24.452  -0.063  53.584  1.00  0.00     0.021 A 
HETATM   11  C12 UNL     1      25.169   0.663  52.687  1.00  0.00     0.041 A 
HETATM   12  I1  UNL     1      27.070  -0.100  53.474  1.00  0.00    -0.074 I 
HETATM   13  C13 UNL     1      25.782   1.526  51.626  1.00  0.00    -0.007 C 
HETATM   14  C14 UNL     1      25.063   2.212  50.830  1.00  0.00     0.012 C 
HETATM   15  C15 UNL     1      23.768   2.626  50.399  1.00  0.00     0.290 C 
HETATM   16  H6  UNL     1      22.138   3.293  53.195  1.00  0.00     0.159 HD
ENDROOT
BRANCH  15  17
HETATM   17  N3  UNL     1      23.452   3.153  49.114  1.00  0.00     0.092 NA
HETATM   18  H20 UNL     1      24.226   2.993  48.347  1.00  0.00     0.314 HD
HETATM   19  H21 UNL     1      23.363   4.188  49.142  1.00  0.00     0.314 HD
ENDBRANCH  15  17
BRANCH   1  20
HETATM   20  C2  UNL     1      23.088   7.116  50.761  1.00  0.00     0.005 C 
HETATM   21  C1  UNL     1      21.550   7.359  50.555  1.00  0.00     0.012 C 
ENDBRANCH   1  20
BRANCH   8  22
HETATM   22  C9  UNL     1      22.163  -0.990  54.564  1.00  0.00     0.272 C 
BRANCH  22  23
HETATM   23  N2  UNL     1      20.793  -1.359  54.583  1.00  0.00     0.078 N 
HETATM   24  H13 UNL     1      20.600  -2.342  54.240  1.00  0.00     0.312 HD
HETATM   25  H14 UNL     1      20.462  -1.411  55.606  1.00  0.00     0.312 HD
ENDBRANCH  22  23
ENDBRANCH   8  22
TORSDOF 4
ENDMDL
MODEL 5
REMARK VINA RESULT:      -6.3      9.221     10.565
REMARK  4 active torsions:
REMARK  status: ('A' for Active; 'I' for Inactive)
REMARK    1  A    between atoms: C2_2  and  C3_3 
REMARK    2  A    between atoms: C8_10  and  C9_11 
REMARK    3  A    between atoms: C9_11  and  N2_12 
REMARK    4  A    between atoms: C15_19  and  N3_20 
ROOT
HETATM    1  C3  UNL     1      32.348   4.187  47.097  1.00  0.00     0.097 A 
HETATM    2  C4  UNL     1      31.386   5.158  47.931  1.00  0.00     0.018 A 
HETATM    3 BR1  UNL     1      33.212   5.869  48.328  1.00  0.00    -0.119 Br
HETATM    4  C5  UNL     1      30.340   5.950  48.480  1.00  0.00     0.056 C 
HETATM    5  N1  UNL     1      29.200   5.817  47.708  1.00  0.00    -0.390 N 
HETATM    6  C6  UNL     1      28.060   5.703  48.610  1.00  0.00     0.120 C 
HETATM    7  C7  UNL     1      26.902   6.561  48.097  1.00  0.00     0.027 C 
HETATM    8  C8  UNL     1      27.645   8.058  48.057  1.00  0.00    -0.016 C 
HETATM    9  C10 UNL     1      29.013   8.282  48.420  1.00  0.00     0.056 A 
HETATM   10  C11 UNL     1      28.889   9.678  48.165  1.00  0.00     0.021 A 
HETATM   11  C12 UNL     1      30.155   9.450  48.605  1.00  0.00     0.041 A 
HETATM   12  I1  UNL     1      30.695  11.566  48.382  1.00  0.00    -0.074 I 
HETATM   13  C13 UNL     1      31.492   9.007  49.114  1.00  0.00    -0.007 C 
HETATM   14  C14 UNL     1      31.714   7.794  49.429  1.00  0.00     0.012 C 
HETATM   15  C15 UNL     1      31.242   6.452  49.543  1.00  0.00     0.290 C 
HETATM   16  H6  UNL     1      29.600   5.911  46.727  1.00  0.00     0.159 HD
ENDROOT
BRANCH  15  17
HETATM   17  N3  UNL     1      31.805   5.444  50.376  1.00  0.00     0.092 NA
HETATM   18  H20 UNL     1      32.774   5.709  50.829  1.00  0.00     0.314 HD
HETATM   19  H21 UNL     1      32.029   4.587  49.833  1.00  0.00     0.314 HD
ENDBRANCH  15  17
BRANCH   1  20
HETATM   20  C2  UNL     1      33.545   3.497  46.952  1.00  0.00     0.005 C 
HETATM   21  C1  UNL     1      32.718   2.161  46.924  1.00  0.00     0.012 C 
ENDBRANCH   1  20
BRANCH   8  22
HETATM   22  C9  UNL     1      26.390   8.909  47.691  1.00  0.00     0.272 C 
BRANCH  22  23
HETATM   23  N2  UNL     1      25.324   8.071  47.273  1.00  0.00     0.078 N 
HETATM   24  H13 UNL     1      25.624   7.112  46.943  1.00  0.00     0.312 HD
HETATM   25  H14 UNL     1      24.716   7.831  48.130  1.00  0.00     0.312 HD
ENDBRANCH  22  23
ENDBRANCH   8  22
TORSDOF 4
ENDMDL
MODEL 6
REMARK VINA RESULT:      -6.2      3.230      6.165
REMARK  4 active torsions:
REMARK  status: ('A' for Active; 'I' for Inactive)
REMARK    1  A    between atoms: C2_2  and  C3_3 
REMARK    2  A    between atoms: C8_10  and  C9_11 
REMARK    3  A    between atoms: C9_11  and  N2_12 
REMARK    4  A    between atoms: C15_19  and  N3_20 
ROOT
HETATM    1  C3  UNL     1      21.703   2.957  48.126  1.00  0.00     0.097 A 
HETATM    2  C4  UNL     1      22.228   2.879  49.636  1.00  0.00     0.018 A 
HETATM    3 BR1  UNL     1      20.261   2.568  49.817  1.00  0.00    -0.119 Br
HETATM    4  C5  UNL     1      22.937   2.737  50.861  1.00  0.00     0.056 C 
HETATM    5  N1  UNL     1      24.238   2.342  50.603  1.00  0.00    -0.390 N 
HETATM    6  C6  UNL     1      25.118   3.099  51.486  1.00  0.00     0.120 C 
HETATM    7  C7  UNL     1      26.186   2.175  52.074  1.00  0.00     0.027 C 
HETATM    8  C8  UNL     1      25.211   1.042  52.821  1.00  0.00    -0.016 C 
HETATM    9  C10 UNL     1      23.778   1.076  52.795  1.00  0.00     0.056 A 
HETATM   10  C11 UNL     1      23.699  -0.098  53.598  1.00  0.00     0.021 A 
HETATM   11  C12 UNL     1      22.430   0.319  53.351  1.00  0.00     0.041 A 
HETATM   12  I1  UNL     1      21.578  -1.377  54.453  1.00  0.00    -0.074 I 
HETATM   13  C13 UNL     1      21.114   0.934  52.983  1.00  0.00    -0.007 C 
HETATM   14  C14 UNL     1      21.051   2.015  52.313  1.00  0.00     0.012 C 
HETATM   15  C15 UNL     1      21.721   3.076  51.636  1.00  0.00     0.290 C 
HETATM   16  H6  UNL     1      24.085   1.577  49.881  1.00  0.00     0.159 HD
ENDROOT
BRANCH  15  17
HETATM   17  N3  UNL     1      21.166   4.356  51.348  1.00  0.00     0.092 NA
HETATM   18  H20 UNL     1      20.453   4.370  50.508  1.00  0.00     0.314 HD
HETATM   19  H21 UNL     1      21.900   5.025  51.040  1.00  0.00     0.314 HD
ENDBRANCH  15  17
BRANCH   1  20
HETATM   20  C2  UNL     1      20.730   3.301  47.195  1.00  0.00     0.005 C 
HETATM   21  C1  UNL     1      21.883   3.601  46.171  1.00  0.00     0.012 C 
ENDBRANCH   1  20
BRANCH   8  22
HETATM   22  C9  UNL     1      26.336   0.230  53.533  1.00  0.00     0.272 C 
BRANCH  22  23
HETATM   23  N2  UNL     1      27.004   1.036  54.491  1.00  0.00     0.078 N 
HETATM   24  H13 UNL     1      28.049   1.117  54.343  1.00  0.00     0.312 HD
HETATM   25  H14 UNL     1      26.682   2.056  54.369  1.00  0.00     0.312 HD
ENDBRANCH  22  23
ENDBRANCH   8  22
TORSDOF 4
ENDMDL
MODEL 7
REMARK VINA RESULT:      -6.1      3.162      6.200
REMARK  4 active torsions:
REMARK  status: ('A' for Active; 'I' for Inactive)
REMARK    1  A    between atoms: C2_2  and  C3_3 
REMARK    2  A    between atoms: C8_10  and  C9_11 
REMARK    3  A    between atoms: C9_11  and  N2_12 
REMARK    4  A    between atoms: C15_19  and  N3_20 
ROOT
HETATM    1  C3  UNL     1      18.650   3.366  51.531  1.00  0.00     0.097 A 
HETATM    2  C4  UNL     1      19.957   2.479  51.266  1.00  0.00     0.018 A 
HETATM    3 BR1  UNL     1      19.888   3.682  49.671  1.00  0.00    -0.119 Br
HETATM    4  C5  UNL     1      21.122   1.664  51.309  1.00  0.00     0.056 C 
HETATM    5  N1  UNL     1      21.430   1.361  52.623  1.00  0.00    -0.390 N 
HETATM    6  C6  UNL     1      21.818  -0.044  52.678  1.00  0.00     0.120 C 
HETATM    7  C7  UNL     1      23.049  -0.210  53.571  1.00  0.00     0.027 C 
HETATM    8  C8  UNL     1      24.118   0.805  52.782  1.00  0.00    -0.016 C 
HETATM    9  C10 UNL     1      23.787   1.563  51.611  1.00  0.00     0.056 A 
HETATM   10  C11 UNL     1      25.105   2.100  51.543  1.00  0.00     0.021 A 
HETATM   11  C12 UNL     1      24.404   2.592  50.487  1.00  0.00     0.041 A 
HETATM   12  I1  UNL     1      26.114   3.790  49.812  1.00  0.00    -0.074 I 
HETATM   13  C13 UNL     1      23.479   3.016  49.387  1.00  0.00    -0.007 C 
HETATM   14  C14 UNL     1      22.292   2.565  49.307  1.00  0.00     0.012 C 
HETATM   15  C15 UNL     1      21.259   1.735  49.835  1.00  0.00     0.290 C 
HETATM   16  H6  UNL     1      21.319   2.311  53.088  1.00  0.00     0.159 HD
ENDROOT
BRANCH  15  17
HETATM   17  N3  UNL     1      20.141   1.238  49.106  1.00  0.00     0.092 NA
HETATM   18  H20 UNL     1      19.164   1.411  49.586  1.00  0.00     0.314 HD
HETATM   19  H21 UNL     1      20.177   0.203  49.020  1.00  0.00     0.314 HD
ENDBRANCH  15  17
BRANCH   1  20
HETATM   20  C2  UNL     1      17.532   4.048  51.067  1.00  0.00     0.005 C 
HETATM   21  C1  UNL     1      16.650   2.851  51.575  1.00  0.00     0.012 C 
ENDBRANCH   1  20
BRANCH   8  22
HETATM   22  C9  UNL     1      25.388   0.473  53.625  1.00  0.00     0.272 C 
BRANCH  22  23
HETATM   23  N2  UNL     1      25.708  -0.905  53.525  1.00  0.00     0.078 N 
HETATM   24  H13 UNL     1      26.053  -1.206  52.570  1.00  0.00     0.312 HD
HETATM   25  H14 UNL     1      26.565  -1.107  54.145  1.00  0.00     0.312 HD
ENDBRANCH  22  23
ENDBRANCH   8  22
TORSDOF 4
ENDMDL
MODEL 8
REMARK VINA RESULT:      -6.0      4.893      8.126
REMARK  4 active torsions:
REMARK  status: ('A' for Active; 'I' for Inactive)
REMARK    1  A    between atoms: C2_2  and  C3_3 
REMARK    2  A    between atoms: C8_10  and  C9_11 
REMARK    3  A    between atoms: C9_11  and  N2_12 
REMARK    4  A    between atoms: C15_19  and  N3_20 
ROOT
HETATM    1  C3  UNL     1      20.295   4.670  49.037  1.00  0.00     0.097 A 
HETATM    2  C4  UNL     1      21.747   4.961  49.647  1.00  0.00     0.018 A 
HETATM    3 BR1  UNL     1      20.899   3.786  51.023  1.00  0.00    -0.119 Br
HETATM    4  C5  UNL     1      23.110   5.259  49.921  1.00  0.00     0.056 C 
HETATM    5  N1  UNL     1      23.782   5.498  48.736  1.00  0.00    -0.390 N 
HETATM    6  C6  UNL     1      24.663   6.642  48.944  1.00  0.00     0.120 C 
HETATM    7  C7  UNL     1      26.029   6.369  48.312  1.00  0.00     0.027 C 
HETATM    8  C8  UNL     1      26.453   4.973  49.128  1.00  0.00    -0.016 C 
HETATM    9  C10 UNL     1      25.623   4.334  50.106  1.00  0.00     0.056 A 
HETATM   10  C11 UNL     1      26.602   3.323  50.329  1.00  0.00     0.021 A 
HETATM   11  C12 UNL     1      25.560   3.080  51.168  1.00  0.00     0.041 A 
HETATM   12  I1  UNL     1      26.520   1.272  51.959  1.00  0.00    -0.074 I 
HETATM   13  C13 UNL     1      24.332   2.983  52.019  1.00  0.00    -0.007 C 
HETATM   14  C14 UNL     1      23.407   3.855  51.953  1.00  0.00     0.012 C 
HETATM   15  C15 UNL     1      22.892   5.052  51.372  1.00  0.00     0.290 C 
HETATM   16  H6  UNL     1      23.431   4.697  48.131  1.00  0.00     0.159 HD
ENDROOT
BRANCH  15  17
HETATM   17  N3  UNL     1      21.908   5.899  51.956  1.00  0.00     0.092 NA
HETATM   18  H20 UNL     1      22.004   6.965  51.694  1.00  0.00     0.314 HD
HETATM   19  H21 UNL     1      21.983   5.907  52.992  1.00  0.00     0.314 HD
ENDBRANCH  15  17
BRANCH   1  20
HETATM   20  C2  UNL     1      18.933   4.450  49.200  1.00  0.00     0.005 C 
HETATM   21  C1  UNL     1      18.673   5.830  48.494  1.00  0.00     0.012 C 
ENDBRANCH   1  20
BRANCH   8  22
HETATM   22  C9  UNL     1      27.904   4.835  48.574  1.00  0.00     0.272 C 
BRANCH  22  23
HETATM   23  N2  UNL     1      28.674   5.982  48.897  1.00  0.00     0.078 N 
HETATM   24  H13 UNL     1      29.643   5.770  49.265  1.00  0.00     0.312 HD
HETATM   25  H14 UNL     1      28.893   6.519  47.990  1.00  0.00     0.312 HD
ENDBRANCH  22  23
ENDBRANCH   8  22
TORSDOF 4
ENDMDL
MODEL 9
REMARK VINA RESULT:      -5.8     18.321     20.875
REMARK  4 active torsions:
REMARK  status: ('A' for Active; 'I' for Inactive)
REMARK    1  A    between atoms: C2_2  and  C3_3 
REMARK    2  A    between atoms: C8_10  and  C9_11 
REMARK    3  A    between atoms: C9_11  and  N2_12 
REMARK    4  A    between atoms: C15_19  and  N3_20 
ROOT
HETATM    1  C3  UNL     1      45.258   3.512  55.794  1.00  0.00     0.097 A 
HETATM    2  C4  UNL     1      44.427   4.871  55.633  1.00  0.00     0.018 A 
HETATM    3 BR1  UNL     1      46.316   5.448  55.320  1.00  0.00    -0.119 Br
HETATM    4  C5  UNL     1      43.478   5.908  55.424  1.00  0.00     0.056 C 
HETATM    5  N1  UNL     1      42.267   5.361  55.039  1.00  0.00    -0.390 N 
HETATM    6  C6  UNL     1      41.209   6.077  55.745  1.00  0.00     0.120 C 
HETATM    7  C7  UNL     1      40.054   6.376  54.787  1.00  0.00     0.027 C 
HETATM    8  C8  UNL     1      40.867   7.254  53.619  1.00  0.00    -0.016 C 
HETATM    9  C10 UNL     1      42.272   7.532  53.659  1.00  0.00     0.056 A 
HETATM   10  C11 UNL     1      42.196   8.272  52.444  1.00  0.00     0.021 A 
HETATM   11  C12 UNL     1      43.484   8.321  52.877  1.00  0.00     0.041 A 
HETATM   12  I1  UNL     1      44.108   9.490  51.128  1.00  0.00    -0.074 I 
HETATM   13  C13 UNL     1      44.838   8.273  53.516  1.00  0.00    -0.007 C 
HETATM   14  C14 UNL     1      45.025   7.688  54.631  1.00  0.00     0.012 C 
HETATM   15  C15 UNL     1      44.498   6.940  55.725  1.00  0.00     0.290 C 
HETATM   16  H6  UNL     1      42.580   4.650  54.314  1.00  0.00     0.159 HD
ENDROOT
BRANCH  15  17
HETATM   17  N3  UNL     1      45.082   6.842  57.020  1.00  0.00     0.092 NA
HETATM   18  H20 UNL     1      45.700   5.943  57.180  1.00  0.00     0.314 HD
HETATM   19  H21 UNL     1      44.355   6.758  57.758  1.00  0.00     0.314 HD
ENDBRANCH  15  17
BRANCH   1  20
HETATM   20  C2  UNL     1      46.401   2.827  56.190  1.00  0.00     0.005 C 
HETATM   21  C1  UNL     1      45.949   1.636  55.270  1.00  0.00     0.012 C 
ENDBRANCH   1  20
BRANCH   8  22
HETATM   22  C9  UNL     1      39.628   7.669  52.766  1.00  0.00     0.272 C 
BRANCH  22  23
HETATM   23  N2  UNL     1      38.449   7.649  53.555  1.00  0.00     0.078 N 
HETATM   24  H13 UNL     1      37.571   7.393  53.023  1.00  0.00     0.312 HD
HETATM   25  H14 UNL     1      38.522   6.843  54.266  1.00  0.00     0.312 HD
ENDBRANCH  22  23
ENDBRANCH   8  22
TORSDOF 4
ENDMDL
