MODEL 1
REMARK VINA RESULT:      -9.8      0.000      0.000
REMARK  5 active torsions:
REMARK  status: ('A' for Active; 'I' for Inactive)
REMARK    1  A    between atoms: C3_3  and  C4_4 
REMARK    2  A    between atoms: C10_12  and  C11_13 
REMARK    3  A    between atoms: N1_15  and  C13_16 
REMARK    4  A    between atoms: C13_16  and  C14_17 
REMARK    5  A    between atoms: C14_17  and  C15_18 
ROOT
HETATM    1  C11 UNL     1      22.753   1.622  52.587  1.00  0.00    -0.004 A 
HETATM    2  C12 UNL     1      24.070   1.296  52.826  1.00  0.00     0.103 A 
HETATM    3  N1  UNL     1      24.119   0.130  53.495  1.00  0.00    -0.340 N 
HETATM    4  C20 UNL     1      22.824  -0.268  53.671  1.00  0.00     0.143 A 
HETATM    5  N2  UNL     1      22.304  -1.344  54.265  1.00  0.00    -0.223 NA
HETATM    6  C21 UNL     1      20.960  -1.506  54.301  1.00  0.00     0.234 A 
HETATM    7  N3  UNL     1      20.080  -0.619  53.758  1.00  0.00    -0.253 NA
HETATM    8  C22 UNL     1      20.585   0.465  53.159  1.00  0.00     0.134 A 
HETATM    9  C23 UNL     1      21.952   0.644  53.115  1.00  0.00     0.037 A 
ENDROOT
BRANCH   1  10
HETATM   10  C10 UNL     1      22.274   2.848  51.862  1.00  0.00     0.128 C 
HETATM   11  C9  UNL     1      22.859   4.065  52.429  1.00  0.00     0.045 A 
HETATM   12  C8  UNL     1      23.776   5.042  52.271  1.00  0.00    -0.022 A 
HETATM   13  O2  UNL     1      23.857   4.190  51.205  1.00  0.00     0.000 OA
HETATM   14  C3  UNL     1      23.937   4.706  49.894  1.00  0.00     0.028 C 
HETATM   15  C2  UNL     1      23.640   3.632  48.924  1.00  0.00     0.027 C 
HETATM   16  C1  UNL     1      23.022   2.489  48.851  1.00  0.00     0.127 A 
HETATM   17  C24 UNL     1      22.286   1.711  49.805  1.00  0.00     0.085 A 
HETATM   18  N4  UNL     1      22.655   2.742  50.466  1.00  0.00    -0.372 N 
BRANCH  14  19
HETATM   19  C4  UNL     1      25.351   5.231  49.734  1.00  0.00     0.126 C 
HETATM   20  C5  UNL     1      25.382   6.388  48.767  1.00  0.00     0.034 C 
HETATM   21  C6  UNL     1      26.847   6.376  48.322  1.00  0.00     0.029 C 
HETATM   22  C7  UNL     1      27.324   5.041  48.861  1.00  0.00     0.168 C 
HETATM   23  O1  UNL     1      26.169   4.297  49.097  1.00  0.00    -0.385 OA
ENDBRANCH  14  19
ENDBRANCH   1  10
BRANCH   3  24
HETATM   24  C13 UNL     1      25.251  -0.635  53.980  1.00  0.00     0.134 C 
BRANCH  24  25
HETATM   25  C14 UNL     1      26.192  -1.013  52.861  1.00  0.00     0.054 C 
BRANCH  25  26
HETATM   26  C15 UNL     1      27.582  -0.719  53.310  1.00  0.00    -0.082 C 
HETATM   27  C16 UNL     1      28.624  -1.518  53.103  1.00  0.00    -0.024 C 
HETATM   28  C17 UNL     1      29.830  -0.891  53.691  1.00  0.00     0.027 C 
HETATM   29  C18 UNL     1      29.467   0.576  53.772  1.00  0.00     0.008 C 
HETATM   30  C19 UNL     1      27.979   0.510  54.045  1.00  0.00     0.034 C 
ENDBRANCH  25  26
ENDBRANCH  24  25
ENDBRANCH   3  24
TORSDOF 5
ENDMDL
MODEL 2
REMARK VINA RESULT:      -8.6      2.474      4.297
REMARK  5 active torsions:
REMARK  status: ('A' for Active; 'I' for Inactive)
REMARK    1  A    between atoms: C3_3  and  C4_4 
REMARK    2  A    between atoms: C10_12  and  C11_13 
REMARK    3  A    between atoms: N1_15  and  C13_16 
REMARK    4  A    between atoms: C13_16  and  C14_17 
REMARK    5  A    between atoms: C14_17  and  C15_18 
ROOT
HETATM    1  C11 UNL     1      23.285   1.135  51.974  1.00  0.00    -0.004 A 
HETATM    2  C12 UNL     1      24.541   0.842  52.460  1.00  0.00     0.103 A 
HETATM    3  N1  UNL     1      24.424  -0.015  53.491  1.00  0.00    -0.340 N 
HETATM    4  C20 UNL     1      23.087  -0.253  53.644  1.00  0.00     0.143 A 
HETATM    5  N2  UNL     1      22.420  -1.020  54.508  1.00  0.00    -0.223 NA
HETATM    6  C21 UNL     1      21.068  -1.085  54.444  1.00  0.00     0.234 A 
HETATM    7  N3  UNL     1      20.325  -0.399  53.531  1.00  0.00    -0.253 NA
HETATM    8  C22 UNL     1      20.978   0.376  52.658  1.00  0.00     0.134 A 
HETATM    9  C23 UNL     1      22.355   0.451  52.711  1.00  0.00     0.037 A 
ENDROOT
BRANCH   1  10
HETATM   10  C10 UNL     1      22.987   2.051  50.821  1.00  0.00     0.128 C 
HETATM   11  C9  UNL     1      22.109   1.406  49.842  1.00  0.00     0.045 A 
HETATM   12  C8  UNL     1      20.856   1.329  49.346  1.00  0.00    -0.022 A 
HETATM   13  O2  UNL     1      20.872   2.258  50.348  1.00  0.00     0.000 OA
HETATM   14  C3  UNL     1      20.242   3.507  50.162  1.00  0.00     0.028 C 
HETATM   15  C2  UNL     1      20.705   4.451  51.201  1.00  0.00     0.027 C 
HETATM   16  C1  UNL     1      21.708   4.642  52.006  1.00  0.00     0.127 A 
HETATM   17  C24 UNL     1      22.926   3.922  52.241  1.00  0.00     0.085 A 
HETATM   18  N4  UNL     1      22.339   3.245  51.329  1.00  0.00    -0.372 N 
BRANCH  14  19
HETATM   19  C4  UNL     1      18.751   3.245  50.267  1.00  0.00     0.126 C 
HETATM   20  C5  UNL     1      17.986   4.544  50.315  1.00  0.00     0.034 C 
HETATM   21  C6  UNL     1      16.676   4.103  50.975  1.00  0.00     0.029 C 
HETATM   22  C7  UNL     1      17.030   2.714  51.471  1.00  0.00     0.168 C 
HETATM   23  O1  UNL     1      18.423   2.668  51.495  1.00  0.00    -0.385 OA
ENDBRANCH  14  19
ENDBRANCH   1  10
BRANCH   3  24
HETATM   24  C13 UNL     1      25.434  -0.621  54.335  1.00  0.00     0.134 C 
BRANCH  24  25
HETATM   25  C14 UNL     1      26.519   0.361  54.705  1.00  0.00     0.054 C 
BRANCH  25  26
HETATM   26  C15 UNL     1      27.797  -0.119  54.108  1.00  0.00    -0.082 C 
HETATM   27  C16 UNL     1      28.996   0.371  54.403  1.00  0.00    -0.024 C 
HETATM   28  C17 UNL     1      30.017  -0.355  53.614  1.00  0.00     0.027 C 
HETATM   29  C18 UNL     1      29.331  -1.655  53.253  1.00  0.00     0.008 C 
HETATM   30  C19 UNL     1      27.890  -1.212  53.105  1.00  0.00     0.034 C 
ENDBRANCH  25  26
ENDBRANCH  24  25
ENDBRANCH   3  24
TORSDOF 5
ENDMDL
MODEL 3
REMARK VINA RESULT:      -8.4      2.555      6.234
REMARK  5 active torsions:
REMARK  status: ('A' for Active; 'I' for Inactive)
REMARK    1  A    between atoms: C3_3  and  C4_4 
REMARK    2  A    between atoms: C10_12  and  C11_13 
REMARK    3  A    between atoms: N1_15  and  C13_16 
REMARK    4  A    between atoms: C13_16  and  C14_17 
REMARK    5  A    between atoms: C14_17  and  C15_18 
ROOT
HETATM    1  C11 UNL     1      23.587   3.422  49.879  1.00  0.00    -0.004 A 
HETATM    2  C12 UNL     1      24.321   2.556  50.660  1.00  0.00     0.103 A 
HETATM    3  N1  UNL     1      25.598   2.980  50.704  1.00  0.00    -0.340 N 
HETATM    4  C20 UNL     1      25.652   4.116  49.945  1.00  0.00     0.143 A 
HETATM    5  N2  UNL     1      26.664   4.934  49.653  1.00  0.00    -0.223 NA
HETATM    6  C21 UNL     1      26.448   6.014  48.865  1.00  0.00     0.234 A 
HETATM    7  N3  UNL     1      25.232   6.327  48.335  1.00  0.00    -0.253 NA
HETATM    8  C22 UNL     1      24.207   5.517  48.618  1.00  0.00     0.134 A 
HETATM    9  C23 UNL     1      24.412   4.413  49.419  1.00  0.00     0.037 A 
ENDROOT
BRANCH   1  10
HETATM   10  C10 UNL     1      22.118   3.299  49.585  1.00  0.00     0.128 C 
HETATM   11  C9  UNL     1      21.795   1.986  49.021  1.00  0.00     0.045 A 
HETATM   12  C8  UNL     1      21.254   0.773  49.257  1.00  0.00    -0.022 A 
HETATM   13  O2  UNL     1      21.174   1.516  50.401  1.00  0.00     0.000 OA
HETATM   14  C3  UNL     1      19.971   1.549  51.138  1.00  0.00     0.028 C 
HETATM   15  C2  UNL     1      20.007   2.680  52.089  1.00  0.00     0.027 C 
HETATM   16  C1  UNL     1      20.594   3.828  52.259  1.00  0.00     0.127 A 
HETATM   17  C24 UNL     1      21.568   4.553  51.494  1.00  0.00     0.085 A 
HETATM   18  N4  UNL     1      21.378   3.484  50.819  1.00  0.00    -0.372 N 
BRANCH  14  19
HETATM   19  C4  UNL     1      19.881   0.215  51.856  1.00  0.00     0.126 C 
HETATM   20  C5  UNL     1      18.441  -0.165  52.092  1.00  0.00     0.034 C 
HETATM   21  C6  UNL     1      18.572  -1.148  53.260  1.00  0.00     0.029 C 
HETATM   22  C7  UNL     1      20.009  -0.927  53.692  1.00  0.00     0.168 C 
HETATM   23  O1  UNL     1      20.376   0.307  53.157  1.00  0.00    -0.385 OA
ENDBRANCH  14  19
ENDBRANCH   1  10
BRANCH   3  24
HETATM   24  C13 UNL     1      26.755   2.428  51.380  1.00  0.00     0.134 C 
BRANCH  24  25
HETATM   25  C14 UNL     1      26.419   1.964  52.776  1.00  0.00     0.054 C 
BRANCH  25  26
HETATM   26  C15 UNL     1      26.897   0.560  52.922  1.00  0.00    -0.082 C 
HETATM   27  C16 UNL     1      26.342  -0.489  52.323  1.00  0.00    -0.024 C 
HETATM   28  C17 UNL     1      27.090  -1.709  52.708  1.00  0.00     0.027 C 
HETATM   29  C18 UNL     1      28.437  -1.178  53.148  1.00  0.00     0.008 C 
HETATM   30  C19 UNL     1      28.059   0.156  53.756  1.00  0.00     0.034 C 
ENDBRANCH  25  26
ENDBRANCH  24  25
ENDBRANCH   3  24
TORSDOF 5
ENDMDL
MODEL 4
REMARK VINA RESULT:      -8.1      1.760      2.376
REMARK  5 active torsions:
REMARK  status: ('A' for Active; 'I' for Inactive)
REMARK    1  A    between atoms: C3_3  and  C4_4 
REMARK    2  A    between atoms: C10_12  and  C11_13 
REMARK    3  A    between atoms: N1_15  and  C13_16 
REMARK    4  A    between atoms: C13_16  and  C14_17 
REMARK    5  A    between atoms: C14_17  and  C15_18 
ROOT
HETATM    1  C11 UNL     1      23.468   3.485  51.298  1.00  0.00    -0.004 A 
HETATM    2  C12 UNL     1      24.820   3.272  51.137  1.00  0.00     0.103 A 
HETATM    3  N1  UNL     1      25.140   2.070  51.651  1.00  0.00    -0.340 N 
HETATM    4  C20 UNL     1      23.978   1.536  52.133  1.00  0.00     0.143 A 
HETATM    5  N2  UNL     1      23.725   0.375  52.738  1.00  0.00    -0.223 NA
HETATM    6  C21 UNL     1      22.460   0.080  53.123  1.00  0.00     0.234 A 
HETATM    7  N3  UNL     1      21.401   0.915  52.927  1.00  0.00    -0.253 NA
HETATM    8  C22 UNL     1      21.638   2.084  52.322  1.00  0.00     0.134 A 
HETATM    9  C23 UNL     1      22.921   2.397  51.925  1.00  0.00     0.037 A 
ENDROOT
BRANCH   1  10
HETATM   10  C10 UNL     1      22.718   4.708  50.851  1.00  0.00     0.128 C 
HETATM   11  C9  UNL     1      23.308   5.927  51.408  1.00  0.00     0.045 A 
HETATM   12  C8  UNL     1      24.066   7.015  51.157  1.00  0.00    -0.022 A 
HETATM   13  O2  UNL     1      23.964   6.281  50.009  1.00  0.00     0.000 OA
HETATM   14  C3  UNL     1      23.676   6.922  48.786  1.00  0.00     0.028 C 
HETATM   15  C2  UNL     1      23.252   5.914  47.791  1.00  0.00     0.027 C 
HETATM   16  C1  UNL     1      22.744   4.719  47.729  1.00  0.00     0.127 A 
HETATM   17  C24 UNL     1      22.336   3.775  48.729  1.00  0.00     0.085 A 
HETATM   18  N4  UNL     1      22.757   4.776  49.403  1.00  0.00    -0.372 N 
BRANCH  14  19
HETATM   19  C4  UNL     1      24.955   7.622  48.366  1.00  0.00     0.126 C 
HETATM   20  C5  UNL     1      24.812   8.203  46.981  1.00  0.00     0.034 C 
HETATM   21  C6  UNL     1      26.276   8.321  46.547  1.00  0.00     0.029 C 
HETATM   22  C7  UNL     1      26.983   7.509  47.615  1.00  0.00     0.168 C 
HETATM   23  O1  UNL     1      25.998   6.711  48.194  1.00  0.00    -0.385 OA
ENDBRANCH  14  19
ENDBRANCH   1  10
BRANCH   3  24
HETATM   24  C13 UNL     1      26.415   1.386  51.733  1.00  0.00     0.134 C 
BRANCH  24  25
HETATM   25  C14 UNL     1      27.118   1.666  53.039  1.00  0.00     0.054 C 
BRANCH  25  26
HETATM   26  C15 UNL     1      28.059   0.541  53.306  1.00  0.00    -0.082 C 
HETATM   27  C16 UNL     1      27.828  -0.725  52.978  1.00  0.00    -0.024 C 
HETATM   28  C17 UNL     1      28.986  -1.547  53.402  1.00  0.00     0.027 C 
HETATM   29  C18 UNL     1      30.114  -0.544  53.513  1.00  0.00     0.008 C 
HETATM   30  C19 UNL     1      29.378   0.697  53.972  1.00  0.00     0.034 C 
ENDBRANCH  25  26
ENDBRANCH  24  25
ENDBRANCH   3  24
TORSDOF 5
ENDMDL
MODEL 5
REMARK VINA RESULT:      -8.1      2.401      5.834
REMARK  5 active torsions:
REMARK  status: ('A' for Active; 'I' for Inactive)
REMARK    1  A    between atoms: C3_3  and  C4_4 
REMARK    2  A    between atoms: C10_12  and  C11_13 
REMARK    3  A    between atoms: N1_15  and  C13_16 
REMARK    4  A    between atoms: C13_16  and  C14_17 
REMARK    5  A    between atoms: C14_17  and  C15_18 
ROOT
HETATM    1  C11 UNL     1      24.079   1.931  51.945  1.00  0.00    -0.004 A 
HETATM    2  C12 UNL     1      22.968   1.116  51.938  1.00  0.00     0.103 A 
HETATM    3  N1  UNL     1      23.135   0.138  52.848  1.00  0.00    -0.340 N 
HETATM    4  C20 UNL     1      24.358   0.350  53.421  1.00  0.00     0.143 A 
HETATM    5  N2  UNL     1      25.014  -0.315  54.373  1.00  0.00    -0.223 NA
HETATM    6  C21 UNL     1      26.236   0.113  54.771  1.00  0.00     0.234 A 
HETATM    7  N3  UNL     1      26.856   1.208  54.247  1.00  0.00    -0.253 NA
HETATM    8  C22 UNL     1      26.212   1.886  53.292  1.00  0.00     0.134 A 
HETATM    9  C23 UNL     1      24.967   1.461  52.876  1.00  0.00     0.037 A 
ENDROOT
BRANCH   1  10
HETATM   10  C10 UNL     1      24.279   3.140  51.076  1.00  0.00     0.128 C 
HETATM   11  C9  UNL     1      24.016   2.834  49.668  1.00  0.00     0.045 A 
HETATM   12  C8  UNL     1      23.151   2.962  48.641  1.00  0.00    -0.022 A 
HETATM   13  O2  UNL     1      22.621   3.582  49.738  1.00  0.00     0.000 OA
HETATM   14  C3  UNL     1      22.050   4.866  49.615  1.00  0.00     0.028 C 
HETATM   15  C2  UNL     1      21.895   5.467  50.956  1.00  0.00     0.027 C 
HETATM   16  C1  UNL     1      22.388   5.378  52.157  1.00  0.00     0.127 A 
HETATM   17  C24 UNL     1      23.410   4.556  52.738  1.00  0.00     0.085 A 
HETATM   18  N4  UNL     1      23.374   4.185  51.515  1.00  0.00    -0.372 N 
BRANCH  14  19
HETATM   19  C4  UNL     1      20.709   4.667  48.932  1.00  0.00     0.126 C 
HETATM   20  C5  UNL     1      19.849   5.897  49.083  1.00  0.00     0.034 C 
HETATM   21  C6  UNL     1      18.447   5.316  48.873  1.00  0.00     0.029 C 
HETATM   22  C7  UNL     1      18.714   3.825  48.949  1.00  0.00     0.168 C 
HETATM   23  O1  UNL     1      19.948   3.696  49.584  1.00  0.00    -0.385 OA
ENDBRANCH  14  19
ENDBRANCH   1  10
BRANCH   3  24
HETATM   24  C13 UNL     1      22.269  -0.962  53.224  1.00  0.00     0.134 C 
BRANCH  24  25
HETATM   25  C14 UNL     1      21.140  -0.506  54.116  1.00  0.00     0.054 C 
BRANCH  25  26
HETATM   26  C15 UNL     1      19.864  -0.667  53.362  1.00  0.00    -0.082 C 
HETATM   27  C16 UNL     1      18.884  -1.492  53.713  1.00  0.00    -0.024 C 
HETATM   28  C17 UNL     1      17.786  -1.376  52.725  1.00  0.00     0.027 C 
HETATM   29  C18 UNL     1      18.018  -0.021  52.092  1.00  0.00     0.008 C 
HETATM   30  C19 UNL     1      19.528   0.079  52.122  1.00  0.00     0.034 C 
ENDBRANCH  25  26
ENDBRANCH  24  25
ENDBRANCH   3  24
TORSDOF 5
ENDMDL
MODEL 6
REMARK VINA RESULT:      -7.9      1.756      5.038
REMARK  5 active torsions:
REMARK  status: ('A' for Active; 'I' for Inactive)
REMARK    1  A    between atoms: C3_3  and  C4_4 
REMARK    2  A    between atoms: C10_12  and  C11_13 
REMARK    3  A    between atoms: N1_15  and  C13_16 
REMARK    4  A    between atoms: C13_16  and  C14_17 
REMARK    5  A    between atoms: C14_17  and  C15_18 
ROOT
HETATM    1  C11 UNL     1      22.073   2.259  52.301  1.00  0.00    -0.004 A 
HETATM    2  C12 UNL     1      21.076   1.651  53.033  1.00  0.00     0.103 A 
HETATM    3  N1  UNL     1      21.583   0.570  53.653  1.00  0.00    -0.340 N 
HETATM    4  C20 UNL     1      22.902   0.508  53.302  1.00  0.00     0.143 A 
HETATM    5  N2  UNL     1      23.864  -0.355  53.632  1.00  0.00    -0.223 NA
HETATM    6  C21 UNL     1      25.115  -0.187  53.140  1.00  0.00     0.234 A 
HETATM    7  N3  UNL     1      25.465   0.833  52.308  1.00  0.00    -0.253 NA
HETATM    8  C22 UNL     1      24.512   1.708  51.968  1.00  0.00     0.134 A 
HETATM    9  C23 UNL     1      23.234   1.549  52.460  1.00  0.00     0.037 A 
ENDROOT
BRANCH   1  10
HETATM   10  C10 UNL     1      21.913   3.500  51.469  1.00  0.00     0.128 C 
HETATM   11  C9  UNL     1      22.656   4.625  52.043  1.00  0.00     0.045 A 
HETATM   12  C8  UNL     1      23.752   5.404  51.945  1.00  0.00    -0.022 A 
HETATM   13  O2  UNL     1      23.780   4.483  50.936  1.00  0.00     0.000 OA
HETATM   14  C3  UNL     1      24.091   4.887  49.620  1.00  0.00     0.028 C 
HETATM   15  C2  UNL     1      23.698   3.823  48.673  1.00  0.00     0.027 C 
HETATM   16  C1  UNL     1      22.887   2.810  48.584  1.00  0.00     0.127 A 
HETATM   17  C24 UNL     1      21.922   2.246  49.483  1.00  0.00     0.085 A 
HETATM   18  N4  UNL     1      22.409   3.233  50.133  1.00  0.00    -0.372 N 
BRANCH  14  19
HETATM   19  C4  UNL     1      25.588   5.133  49.598  1.00  0.00     0.126 C 
HETATM   20  C5  UNL     1      25.919   6.319  48.727  1.00  0.00     0.034 C 
HETATM   21  C6  UNL     1      27.387   6.046  48.384  1.00  0.00     0.029 C 
HETATM   22  C7  UNL     1      27.554   4.612  48.850  1.00  0.00     0.168 C 
HETATM   23  O1  UNL     1      26.262   4.097  48.949  1.00  0.00    -0.385 OA
ENDBRANCH  14  19
ENDBRANCH   1  10
BRANCH   3  24
HETATM   24  C13 UNL     1      20.955  -0.398  54.530  1.00  0.00     0.134 C 
BRANCH  24  25
HETATM   25  C14 UNL     1      20.577  -1.660  53.793  1.00  0.00     0.054 C 
BRANCH  25  26
HETATM   26  C15 UNL     1      19.122  -1.590  53.478  1.00  0.00    -0.082 C 
HETATM   27  C16 UNL     1      18.560  -0.651  52.724  1.00  0.00    -0.024 C 
HETATM   28  C17 UNL     1      17.104  -0.914  52.640  1.00  0.00     0.027 C 
HETATM   29  C18 UNL     1      16.988  -2.386  52.973  1.00  0.00     0.008 C 
HETATM   30  C19 UNL     1      18.115  -2.567  53.967  1.00  0.00     0.034 C 
ENDBRANCH  25  26
ENDBRANCH  24  25
ENDBRANCH   3  24
TORSDOF 5
ENDMDL
MODEL 7
REMARK VINA RESULT:      -7.8      6.702     11.228
REMARK  5 active torsions:
REMARK  status: ('A' for Active; 'I' for Inactive)
REMARK    1  A    between atoms: C3_3  and  C4_4 
REMARK    2  A    between atoms: C10_12  and  C11_13 
REMARK    3  A    between atoms: N1_15  and  C13_16 
REMARK    4  A    between atoms: C13_16  and  C14_17 
REMARK    5  A    between atoms: C14_17  and  C15_18 
ROOT
HETATM    1  C11 UNL     1      30.786   9.457  47.878  1.00  0.00    -0.004 A 
HETATM    2  C12 UNL     1      29.919   8.424  48.159  1.00  0.00     0.103 A 
HETATM    3  N1  UNL     1      28.776   8.933  48.654  1.00  0.00    -0.340 N 
HETATM    4  C20 UNL     1      28.937  10.289  48.679  1.00  0.00     0.143 A 
HETATM    5  N2  UNL     1      28.121  11.268  49.072  1.00  0.00    -0.223 NA
HETATM    6  C21 UNL     1      28.530  12.557  48.990  1.00  0.00     0.234 A 
HETATM    7  N3  UNL     1      29.753  12.929  48.520  1.00  0.00    -0.253 NA
HETATM    8  C22 UNL     1      30.584  11.960  48.122  1.00  0.00     0.134 A 
HETATM    9  C23 UNL     1      30.182  10.643  48.201  1.00  0.00     0.037 A 
ENDROOT
BRANCH   1  10
HETATM   10  C10 UNL     1      32.168   9.306  47.306  1.00  0.00     0.128 C 
HETATM   11  C9  UNL     1      33.099   8.764  48.298  1.00  0.00     0.045 A 
HETATM   12  C8  UNL     1      33.783   7.676  48.709  1.00  0.00    -0.022 A 
HETATM   13  O2  UNL     1      33.062   7.344  47.597  1.00  0.00     0.000 OA
HETATM   14  C3  UNL     1      33.670   6.610  46.556  1.00  0.00     0.028 C 
HETATM   15  C2  UNL     1      32.835   6.699  45.339  1.00  0.00     0.027 C 
HETATM   16  C1  UNL     1      31.931   7.461  44.797  1.00  0.00     0.127 A 
HETATM   17  C24 UNL     1      31.300   8.680  45.214  1.00  0.00     0.085 A 
HETATM   18  N4  UNL     1      32.106   8.408  46.168  1.00  0.00    -0.372 N 
BRANCH  14  19
HETATM   19  C4  UNL     1      33.782   5.182  47.056  1.00  0.00     0.126 C 
HETATM   20  C5  UNL     1      34.585   4.344  46.093  1.00  0.00     0.034 C 
HETATM   21  C6  UNL     1      34.105   2.932  46.444  1.00  0.00     0.029 C 
HETATM   22  C7  UNL     1      32.898   3.222  47.316  1.00  0.00     0.168 C 
HETATM   23  O1  UNL     1      32.543   4.541  47.039  1.00  0.00    -0.385 OA
ENDBRANCH  14  19
ENDBRANCH   1  10
BRANCH   3  24
HETATM   24  C13 UNL     1      27.564   8.275  49.101  1.00  0.00     0.134 C 
BRANCH  24  25
HETATM   25  C14 UNL     1      26.948   7.434  48.010  1.00  0.00     0.054 C 
BRANCH  25  26
HETATM   26  C15 UNL     1      26.671   6.081  48.572  1.00  0.00    -0.082 C 
HETATM   27  C16 UNL     1      27.553   5.089  48.612  1.00  0.00    -0.024 C 
HETATM   28  C17 UNL     1      26.915   3.908  49.238  1.00  0.00     0.027 C 
HETATM   29  C18 UNL     1      25.768   4.499  50.029  1.00  0.00     0.008 C 
HETATM   30  C19 UNL     1      25.369   5.674  49.161  1.00  0.00     0.034 C 
ENDBRANCH  25  26
ENDBRANCH  24  25
ENDBRANCH   3  24
TORSDOF 5
ENDMDL
MODEL 8
REMARK VINA RESULT:      -7.8      2.748      4.294
REMARK  5 active torsions:
REMARK  status: ('A' for Active; 'I' for Inactive)
REMARK    1  A    between atoms: C3_3  and  C4_4 
REMARK    2  A    between atoms: C10_12  and  C11_13 
REMARK    3  A    between atoms: N1_15  and  C13_16 
REMARK    4  A    between atoms: C13_16  and  C14_17 
REMARK    5  A    between atoms: C14_17  and  C15_18 
ROOT
HETATM    1  C11 UNL     1      20.221   3.916  50.992  1.00  0.00    -0.004 A 
HETATM    2  C12 UNL     1      20.878   2.779  51.411  1.00  0.00     0.103 A 
HETATM    3  N1  UNL     1      19.970   1.825  51.690  1.00  0.00    -0.340 N 
HETATM    4  C20 UNL     1      18.744   2.376  51.441  1.00  0.00     0.143 A 
HETATM    5  N2  UNL     1      17.513   1.874  51.549  1.00  0.00    -0.223 NA
HETATM    6  C21 UNL     1      16.444   2.643  51.232  1.00  0.00     0.234 A 
HETATM    7  N3  UNL     1      16.547   3.931  50.800  1.00  0.00    -0.253 NA
HETATM    8  C22 UNL     1      17.775   4.450  50.686  1.00  0.00     0.134 A 
HETATM    9  C23 UNL     1      18.872   3.678  51.006  1.00  0.00     0.037 A 
ENDROOT
BRANCH   1  10
HETATM   10  C10 UNL     1      20.879   5.203  50.583  1.00  0.00     0.128 C 
HETATM   11  C9  UNL     1      21.876   5.628  51.568  1.00  0.00     0.045 A 
HETATM   12  C8  UNL     1      23.191   5.726  51.855  1.00  0.00    -0.022 A 
HETATM   13  O2  UNL     1      23.055   5.162  50.617  1.00  0.00     0.000 OA
HETATM   14  C3  UNL     1      23.852   5.615  49.545  1.00  0.00     0.028 C 
HETATM   15  C2  UNL     1      23.277   5.138  48.269  1.00  0.00     0.027 C 
HETATM   16  C1  UNL     1      22.146   4.739  47.767  1.00  0.00     0.127 A 
HETATM   17  C24 UNL     1      20.831   4.581  48.318  1.00  0.00     0.085 A 
HETATM   18  N4  UNL     1      21.528   5.008  49.301  1.00  0.00    -0.372 N 
BRANCH  14  19
HETATM   19  C4  UNL     1      25.239   5.046  49.782  1.00  0.00     0.126 C 
HETATM   20  C5  UNL     1      26.239   5.679  48.847  1.00  0.00     0.034 C 
HETATM   21  C6  UNL     1      27.351   4.626  48.833  1.00  0.00     0.029 C 
HETATM   22  C7  UNL     1      26.673   3.447  49.502  1.00  0.00     0.168 C 
HETATM   23  O1  UNL     1      25.305   3.702  49.414  1.00  0.00    -0.385 OA
ENDBRANCH  14  19
ENDBRANCH   1  10
BRANCH   3  24
HETATM   24  C13 UNL     1      20.142   0.465  52.161  1.00  0.00     0.134 C 
BRANCH  24  25
HETATM   25  C14 UNL     1      21.492  -0.093  51.780  1.00  0.00     0.054 C 
BRANCH  25  26
HETATM   26  C15 UNL     1      22.246  -0.370  53.036  1.00  0.00    -0.082 C 
HETATM   27  C16 UNL     1      21.797  -1.126  54.031  1.00  0.00    -0.024 C 
HETATM   28  C17 UNL     1      22.821  -1.166  55.101  1.00  0.00     0.027 C 
HETATM   29  C18 UNL     1      24.102  -0.802  54.381  1.00  0.00     0.008 C 
HETATM   30  C19 UNL     1      23.601   0.166  53.330  1.00  0.00     0.034 C 
ENDBRANCH  25  26
ENDBRANCH  24  25
ENDBRANCH   3  24
TORSDOF 5
ENDMDL
MODEL 9
REMARK VINA RESULT:      -7.7      2.352      5.748
REMARK  5 active torsions:
REMARK  status: ('A' for Active; 'I' for Inactive)
REMARK    1  A    between atoms: C3_3  and  C4_4 
REMARK    2  A    between atoms: C10_12  and  C11_13 
REMARK    3  A    between atoms: N1_15  and  C13_16 
REMARK    4  A    between atoms: C13_16  and  C14_17 
REMARK    5  A    between atoms: C14_17  and  C15_18 
ROOT
HETATM    1  C11 UNL     1      22.516   3.886  51.619  1.00  0.00    -0.004 A 
HETATM    2  C12 UNL     1      21.953   2.659  51.897  1.00  0.00     0.103 A 
HETATM    3  N1  UNL     1      20.671   2.662  51.487  1.00  0.00    -0.340 N 
HETATM    4  C20 UNL     1      20.441   3.898  50.952  1.00  0.00     0.143 A 
HETATM    5  N2  UNL     1      19.349   4.432  50.402  1.00  0.00    -0.223 NA
HETATM    6  C21 UNL     1      19.386   5.704  49.936  1.00  0.00     0.234 A 
HETATM    7  N3  UNL     1      20.494   6.494  49.995  1.00  0.00    -0.253 NA
HETATM    8  C22 UNL     1      21.597   5.974  50.543  1.00  0.00     0.134 A 
HETATM    9  C23 UNL     1      21.575   4.680  51.022  1.00  0.00     0.037 A 
ENDROOT
BRANCH   1  10
HETATM   10  C10 UNL     1      23.934   4.283  51.919  1.00  0.00     0.128 C 
HETATM   11  C9  UNL     1      24.416   3.650  53.149  1.00  0.00     0.045 A 
HETATM   12  C8  UNL     1      25.193   2.680  53.675  1.00  0.00    -0.022 A 
HETATM   13  O2  UNL     1      25.280   2.618  52.313  1.00  0.00     0.000 OA
HETATM   14  C3  UNL     1      26.540   2.481  51.692  1.00  0.00     0.028 C 
HETATM   15  C2  UNL     1      26.419   2.809  50.256  1.00  0.00     0.027 C 
HETATM   16  C1  UNL     1      25.660   3.483  49.443  1.00  0.00     0.127 A 
HETATM   17  C24 UNL     1      24.484   4.281  49.635  1.00  0.00     0.085 A 
HETATM   18  N4  UNL     1      24.777   3.875  50.811  1.00  0.00    -0.372 N 
BRANCH  14  19
HETATM   19  C4  UNL     1      26.958   1.038  51.904  1.00  0.00     0.126 C 
HETATM   20  C5  UNL     1      25.763   0.182  52.243  1.00  0.00     0.034 C 
HETATM   21  C6  UNL     1      26.427  -1.003  52.951  1.00  0.00     0.029 C 
HETATM   22  C7  UNL     1      27.835  -0.484  53.172  1.00  0.00     0.168 C 
HETATM   23  O1  UNL     1      27.749   0.902  53.045  1.00  0.00    -0.385 OA
ENDBRANCH  14  19
ENDBRANCH   1  10
BRANCH   3  24
HETATM   24  C13 UNL     1      19.657   1.629  51.550  1.00  0.00     0.134 C 
BRANCH  24  25
HETATM   25  C14 UNL     1      20.249   0.250  51.386  1.00  0.00     0.054 C 
BRANCH  25  26
HETATM   26  C15 UNL     1      20.897  -0.128  52.674  1.00  0.00    -0.082 C 
HETATM   27  C16 UNL     1      20.338   0.022  53.870  1.00  0.00    -0.024 C 
HETATM   28  C17 UNL     1      21.281  -0.463  54.903  1.00  0.00     0.027 C 
HETATM   29  C18 UNL     1      22.201  -1.392  54.139  1.00  0.00     0.008 C 
HETATM   30  C19 UNL     1      22.255  -0.723  52.782  1.00  0.00     0.034 C 
ENDBRANCH  25  26
ENDBRANCH  24  25
ENDBRANCH   3  24
TORSDOF 5
ENDMDL
