MODEL 1
REMARK VINA RESULT:      -7.5      0.000      0.000
REMARK  7 active torsions:
REMARK  status: ('A' for Active; 'I' for Inactive)
REMARK    1  A    between atoms: C4_4  and  S1_5 
REMARK    2  A    between atoms: S1_5  and  N1_6 
REMARK    3  A    between atoms: C6_10  and  C7_11 
REMARK    4  A    between atoms: N2_19  and  C15_20 
REMARK    5  A    between atoms: C15_20  and  C16_21 
REMARK    6  A    between atoms: C16_21  and  C17_22 
REMARK    7  A    between atoms: C17_22  and  O4_24 
ROOT
HETATM    1  C1  UNL     1      21.917  -2.500  53.309  1.00  0.00     0.040 C 
HETATM    2  C2  UNL     1      22.132  -1.127  53.947  1.00  0.00     0.061 C 
HETATM    3  C3  UNL     1      23.527  -0.920  54.329  1.00  0.00     0.026 C 
HETATM    4  C4  UNL     1      24.192  -0.007  53.679  1.00  0.00     0.079 C 
HETATM    5  C5  UNL     1      23.256   0.570  52.685  1.00  0.00    -0.028 C 
HETATM    6  C6  UNL     1      23.588   1.441  51.754  1.00  0.00     0.018 C 
HETATM    7  C18 UNL     1      21.902  -0.026  52.953  1.00  0.00     0.074 C 
HETATM    8  C19 UNL     1      21.029   0.922  53.714  1.00  0.00     0.205 C 
HETATM    9  O5  UNL     1      20.896   0.448  54.999  1.00  0.00    -0.304 OA
HETATM   10  N3  UNL     1      21.191  -0.872  54.992  1.00  0.00    -0.192 NA
HETATM   11  H27 UNL     1      20.296  -1.390  54.864  1.00  0.00     0.155 HD
ENDROOT
BRANCH   4  12
HETATM   12  S1  UNL     1      25.880   0.474  53.905  1.00  0.00     0.239 S 
HETATM   13  O1  UNL     1      26.486  -0.191  55.083  1.00  0.00    -0.206 OA
HETATM   14  O2  UNL     1      25.984   1.948  54.114  1.00  0.00    -0.206 OA
BRANCH  12  15
HETATM   15  N1  UNL     1      26.778   0.013  52.521  1.00  0.00    -0.225 NA
HETATM   16  H5  UNL     1      27.495  -0.695  52.787  1.00  0.00     0.136 HD
HETATM   17  H6  UNL     1      26.198  -0.314  51.718  1.00  0.00     0.136 HD
ENDBRANCH  12  15
ENDBRANCH   4  12
BRANCH   6  18
HETATM   18  C7  UNL     1      22.919   2.155  50.680  1.00  0.00     0.073 A 
HETATM   19  C8  UNL     1      22.055   1.437  49.713  1.00  0.00     0.048 C 
HETATM   20  C9  UNL     1      22.149   3.347  51.195  1.00  0.00    -0.026 A 
HETATM   21  C10 UNL     1      22.855   4.296  50.601  1.00  0.00     0.013 A 
HETATM   22  C14 UNL     1      21.053   3.993  51.987  1.00  0.00     0.039 C 
HETATM   23  C11 UNL     1      22.568   5.763  50.731  1.00  0.00     0.057 C 
HETATM   24  N2  UNL     1      23.660   3.229  50.054  1.00  0.00    -0.367 N 
HETATM   25  C12 UNL     1      21.090   5.991  50.485  1.00  0.00     0.006 C 
HETATM   26  C13 UNL     1      20.266   4.805  50.950  1.00  0.00     0.005 C 
BRANCH  24  27
HETATM   27  C15 UNL     1      24.801   3.266  49.196  1.00  0.00     0.134 C 
BRANCH  27  28
HETATM   28  C16 UNL     1      25.917   4.066  49.775  1.00  0.00     0.130 C 
BRANCH  28  29
HETATM   29  C17 UNL     1      26.715   3.302  50.761  1.00  0.00     0.140 C 
HETATM   30  O3  UNL     1      26.847   2.064  50.612  1.00  0.00    -0.650 OA
BRANCH  29  31
HETATM   31  O4  UNL     1      27.491   2.928  51.823  1.00  0.00    -0.776 OA
HETATM   32  H23 UNL     1      28.141   3.491  52.343  1.00  0.00     0.167 HD
ENDBRANCH  29  31
ENDBRANCH  28  29
ENDBRANCH  27  28
ENDBRANCH  24  27
ENDBRANCH   6  18
TORSDOF 7
ENDMDL
MODEL 2
REMARK VINA RESULT:      -7.3      2.140      4.810
REMARK  7 active torsions:
REMARK  status: ('A' for Active; 'I' for Inactive)
REMARK    1  A    between atoms: C4_4  and  S1_5 
REMARK    2  A    between atoms: S1_5  and  N1_6 
REMARK    3  A    between atoms: C6_10  and  C7_11 
REMARK    4  A    between atoms: N2_19  and  C15_20 
REMARK    5  A    between atoms: C15_20  and  C16_21 
REMARK    6  A    between atoms: C16_21  and  C17_22 
REMARK    7  A    between atoms: C17_22  and  O4_24 
ROOT
HETATM    1  C1  UNL     1      26.456   0.244  55.266  1.00  0.00     0.040 C 
HETATM    2  C2  UNL     1      25.955   0.026  53.838  1.00  0.00     0.061 C 
HETATM    3  C3  UNL     1      24.664  -0.658  53.815  1.00  0.00     0.026 C 
HETATM    4  C4  UNL     1      23.639   0.021  53.384  1.00  0.00     0.079 C 
HETATM    5  C5  UNL     1      24.144   1.369  53.032  1.00  0.00    -0.028 C 
HETATM    6  C6  UNL     1      23.388   2.387  52.670  1.00  0.00     0.018 C 
HETATM    7  C18 UNL     1      25.640   1.332  53.169  1.00  0.00     0.074 C 
HETATM    8  C19 UNL     1      26.308   1.186  51.837  1.00  0.00     0.205 C 
HETATM    9  O5  UNL     1      26.823  -0.087  51.753  1.00  0.00    -0.304 OA
HETATM   10  N3  UNL     1      26.953  -0.573  53.009  1.00  0.00    -0.192 NA
HETATM   11  H27 UNL     1      27.923  -0.358  53.326  1.00  0.00     0.155 HD
ENDROOT
BRANCH   4  12
HETATM   12  S1  UNL     1      21.961  -0.521  53.238  1.00  0.00     0.239 S 
HETATM   13  O1  UNL     1      21.821  -1.962  53.559  1.00  0.00    -0.206 OA
HETATM   14  O2  UNL     1      21.460  -0.317  51.847  1.00  0.00    -0.206 OA
BRANCH  12  15
HETATM   15  N1  UNL     1      20.995   0.360  54.344  1.00  0.00    -0.225 NA
HETATM   16  H5  UNL     1      20.815  -0.218  55.192  1.00  0.00     0.136 HD
HETATM   17  H6  UNL     1      21.372   1.300  54.594  1.00  0.00     0.136 HD
ENDBRANCH  12  15
ENDBRANCH   4  12
BRANCH   6  18
HETATM   18  C7  UNL     1      23.586   3.773  52.283  1.00  0.00     0.073 A 
HETATM   19  C8  UNL     1      24.164   4.753  53.235  1.00  0.00     0.048 C 
HETATM   20  C9  UNL     1      24.343   3.888  50.982  1.00  0.00    -0.026 A 
HETATM   21  C10 UNL     1      23.380   4.432  50.254  1.00  0.00     0.013 A 
HETATM   22  C14 UNL     1      25.557   3.722  50.120  1.00  0.00     0.039 C 
HETATM   23  C11 UNL     1      23.527   4.800  48.807  1.00  0.00     0.057 C 
HETATM   24  N2  UNL     1      22.566   4.365  51.446  1.00  0.00    -0.367 N 
HETATM   25  C12 UNL     1      24.809   5.590  48.636  1.00  0.00     0.006 C 
HETATM   26  C13 UNL     1      25.867   5.142  49.628  1.00  0.00     0.005 C 
BRANCH  24  27
HETATM   27  C15 UNL     1      21.211   4.756  51.673  1.00  0.00     0.134 C 
BRANCH  27  28
HETATM   28  C16 UNL     1      20.246   3.922  50.903  1.00  0.00     0.130 C 
BRANCH  28  29
HETATM   29  C17 UNL     1      19.750   2.761  51.678  1.00  0.00     0.140 C 
HETATM   30  O3  UNL     1      19.942   2.727  52.917  1.00  0.00    -0.650 OA
BRANCH  29  31
HETATM   31  O4  UNL     1      19.178   1.580  52.062  1.00  0.00    -0.776 OA
HETATM   32  H23 UNL     1      18.522   1.015  51.551  1.00  0.00     0.167 HD
ENDBRANCH  29  31
ENDBRANCH  28  29
ENDBRANCH  27  28
ENDBRANCH  24  27
ENDBRANCH   6  18
TORSDOF 7
ENDMDL
MODEL 3
REMARK VINA RESULT:      -7.1      2.035      3.562
REMARK  7 active torsions:
REMARK  status: ('A' for Active; 'I' for Inactive)
REMARK    1  A    between atoms: C4_4  and  S1_5 
REMARK    2  A    between atoms: S1_5  and  N1_6 
REMARK    3  A    between atoms: C6_10  and  C7_11 
REMARK    4  A    between atoms: N2_19  and  C15_20 
REMARK    5  A    between atoms: C15_20  and  C16_21 
REMARK    6  A    between atoms: C16_21  and  C17_22 
REMARK    7  A    between atoms: C17_22  and  O4_24 
ROOT
HETATM    1  C1  UNL     1      27.143   0.897  54.967  1.00  0.00     0.040 C 
HETATM    2  C2  UNL     1      26.493  -0.044  53.952  1.00  0.00     0.061 C 
HETATM    3  C3  UNL     1      25.294  -0.679  54.492  1.00  0.00     0.026 C 
HETATM    4  C4  UNL     1      24.153  -0.352  53.951  1.00  0.00     0.079 C 
HETATM    5  C5  UNL     1      24.458   0.633  52.887  1.00  0.00    -0.028 C 
HETATM    6  C6  UNL     1      23.555   1.293  52.190  1.00  0.00     0.018 C 
HETATM    7  C18 UNL     1      25.954   0.718  52.776  1.00  0.00     0.074 C 
HETATM    8  C19 UNL     1      26.461  -0.078  51.613  1.00  0.00     0.205 C 
HETATM    9  O5  UNL     1      27.099  -1.194  52.102  1.00  0.00    -0.304 OA
HETATM   10  N3  UNL     1      27.439  -0.955  53.389  1.00  0.00    -0.192 NA
HETATM   11  H27 UNL     1      28.411  -0.578  53.389  1.00  0.00     0.155 HD
ENDROOT
BRANCH   4  12
HETATM   12  S1  UNL     1      22.540  -0.943  54.379  1.00  0.00     0.239 S 
HETATM   13  O1  UNL     1      21.911  -1.678  53.257  1.00  0.00    -0.206 OA
HETATM   14  O2  UNL     1      21.641   0.194  54.737  1.00  0.00    -0.206 OA
BRANCH  12  15
HETATM   15  N1  UNL     1      22.678  -2.020  55.703  1.00  0.00    -0.225 NA
HETATM   16  H5  UNL     1      21.948  -2.761  55.631  1.00  0.00     0.136 HD
HETATM   17  H6  UNL     1      23.628  -2.431  55.830  1.00  0.00     0.136 HD
ENDBRANCH  12  15
ENDBRANCH   4  12
BRANCH   6  18
HETATM   18  C7  UNL     1      23.548   2.284  51.128  1.00  0.00     0.073 A 
HETATM   19  C8  UNL     1      23.122   1.921  49.754  1.00  0.00     0.048 C 
HETATM   20  C9  UNL     1      22.801   3.532  51.531  1.00  0.00    -0.026 A 
HETATM   21  C10 UNL     1      23.822   4.374  51.514  1.00  0.00     0.013 A 
HETATM   22  C14 UNL     1      21.566   4.287  51.920  1.00  0.00     0.039 C 
HETATM   23  C11 UNL     1      23.713   5.834  51.841  1.00  0.00     0.057 C 
HETATM   24  N2  UNL     1      24.632   3.242  51.126  1.00  0.00    -0.367 N 
HETATM   25  C12 UNL     1      22.551   6.419  51.063  1.00  0.00     0.006 C 
HETATM   26  C13 UNL     1      21.452   5.392  50.862  1.00  0.00     0.005 C 
BRANCH  24  27
HETATM   27  C15 UNL     1      26.030   3.145  50.852  1.00  0.00     0.134 C 
BRANCH  27  28
HETATM   28  C16 UNL     1      26.342   3.388  49.415  1.00  0.00     0.130 C 
BRANCH  28  29
HETATM   29  C17 UNL     1      27.061   4.663  49.194  1.00  0.00     0.140 C 
HETATM   30  O3  UNL     1      28.155   4.648  48.579  1.00  0.00    -0.650 OA
BRANCH  29  31
HETATM   31  O4  UNL     1      27.438   5.977  49.171  1.00  0.00    -0.776 OA
HETATM   32  H23 UNL     1      26.954   6.767  49.561  1.00  0.00     0.167 HD
ENDBRANCH  29  31
ENDBRANCH  28  29
ENDBRANCH  27  28
ENDBRANCH  24  27
ENDBRANCH   6  18
TORSDOF 7
ENDMDL
MODEL 4
REMARK VINA RESULT:      -7.0      3.009      6.327
REMARK  7 active torsions:
REMARK  status: ('A' for Active; 'I' for Inactive)
REMARK    1  A    between atoms: C4_4  and  S1_5 
REMARK    2  A    between atoms: S1_5  and  N1_6 
REMARK    3  A    between atoms: C6_10  and  C7_11 
REMARK    4  A    between atoms: N2_19  and  C15_20 
REMARK    5  A    between atoms: C15_20  and  C16_21 
REMARK    6  A    between atoms: C16_21  and  C17_22 
REMARK    7  A    between atoms: C17_22  and  O4_24 
ROOT
HETATM    1  C1  UNL     1      26.366   5.652  48.964  1.00  0.00     0.040 C 
HETATM    2  C2  UNL     1      24.916   5.772  49.433  1.00  0.00     0.061 C 
HETATM    3  C3  UNL     1      23.986   5.173  48.479  1.00  0.00     0.026 C 
HETATM    4  C4  UNL     1      23.345   4.105  48.863  1.00  0.00     0.079 C 
HETATM    5  C5  UNL     1      23.799   3.815  50.244  1.00  0.00    -0.028 C 
HETATM    6  C6  UNL     1      23.470   2.743  50.936  1.00  0.00     0.018 C 
HETATM    7  C18 UNL     1      24.678   4.957  50.671  1.00  0.00     0.074 C 
HETATM    8  C19 UNL     1      23.941   5.914  51.555  1.00  0.00     0.205 C 
HETATM    9  O5  UNL     1      23.708   7.067  50.840  1.00  0.00    -0.304 OA
HETATM   10  N3  UNL     1      24.588   7.110  49.814  1.00  0.00    -0.192 NA
HETATM   11  H27 UNL     1      25.418   7.651  50.139  1.00  0.00     0.155 HD
ENDROOT
BRANCH   4  12
HETATM   12  S1  UNL     1      22.164   3.158  47.946  1.00  0.00     0.239 S 
HETATM   13  O1  UNL     1      22.639   1.775  47.706  1.00  0.00    -0.206 OA
HETATM   14  O2  UNL     1      21.906   3.785  46.616  1.00  0.00    -0.206 OA
BRANCH  12  15
HETATM   15  N1  UNL     1      20.709   3.067  48.843  1.00  0.00    -0.225 NA
HETATM   16  H5  UNL     1      20.077   2.357  48.417  1.00  0.00     0.136 HD
HETATM   17  H6  UNL     1      20.840   2.898  49.864  1.00  0.00     0.136 HD
ENDBRANCH  12  15
ENDBRANCH   4  12
BRANCH   6  18
HETATM   18  C7  UNL     1      23.748   2.203  52.255  1.00  0.00     0.073 A 
HETATM   19  C8  UNL     1      24.034   3.103  53.400  1.00  0.00     0.048 C 
HETATM   20  C9  UNL     1      22.690   1.219  52.692  1.00  0.00    -0.026 A 
HETATM   21  C10 UNL     1      23.447   0.134  52.728  1.00  0.00     0.013 A 
HETATM   22  C14 UNL     1      21.296   0.840  53.091  1.00  0.00     0.039 C 
HETATM   23  C11 UNL     1      22.948  -1.228  53.110  1.00  0.00     0.057 C 
HETATM   24  N2  UNL     1      24.534   0.989  52.308  1.00  0.00    -0.367 N 
HETATM   25  C12 UNL     1      22.156  -1.110  54.397  1.00  0.00     0.006 C 
HETATM   26  C13 UNL     1      21.457   0.233  54.491  1.00  0.00     0.005 C 
BRANCH  24  27
HETATM   27  C15 UNL     1      25.905   0.693  52.039  1.00  0.00     0.134 C 
BRANCH  27  28
HETATM   28  C16 UNL     1      26.758   0.811  53.255  1.00  0.00     0.130 C 
BRANCH  28  29
HETATM   29  C17 UNL     1      27.742   1.912  53.157  1.00  0.00     0.140 C 
HETATM   30  O3  UNL     1      28.140   2.471  54.207  1.00  0.00    -0.650 OA
BRANCH  29  31
HETATM   31  O4  UNL     1      28.621   2.859  52.707  1.00  0.00    -0.776 OA
HETATM   32  H23 UNL     1      28.995   2.967  51.780  1.00  0.00     0.167 HD
ENDBRANCH  29  31
ENDBRANCH  28  29
ENDBRANCH  27  28
ENDBRANCH  24  27
ENDBRANCH   6  18
TORSDOF 7
ENDMDL
MODEL 5
REMARK VINA RESULT:      -6.7      1.792      2.694
REMARK  7 active torsions:
REMARK  status: ('A' for Active; 'I' for Inactive)
REMARK    1  A    between atoms: C4_4  and  S1_5 
REMARK    2  A    between atoms: S1_5  and  N1_6 
REMARK    3  A    between atoms: C6_10  and  C7_11 
REMARK    4  A    between atoms: N2_19  and  C15_20 
REMARK    5  A    between atoms: C15_20  and  C16_21 
REMARK    6  A    between atoms: C16_21  and  C17_22 
REMARK    7  A    between atoms: C17_22  and  O4_24 
ROOT
HETATM    1  C1  UNL     1      22.039  -2.212  52.907  1.00  0.00     0.040 C 
HETATM    2  C2  UNL     1      22.280  -0.930  53.704  1.00  0.00     0.061 C 
HETATM    3  C3  UNL     1      23.647  -0.860  54.217  1.00  0.00     0.026 C 
HETATM    4  C4  UNL     1      24.420   0.066  53.724  1.00  0.00     0.079 C 
HETATM    5  C5  UNL     1      23.610   0.804  52.726  1.00  0.00    -0.028 C 
HETATM    6  C6  UNL     1      24.074   1.741  51.923  1.00  0.00     0.018 C 
HETATM    7  C18 UNL     1      22.205   0.280  52.819  1.00  0.00     0.074 C 
HETATM    8  C19 UNL     1      21.328   1.204  53.605  1.00  0.00     0.205 C 
HETATM    9  O5  UNL     1      21.056   0.612  54.817  1.00  0.00    -0.304 OA
HETATM   10  N3  UNL     1      21.270  -0.718  54.692  1.00  0.00    -0.192 NA
HETATM   11  H27 UNL     1      20.359  -1.157  54.438  1.00  0.00     0.155 HD
ENDROOT
BRANCH   4  12
HETATM   12  S1  UNL     1      26.109   0.403  54.134  1.00  0.00     0.239 S 
HETATM   13  O1  UNL     1      26.570  -0.423  55.275  1.00  0.00    -0.206 OA
HETATM   14  O2  UNL     1      26.282   1.836  54.514  1.00  0.00    -0.206 OA
BRANCH  12  15
HETATM   15  N1  UNL     1      27.092   0.031  52.783  1.00  0.00    -0.225 NA
HETATM   16  H5  UNL     1      27.119   0.846  52.133  1.00  0.00     0.136 HD
HETATM   17  H6  UNL     1      28.053  -0.297  53.024  1.00  0.00     0.136 HD
ENDBRANCH  12  15
ENDBRANCH   4  12
BRANCH   6  18
HETATM   18  C7  UNL     1      23.546   2.606  50.882  1.00  0.00     0.073 A 
HETATM   19  C8  UNL     1      24.427   3.129  49.809  1.00  0.00     0.048 C 
HETATM   20  C9  UNL     1      22.321   2.013  50.230  1.00  0.00    -0.026 A 
HETATM   21  C10 UNL     1      21.443   2.922  50.620  1.00  0.00     0.013 A 
HETATM   22  C14 UNL     1      21.607   0.983  49.406  1.00  0.00     0.039 C 
HETATM   23  C11 UNL     1      19.983   2.886  50.273  1.00  0.00     0.057 C 
HETATM   24  N2  UNL     1      22.548   3.573  51.285  1.00  0.00    -0.367 N 
HETATM   25  C12 UNL     1      19.846   2.644  48.783  1.00  0.00     0.006 C 
HETATM   26  C13 UNL     1      20.982   1.786  48.258  1.00  0.00     0.005 C 
BRANCH  24  27
HETATM   27  C15 UNL     1      22.594   4.764  52.073  1.00  0.00     0.134 C 
BRANCH  27  28
HETATM   28  C16 UNL     1      22.551   5.996  51.236  1.00  0.00     0.130 C 
BRANCH  28  29
HETATM   29  C17 UNL     1      23.852   6.700  51.189  1.00  0.00     0.140 C 
HETATM   30  O3  UNL     1      23.867   7.951  51.096  1.00  0.00    -0.650 OA
BRANCH  29  31
HETATM   31  O4  UNL     1      25.185   7.009  51.172  1.00  0.00    -0.776 OA
HETATM   32  H23 UNL     1      25.645   7.732  50.648  1.00  0.00     0.167 HD
ENDBRANCH  29  31
ENDBRANCH  28  29
ENDBRANCH  27  28
ENDBRANCH  24  27
ENDBRANCH   6  18
TORSDOF 7
ENDMDL
MODEL 6
REMARK VINA RESULT:      -6.6      3.300      5.422
REMARK  7 active torsions:
REMARK  status: ('A' for Active; 'I' for Inactive)
REMARK    1  A    between atoms: C4_4  and  S1_5 
REMARK    2  A    between atoms: S1_5  and  N1_6 
REMARK    3  A    between atoms: C6_10  and  C7_11 
REMARK    4  A    between atoms: N2_19  and  C15_20 
REMARK    5  A    between atoms: C15_20  and  C16_21 
REMARK    6  A    between atoms: C16_21  and  C17_22 
REMARK    7  A    between atoms: C17_22  and  O4_24 
ROOT
HETATM    1  C1  UNL     1      18.951   3.479  51.844  1.00  0.00     0.040 C 
HETATM    2  C2  UNL     1      19.649   2.281  51.198  1.00  0.00     0.061 C 
HETATM    3  C3  UNL     1      19.978   2.536  49.798  1.00  0.00     0.026 C 
HETATM    4  C4  UNL     1      21.242   2.619  49.489  1.00  0.00     0.079 C 
HETATM    5  C5  UNL     1      21.997   2.417  50.748  1.00  0.00    -0.028 C 
HETATM    6  C6  UNL     1      23.303   2.548  50.873  1.00  0.00     0.018 C 
HETATM    7  C18 UNL     1      21.000   2.047  51.810  1.00  0.00     0.074 C 
HETATM    8  C19 UNL     1      20.992   0.571  52.061  1.00  0.00     0.205 C 
HETATM    9  O5  UNL     1      19.827   0.053  51.545  1.00  0.00    -0.304 OA
HETATM   10  N3  UNL     1      18.936   1.064  51.423  1.00  0.00    -0.192 NA
HETATM   11  H27 UNL     1      18.368   1.085  52.297  1.00  0.00     0.155 HD
ENDROOT
BRANCH   4  12
HETATM   12  S1  UNL     1      21.953   2.917  47.896  1.00  0.00     0.239 S 
HETATM   13  O1  UNL     1      20.912   3.137  46.864  1.00  0.00    -0.206 OA
HETATM   14  O2  UNL     1      22.781   1.753  47.463  1.00  0.00    -0.206 OA
BRANCH  12  15
HETATM   15  N1  UNL     1      22.921   4.327  47.977  1.00  0.00    -0.225 NA
HETATM   16  H5  UNL     1      23.536   4.284  48.818  1.00  0.00     0.136 HD
HETATM   17  H6  UNL     1      23.470   4.525  47.112  1.00  0.00     0.136 HD
ENDBRANCH  12  15
ENDBRANCH   4  12
BRANCH   6  18
HETATM   18  C7  UNL     1      24.287   2.423  51.935  1.00  0.00     0.073 A 
HETATM   19  C8  UNL     1      24.188   3.248  53.163  1.00  0.00     0.048 C 
HETATM   20  C9  UNL     1      24.477   0.986  52.355  1.00  0.00    -0.026 A 
HETATM   21  C10 UNL     1      25.735   0.844  51.968  1.00  0.00     0.013 A 
HETATM   22  C14 UNL     1      24.014  -0.307  52.955  1.00  0.00     0.039 C 
HETATM   23  C11 UNL     1      26.524  -0.423  52.123  1.00  0.00     0.057 C 
HETATM   24  N2  UNL     1      25.660   2.218  51.527  1.00  0.00    -0.367 N 
HETATM   25  C12 UNL     1      26.365  -0.921  53.545  1.00  0.00     0.006 C 
HETATM   26  C13 UNL     1      25.000  -0.563  54.103  1.00  0.00     0.005 C 
BRANCH  24  27
HETATM   27  C15 UNL     1      26.634   3.051  50.897  1.00  0.00     0.134 C 
BRANCH  27  28
HETATM   28  C16 UNL     1      26.181   3.540  49.564  1.00  0.00     0.130 C 
BRANCH  28  29
HETATM   29  C17 UNL     1      26.362   5.001  49.401  1.00  0.00     0.140 C 
HETATM   30  O3  UNL     1      25.527   5.648  48.725  1.00  0.00    -0.650 OA
BRANCH  29  31
HETATM   31  O4  UNL     1      26.826   6.287  49.457  1.00  0.00    -0.776 OA
HETATM   32  H23 UNL     1      26.499   7.085  48.942  1.00  0.00     0.167 HD
ENDBRANCH  29  31
ENDBRANCH  28  29
ENDBRANCH  27  28
ENDBRANCH  24  27
ENDBRANCH   6  18
TORSDOF 7
ENDMDL
MODEL 7
REMARK VINA RESULT:      -6.5      2.622      4.302
REMARK  7 active torsions:
REMARK  status: ('A' for Active; 'I' for Inactive)
REMARK    1  A    between atoms: C4_4  and  S1_5 
REMARK    2  A    between atoms: S1_5  and  N1_6 
REMARK    3  A    between atoms: C6_10  and  C7_11 
REMARK    4  A    between atoms: N2_19  and  C15_20 
REMARK    5  A    between atoms: C15_20  and  C16_21 
REMARK    6  A    between atoms: C16_21  and  C17_22 
REMARK    7  A    between atoms: C17_22  and  O4_24 
ROOT
HETATM    1  C1  UNL     1      26.934   0.653  55.107  1.00  0.00     0.040 C 
HETATM    2  C2  UNL     1      26.285  -0.187  54.007  1.00  0.00     0.061 C 
HETATM    3  C3  UNL     1      24.997  -0.733  54.431  1.00  0.00     0.026 C 
HETATM    4  C4  UNL     1      23.934  -0.286  53.825  1.00  0.00     0.079 C 
HETATM    5  C5  UNL     1      24.402   0.707  52.830  1.00  0.00    -0.028 C 
HETATM    6  C6  UNL     1      23.614   1.471  52.099  1.00  0.00     0.018 C 
HETATM    7  C18 UNL     1      25.904   0.662  52.830  1.00  0.00     0.074 C 
HETATM    8  C19 UNL     1      26.427  -0.131  51.673  1.00  0.00     0.205 C 
HETATM    9  O5  UNL     1      26.928  -1.318  52.157  1.00  0.00    -0.304 OA
HETATM   10  N3  UNL     1      27.188  -1.158  53.475  1.00  0.00    -0.192 NA
HETATM   11  H27 UNL     1      28.186  -0.869  53.561  1.00  0.00     0.155 HD
ENDROOT
BRANCH   4  12
HETATM   12  S1  UNL     1      22.248  -0.745  54.109  1.00  0.00     0.239 S 
HETATM   13  O1  UNL     1      21.615  -1.290  52.885  1.00  0.00    -0.206 OA
HETATM   14  O2  UNL     1      21.447   0.436  54.546  1.00  0.00    -0.206 OA
BRANCH  12  15
HETATM   15  N1  UNL     1      22.201  -1.963  55.312  1.00  0.00    -0.225 NA
HETATM   16  H5  UNL     1      21.706  -1.605  56.156  1.00  0.00     0.136 HD
HETATM   17  H6  UNL     1      21.802  -2.872  54.992  1.00  0.00     0.136 HD
ENDBRANCH  12  15
ENDBRANCH   4  12
BRANCH   6  18
HETATM   18  C7  UNL     1      23.773   2.497  51.083  1.00  0.00     0.073 A 
HETATM   19  C8  UNL     1      25.101   2.771  50.480  1.00  0.00     0.048 C 
HETATM   20  C9  UNL     1      22.778   2.332  49.959  1.00  0.00    -0.026 A 
HETATM   21  C10 UNL     1      22.095   3.448  50.150  1.00  0.00     0.013 A 
HETATM   22  C14 UNL     1      22.186   1.602  48.792  1.00  0.00     0.039 C 
HETATM   23  C11 UNL     1      20.924   3.871  49.311  1.00  0.00     0.057 C 
HETATM   24  N2  UNL     1      22.994   3.704  51.252  1.00  0.00    -0.367 N 
HETATM   25  C12 UNL     1      21.306   3.744  47.849  1.00  0.00     0.006 C 
HETATM   26  C13 UNL     1      22.283   2.604  47.634  1.00  0.00     0.005 C 
BRANCH  24  27
HETATM   27  C15 UNL     1      23.051   4.792  52.176  1.00  0.00     0.134 C 
BRANCH  27  28
HETATM   28  C16 UNL     1      23.928   5.896  51.694  1.00  0.00     0.130 C 
BRANCH  28  29
HETATM   29  C17 UNL     1      23.265   6.750  50.681  1.00  0.00     0.140 C 
HETATM   30  O3  UNL     1      23.363   7.996  50.774  1.00  0.00    -0.650 OA
BRANCH  29  31
HETATM   31  O4  UNL     1      22.552   7.212  49.609  1.00  0.00    -0.776 OA
HETATM   32  H23 UNL     1      21.599   7.532  49.592  1.00  0.00     0.167 HD
ENDBRANCH  29  31
ENDBRANCH  28  29
ENDBRANCH  27  28
ENDBRANCH  24  27
ENDBRANCH   6  18
TORSDOF 7
ENDMDL
MODEL 8
REMARK VINA RESULT:      -6.3      8.869     12.460
REMARK  7 active torsions:
REMARK  status: ('A' for Active; 'I' for Inactive)
REMARK    1  A    between atoms: C4_4  and  S1_5 
REMARK    2  A    between atoms: S1_5  and  N1_6 
REMARK    3  A    between atoms: C6_10  and  C7_11 
REMARK    4  A    between atoms: N2_19  and  C15_20 
REMARK    5  A    between atoms: C15_20  and  C16_21 
REMARK    6  A    between atoms: C16_21  and  C17_22 
REMARK    7  A    between atoms: C17_22  and  O4_24 
ROOT
HETATM    1  C1  UNL     1      31.769   2.697  46.614  1.00  0.00     0.040 C 
HETATM    2  C2  UNL     1      33.152   3.336  46.482  1.00  0.00     0.061 C 
HETATM    3  C3  UNL     1      33.426   3.756  45.110  1.00  0.00     0.026 C 
HETATM    4  C4  UNL     1      33.523   5.037  44.888  1.00  0.00     0.079 C 
HETATM    5  C5  UNL     1      33.304   5.708  46.190  1.00  0.00    -0.028 C 
HETATM    6  C6  UNL     1      33.204   7.012  46.359  1.00  0.00     0.018 C 
HETATM    7  C18 UNL     1      33.223   4.632  47.236  1.00  0.00     0.074 C 
HETATM    8  C19 UNL     1      34.512   4.502  47.987  1.00  0.00     0.205 C 
HETATM    9  O5  UNL     1      35.118   3.329  47.599  1.00  0.00    -0.304 OA
HETATM   10  N3  UNL     1      34.173   2.524  47.065  1.00  0.00    -0.192 NA
HETATM   11  H27 UNL     1      33.814   1.914  47.831  1.00  0.00     0.155 HD
ENDROOT
BRANCH   4  12
HETATM   12  S1  UNL     1      33.845   5.850  43.349  1.00  0.00     0.239 S 
HETATM   13  O1  UNL     1      32.699   6.688  42.922  1.00  0.00    -0.206 OA
HETATM   14  O2  UNL     1      34.103   4.852  42.270  1.00  0.00    -0.206 OA
BRANCH  12  15
HETATM   15  N1  UNL     1      35.204   6.874  43.538  1.00  0.00    -0.225 NA
HETATM   16  H5  UNL     1      36.017   6.480  43.018  1.00  0.00     0.136 HD
HETATM   17  H6  UNL     1      35.034   7.871  43.281  1.00  0.00     0.136 HD
ENDBRANCH  12  15
ENDBRANCH   4  12
BRANCH   6  18
HETATM   18  C7  UNL     1      32.996   7.927  47.467  1.00  0.00     0.073 A 
HETATM   19  C8  UNL     1      34.006   8.056  48.546  1.00  0.00     0.048 C 
HETATM   20  C9  UNL     1      32.648   9.316  46.989  1.00  0.00    -0.026 A 
HETATM   21  C10 UNL     1      31.416   9.375  47.470  1.00  0.00     0.013 A 
HETATM   22  C14 UNL     1      32.949  10.606  46.290  1.00  0.00     0.039 C 
HETATM   23  C11 UNL     1      30.508  10.560  47.314  1.00  0.00     0.057 C 
HETATM   24  N2  UNL     1      31.645   8.039  47.972  1.00  0.00    -0.367 N 
HETATM   25  C12 UNL     1      31.273  11.809  47.702  1.00  0.00     0.006 C 
HETATM   26  C13 UNL     1      32.748  11.676  47.371  1.00  0.00     0.005 C 
BRANCH  24  27
HETATM   27  C15 UNL     1      30.792   7.159  48.706  1.00  0.00     0.134 C 
BRANCH  27  28
HETATM   28  C16 UNL     1      29.951   6.313  47.813  1.00  0.00     0.130 C 
BRANCH  28  29
HETATM   29  C17 UNL     1      28.691   5.878  48.459  1.00  0.00     0.140 C 
HETATM   30  O3  UNL     1      28.375   4.665  48.425  1.00  0.00    -0.650 OA
BRANCH  29  31
HETATM   31  O4  UNL     1      27.502   5.835  49.132  1.00  0.00    -0.776 OA
HETATM   32  H23 UNL     1      26.834   5.084  49.161  1.00  0.00     0.167 HD
ENDBRANCH  29  31
ENDBRANCH  28  29
ENDBRANCH  27  28
ENDBRANCH  24  27
ENDBRANCH   6  18
TORSDOF 7
ENDMDL
MODEL 9
REMARK VINA RESULT:      -6.3      3.343      6.310
REMARK  7 active torsions:
REMARK  status: ('A' for Active; 'I' for Inactive)
REMARK    1  A    between atoms: C4_4  and  S1_5 
REMARK    2  A    between atoms: S1_5  and  N1_6 
REMARK    3  A    between atoms: C6_10  and  C7_11 
REMARK    4  A    between atoms: N2_19  and  C15_20 
REMARK    5  A    between atoms: C15_20  and  C16_21 
REMARK    6  A    between atoms: C16_21  and  C17_22 
REMARK    7  A    between atoms: C17_22  and  O4_24 
ROOT
HETATM    1  C1  UNL     1      26.612   2.993  49.124  1.00  0.00     0.040 C 
HETATM    2  C2  UNL     1      26.074   3.280  50.527  1.00  0.00     0.061 C 
HETATM    3  C3  UNL     1      25.450   4.599  50.608  1.00  0.00     0.026 C 
HETATM    4  C4  UNL     1      24.162   4.636  50.807  1.00  0.00     0.079 C 
HETATM    5  C5  UNL     1      23.708   3.227  50.890  1.00  0.00    -0.028 C 
HETATM    6  C6  UNL     1      22.449   2.845  50.966  1.00  0.00     0.018 C 
HETATM    7  C18 UNL     1      24.937   2.363  50.869  1.00  0.00     0.074 C 
HETATM    8  C19 UNL     1      25.298   1.894  52.244  1.00  0.00     0.205 C 
HETATM    9  O5  UNL     1      26.433   2.564  52.642  1.00  0.00    -0.304 OA
HETATM   10  N3  UNL     1      27.055   3.030  51.535  1.00  0.00    -0.192 NA
HETATM   11  H27 UNL     1      27.755   2.314  51.247  1.00  0.00     0.155 HD
ENDROOT
BRANCH   4  12
HETATM   12  S1  UNL     1      23.126   6.064  50.951  1.00  0.00     0.239 S 
HETATM   13  O1  UNL     1      21.969   5.813  51.843  1.00  0.00    -0.206 OA
HETATM   14  O2  UNL     1      22.591   6.462  49.616  1.00  0.00    -0.206 OA
BRANCH  12  15
HETATM   15  N1  UNL     1      24.041   7.346  51.623  1.00  0.00    -0.225 NA
HETATM   16  H5  UNL     1      24.354   7.989  50.865  1.00  0.00     0.136 HD
HETATM   17  H6  UNL     1      23.560   7.865  52.389  1.00  0.00     0.136 HD
ENDBRANCH  12  15
ENDBRANCH   4  12
BRANCH   6  18
HETATM   18  C7  UNL     1      21.723   1.590  51.052  1.00  0.00     0.073 A 
HETATM   19  C8  UNL     1      21.773   0.605  49.944  1.00  0.00     0.048 C 
HETATM   20  C9  UNL     1      22.022   0.857  52.338  1.00  0.00    -0.026 A 
HETATM   21  C10 UNL     1      20.813   0.921  52.874  1.00  0.00     0.013 A 
HETATM   22  C14 UNL     1      22.925   0.126  53.283  1.00  0.00     0.039 C 
HETATM   23  C11 UNL     1      20.456   0.343  54.212  1.00  0.00     0.057 C 
HETATM   24  N2  UNL     1      20.420   1.635  51.681  1.00  0.00    -0.367 N 
HETATM   25  C12 UNL     1      20.975  -1.080  54.279  1.00  0.00     0.006 C 
HETATM   26  C13 UNL     1      22.249  -1.238  53.471  1.00  0.00     0.005 C 
BRANCH  24  27
HETATM   27  C15 UNL     1      19.161   2.188  51.297  1.00  0.00     0.134 C 
BRANCH  27  28
HETATM   28  C16 UNL     1      19.019   3.612  51.715  1.00  0.00     0.130 C 
BRANCH  28  29
HETATM   29  C17 UNL     1      18.752   4.518  50.575  1.00  0.00     0.140 C 
HETATM   30  O3  UNL     1      19.625   4.652  49.685  1.00  0.00    -0.650 OA
BRANCH  29  31
HETATM   31  O4  UNL     1      18.189   5.405  49.700  1.00  0.00    -0.776 OA
HETATM   32  H23 UNL     1      18.597   6.239  49.315  1.00  0.00     0.167 HD
ENDBRANCH  29  31
ENDBRANCH  28  29
ENDBRANCH  27  28
ENDBRANCH  24  27
ENDBRANCH   6  18
TORSDOF 7
ENDMDL
