MODEL 1
REMARK VINA RESULT:      -8.9      0.000      0.000
REMARK  4 active torsions:
REMARK  status: ('A' for Active; 'I' for Inactive)
REMARK    1  A    between atoms: C2_2  and  C3_3 
REMARK    2  A    between atoms: C9_11  and  N3_12 
REMARK    3  A    between atoms: N3_12  and  C10_13 
REMARK    4  A    between atoms: C17_22  and  C18_23 
ROOT
HETATM    1  C3  UNL     1      21.615  -0.623  53.550  1.00  0.00    -0.017 A 
HETATM    2  C4  UNL     1      22.704  -1.055  54.381  1.00  0.00     0.012 A 
HETATM    3  C5  UNL     1      23.771  -0.246  53.800  1.00  0.00    -0.004 A 
HETATM    4  N1  UNL     1      22.779   0.091  53.101  1.00  0.00     0.000 N 
HETATM    5  C6  UNL     1      23.079   0.992  52.172  1.00  0.00     0.022 A 
HETATM    6  C7  UNL     1      24.257   1.718  51.717  1.00  0.00     0.043 A 
HETATM    7  C8  UNL     1      24.438   2.685  50.668  1.00  0.00     0.094 C 
HETATM    8  N2  UNL     1      24.561   3.434  49.846  1.00  0.00    -0.192 NA
HETATM    9  C9  UNL     1      24.742   0.994  52.697  1.00  0.00     0.105 A 
HETATM   10  C16 UNL     1      23.273   0.636  52.638  1.00  0.00     0.021 A 
HETATM   11  C17 UNL     1      22.094   1.185  51.641  1.00  0.00     0.025 A 
HETATM   12  C18 UNL     1      21.822   0.296  52.569  1.00  0.00    -0.002 A 
ENDROOT
BRANCH   9  13
HETATM   13  N3  UNL     1      26.064   1.617  52.380  1.00  0.00    -0.373 N 
HETATM   14  H7  UNL     1      26.127   2.550  51.866  1.00  0.00     0.161 HD
BRANCH  13  15
HETATM   15  C10 UNL     1      27.221   0.922  52.809  1.00  0.00     0.030 A 
HETATM   16  C11 UNL     1      28.266   1.629  53.337  1.00  0.00     0.032 A 
HETATM   17  C12 UNL     1      29.358   0.906  53.747  1.00  0.00     0.046 A 
HETATM   18  C13 UNL     1      29.410  -0.463  53.638  1.00  0.00     0.138 A 
HETATM   19  F1  UNL     1      30.527  -1.128  54.065  1.00  0.00    -0.204 F 
HETATM   20  C14 UNL     1      28.351  -1.202  53.100  1.00  0.00     0.074 A 
HETATM   21 CL1  UNL     1      28.398  -2.944  52.950  1.00  0.00    -0.081 Cl
HETATM   22  C15 UNL     1      27.278  -0.448  52.701  1.00  0.00     0.056 A 
ENDBRANCH  13  15
ENDBRANCH   9  13
BRANCH   1  23
HETATM   23  C2  UNL     1      20.198  -1.154  53.849  1.00  0.00     0.007 C 
HETATM   24  C1  UNL     1      19.173  -0.526  52.981  1.00  0.00     0.006 C 
ENDBRANCH   1  23
TORSDOF 4
ENDMDL
MODEL 2
REMARK VINA RESULT:      -8.7      3.593      6.675
REMARK  4 active torsions:
REMARK  status: ('A' for Active; 'I' for Inactive)
REMARK    1  A    between atoms: C2_2  and  C3_3 
REMARK    2  A    between atoms: C9_11  and  N3_12 
REMARK    3  A    between atoms: N3_12  and  C10_13 
REMARK    4  A    between atoms: C17_22  and  C18_23 
ROOT
HETATM    1  C3  UNL     1      25.529   3.622  50.098  1.00  0.00    -0.017 A 
HETATM    2  C4  UNL     1      24.138   3.274  50.007  1.00  0.00     0.012 A 
HETATM    3  C5  UNL     1      24.103   2.206  51.000  1.00  0.00    -0.004 A 
HETATM    4  N1  UNL     1      25.313   2.552  51.033  1.00  0.00     0.000 N 
HETATM    5  C6  UNL     1      26.032   1.852  51.904  1.00  0.00     0.022 A 
HETATM    6  C7  UNL     1      25.814   0.768  52.854  1.00  0.00     0.043 A 
HETATM    7  C8  UNL     1      26.711   0.090  53.751  1.00  0.00     0.094 C 
HETATM    8  N2  UNL     1      27.422  -0.429  54.441  1.00  0.00    -0.192 NA
HETATM    9  C9  UNL     1      24.617   0.932  52.346  1.00  0.00     0.105 A 
HETATM   10  C16 UNL     1      25.481   1.955  51.643  1.00  0.00     0.021 A 
HETATM   11  C17 UNL     1      27.079   2.281  51.813  1.00  0.00     0.025 A 
HETATM   12  C18 UNL     1      26.347   2.961  50.960  1.00  0.00    -0.002 A 
ENDROOT
BRANCH   9  13
HETATM   13  N3  UNL     1      24.185  -0.184  53.242  1.00  0.00    -0.373 N 
HETATM   14  H7  UNL     1      24.896  -0.767  53.784  1.00  0.00     0.161 HD
BRANCH  13  15
HETATM   15  C10 UNL     1      22.791  -0.418  53.350  1.00  0.00     0.030 A 
HETATM   16  C11 UNL     1      22.325  -1.213  54.361  1.00  0.00     0.032 A 
HETATM   17  C12 UNL     1      20.968  -1.398  54.426  1.00  0.00     0.046 A 
HETATM   18  C13 UNL     1      20.108  -0.817  53.525  1.00  0.00     0.138 A 
HETATM   19  F1  UNL     1      18.762  -1.040  53.643  1.00  0.00    -0.204 F 
HETATM   20  C14 UNL     1      20.566  -0.003  52.485  1.00  0.00     0.074 A 
HETATM   21 CL1  UNL     1      19.489   0.744  51.328  1.00  0.00    -0.081 Cl
HETATM   22  C15 UNL     1      21.928   0.160  52.450  1.00  0.00     0.056 A 
ENDBRANCH  13  15
ENDBRANCH   9  13
BRANCH   1  23
HETATM   23  C2  UNL     1      26.053   4.812  49.268  1.00  0.00     0.007 C 
HETATM   24  C1  UNL     1      27.453   4.610  48.826  1.00  0.00     0.006 C 
ENDBRANCH   1  23
TORSDOF 4
ENDMDL
MODEL 3
REMARK VINA RESULT:      -8.6      3.540      6.663
REMARK  4 active torsions:
REMARK  status: ('A' for Active; 'I' for Inactive)
REMARK    1  A    between atoms: C2_2  and  C3_3 
REMARK    2  A    between atoms: C9_11  and  N3_12 
REMARK    3  A    between atoms: N3_12  and  C10_13 
REMARK    4  A    between atoms: C17_22  and  C18_23 
ROOT
HETATM    1  C3  UNL     1      27.409   0.184  53.661  1.00  0.00    -0.017 A 
HETATM    2  C4  UNL     1      27.251   0.958  52.460  1.00  0.00     0.012 A 
HETATM    3  C5  UNL     1      25.798   0.900  52.340  1.00  0.00    -0.004 A 
HETATM    4  N1  UNL     1      25.998   0.228  53.386  1.00  0.00     0.000 N 
HETATM    5  C6  UNL     1      24.879  -0.236  53.929  1.00  0.00     0.022 A 
HETATM    6  C7  UNL     1      23.449  -0.192  53.652  1.00  0.00     0.043 A 
HETATM    7  C8  UNL     1      22.324  -0.760  54.344  1.00  0.00     0.094 C 
HETATM    8  N2  UNL     1      21.460  -1.211  54.894  1.00  0.00    -0.192 NA
HETATM    9  C9  UNL     1      23.943   0.511  52.661  1.00  0.00     0.105 A 
HETATM   10  C16 UNL     1      25.145   0.088  53.475  1.00  0.00     0.021 A 
HETATM   11  C17 UNL     1      25.228  -0.808  54.846  1.00  0.00     0.025 A 
HETATM   12  C18 UNL     1      26.321  -0.336  54.291  1.00  0.00    -0.002 A 
ENDROOT
BRANCH   9  13
HETATM   13  N3  UNL     1      22.531   0.667  52.191  1.00  0.00    -0.373 N 
HETATM   14  H7  UNL     1      21.707   0.392  52.811  1.00  0.00     0.161 HD
BRANCH  13  15
HETATM   15  C10 UNL     1      22.342   1.210  50.896  1.00  0.00     0.030 A 
HETATM   16  C11 UNL     1      21.436   0.627  50.054  1.00  0.00     0.032 A 
HETATM   17  C12 UNL     1      21.285   1.199  48.817  1.00  0.00     0.046 A 
HETATM   18  C13 UNL     1      22.003   2.306  48.431  1.00  0.00     0.138 A 
HETATM   19  F1  UNL     1      21.807   2.831  47.182  1.00  0.00    -0.204 F 
HETATM   20  C14 UNL     1      22.934   2.915  49.278  1.00  0.00     0.074 A 
HETATM   21 CL1  UNL     1      23.860   4.322  48.806  1.00  0.00    -0.081 Cl
HETATM   22  C15 UNL     1      23.060   2.317  50.506  1.00  0.00     0.056 A 
ENDBRANCH  13  15
ENDBRANCH   9  13
BRANCH   1  23
HETATM   23  C2  UNL     1      28.820   0.032  54.265  1.00  0.00     0.007 C 
HETATM   24  C1  UNL     1      29.626  -0.984  53.547  1.00  0.00     0.006 C 
ENDBRANCH   1  23
TORSDOF 4
ENDMDL
MODEL 4
REMARK VINA RESULT:      -8.5      3.375      4.591
REMARK  4 active torsions:
REMARK  status: ('A' for Active; 'I' for Inactive)
REMARK    1  A    between atoms: C2_2  and  C3_3 
REMARK    2  A    between atoms: C9_11  and  N3_12 
REMARK    3  A    between atoms: N3_12  and  C10_13 
REMARK    4  A    between atoms: C17_22  and  C18_23 
ROOT
HETATM    1  C3  UNL     1      19.598  -0.578  52.927  1.00  0.00    -0.017 A 
HETATM    2  C4  UNL     1      19.950   0.306  51.850  1.00  0.00     0.012 A 
HETATM    3  C5  UNL     1      21.378   0.439  52.121  1.00  0.00    -0.004 A 
HETATM    4  N1  UNL     1      21.009  -0.332  53.046  1.00  0.00     0.000 N 
HETATM    5  C6  UNL     1      22.003  -0.695  53.849  1.00  0.00     0.022 A 
HETATM    6  C7  UNL     1      23.433  -0.448  53.971  1.00  0.00     0.043 A 
HETATM    7  C8  UNL     1      24.407  -0.919  54.920  1.00  0.00     0.094 C 
HETATM    8  N2  UNL     1      25.150  -1.292  55.668  1.00  0.00    -0.192 NA
HETATM    9  C9  UNL     1      23.121   0.261  52.913  1.00  0.00     0.105 A 
HETATM   10  C16 UNL     1      21.820  -0.372  53.356  1.00  0.00     0.021 A 
HETATM   11  C17 UNL     1      21.511  -1.377  54.613  1.00  0.00     0.025 A 
HETATM   12  C18 UNL     1      20.545  -1.005  53.804  1.00  0.00    -0.002 A 
ENDROOT
BRANCH   9  13
HETATM   13  N3  UNL     1      24.563   0.654  52.867  1.00  0.00    -0.373 N 
HETATM   14  H7  UNL     1      25.271   0.249  53.554  1.00  0.00     0.161 HD
BRANCH  13  15
HETATM   15  C10 UNL     1      24.946   1.574  51.858  1.00  0.00     0.030 A 
HETATM   16  C11 UNL     1      26.274   1.827  51.656  1.00  0.00     0.032 A 
HETATM   17  C12 UNL     1      26.589   2.717  50.661  1.00  0.00     0.046 A 
HETATM   18  C13 UNL     1      25.625   3.329  49.896  1.00  0.00     0.138 A 
HETATM   19  F1  UNL     1      26.003   4.208  48.917  1.00  0.00    -0.204 F 
HETATM   20  C14 UNL     1      24.262   3.083  50.089  1.00  0.00     0.074 A 
HETATM   21 CL1  UNL     1      23.019   3.852  49.129  1.00  0.00    -0.081 Cl
HETATM   22  C15 UNL     1      23.984   2.189  51.092  1.00  0.00     0.056 A 
ENDBRANCH  13  15
ENDBRANCH   9  13
BRANCH   1  23
HETATM   23  C2  UNL     1      18.149  -1.100  53.014  1.00  0.00     0.007 C 
HETATM   24  C1  UNL     1      18.072  -2.422  53.680  1.00  0.00     0.006 C 
ENDBRANCH   1  23
TORSDOF 4
ENDMDL
MODEL 5
REMARK VINA RESULT:      -8.5      1.924      3.747
REMARK  4 active torsions:
REMARK  status: ('A' for Active; 'I' for Inactive)
REMARK    1  A    between atoms: C2_2  and  C3_3 
REMARK    2  A    between atoms: C9_11  and  N3_12 
REMARK    3  A    between atoms: N3_12  and  C10_13 
REMARK    4  A    between atoms: C17_22  and  C18_23 
ROOT
HETATM    1  C3  UNL     1      22.798   3.069  51.127  1.00  0.00    -0.017 A 
HETATM    2  C4  UNL     1      24.193   2.969  50.797  1.00  0.00     0.012 A 
HETATM    3  C5  UNL     1      24.545   1.827  51.633  1.00  0.00    -0.004 A 
HETATM    4  N1  UNL     1      23.320   1.965  51.886  1.00  0.00     0.000 N 
HETATM    5  C6  UNL     1      22.863   1.073  52.758  1.00  0.00     0.022 A 
HETATM    6  C7  UNL     1      23.390  -0.047  53.527  1.00  0.00     0.043 A 
HETATM    7  C8  UNL     1      22.763  -0.945  54.460  1.00  0.00     0.094 C 
HETATM    8  N2  UNL     1      22.260  -1.632  55.185  1.00  0.00    -0.192 NA
HETATM    9  C9  UNL     1      24.451   0.360  52.873  1.00  0.00     0.105 A 
HETATM   10  C16 UNL     1      23.343   1.292  52.435  1.00  0.00     0.021 A 
HETATM   11  C17 UNL     1      21.764   1.330  52.873  1.00  0.00     0.025 A 
HETATM   12  C18 UNL     1      22.237   2.201  52.011  1.00  0.00    -0.002 A 
ENDROOT
BRANCH   9  13
HETATM   13  N3  UNL     1      25.190  -0.734  53.577  1.00  0.00    -0.373 N 
HETATM   14  H7  UNL     1      24.671  -1.532  54.059  1.00  0.00     0.161 HD
BRANCH  13  15
HETATM   15  C10 UNL     1      26.605  -0.669  53.556  1.00  0.00     0.030 A 
HETATM   16  C11 UNL     1      27.313  -1.720  53.043  1.00  0.00     0.032 A 
HETATM   17  C12 UNL     1      28.680  -1.601  53.038  1.00  0.00     0.046 A 
HETATM   18  C13 UNL     1      29.318  -0.483  53.520  1.00  0.00     0.138 A 
HETATM   19  F1  UNL     1      30.685  -0.425  53.486  1.00  0.00    -0.204 F 
HETATM   20  C14 UNL     1      28.610   0.601  54.049  1.00  0.00     0.074 A 
HETATM   21 CL1  UNL     1      29.402   2.031  54.669  1.00  0.00    -0.081 Cl
HETATM   22  C15 UNL     1      27.247   0.448  54.039  1.00  0.00     0.056 A 
ENDBRANCH  13  15
ENDBRANCH   9  13
BRANCH   1  23
HETATM   23  C2  UNL     1      21.935   4.117  50.395  1.00  0.00     0.007 C 
HETATM   24  C1  UNL     1      21.562   5.247  51.280  1.00  0.00     0.006 C 
ENDBRANCH   1  23
TORSDOF 4
ENDMDL
MODEL 6
REMARK VINA RESULT:      -8.5      3.413      6.380
REMARK  4 active torsions:
REMARK  status: ('A' for Active; 'I' for Inactive)
REMARK    1  A    between atoms: C2_2  and  C3_3 
REMARK    2  A    between atoms: C9_11  and  N3_12 
REMARK    3  A    between atoms: N3_12  and  C10_13 
REMARK    4  A    between atoms: C17_22  and  C18_23 
ROOT
HETATM    1  C3  UNL     1      27.859   0.333  53.651  1.00  0.00    -0.017 A 
HETATM    2  C4  UNL     1      26.991  -0.077  54.720  1.00  0.00     0.012 A 
HETATM    3  C5  UNL     1      25.726   0.424  54.194  1.00  0.00    -0.004 A 
HETATM    4  N1  UNL     1      26.535   0.762  53.290  1.00  0.00     0.000 N 
HETATM    5  C6  UNL     1      25.953   1.400  52.280  1.00  0.00     0.022 A 
HETATM    6  C7  UNL     1      24.612   1.834  51.912  1.00  0.00     0.043 A 
HETATM    7  C8  UNL     1      24.119   2.537  50.759  1.00  0.00     0.094 C 
HETATM    8  N2  UNL     1      23.752   3.087  49.856  1.00  0.00    -0.192 NA
HETATM    9  C9  UNL     1      24.405   1.255  53.070  1.00  0.00     0.105 A 
HETATM   10  C16 UNL     1      25.892   1.120  52.828  1.00  0.00     0.021 A 
HETATM   11  C17 UNL     1      26.805   1.629  51.565  1.00  0.00     0.025 A 
HETATM   12  C18 UNL     1      27.357   0.994  52.574  1.00  0.00    -0.002 A 
ENDROOT
BRANCH   9  13
HETATM   13  N3  UNL     1      22.966   1.622  52.891  1.00  0.00    -0.373 N 
HETATM   14  H7  UNL     1      22.680   2.589  52.541  1.00  0.00     0.161 HD
BRANCH  13  15
HETATM   15  C10 UNL     1      22.006   0.624  53.192  1.00  0.00     0.030 A 
HETATM   16  C11 UNL     1      22.332  -0.371  54.072  1.00  0.00     0.032 A 
HETATM   17  C12 UNL     1      21.364  -1.306  54.335  1.00  0.00     0.046 A 
HETATM   18  C13 UNL     1      20.121  -1.255  53.749  1.00  0.00     0.138 A 
HETATM   19  F1  UNL     1      19.197  -2.217  54.053  1.00  0.00    -0.204 F 
HETATM   20  C14 UNL     1      19.771  -0.246  52.846  1.00  0.00     0.074 A 
HETATM   21 CL1  UNL     1      18.197  -0.164  52.089  1.00  0.00    -0.081 Cl
HETATM   22  C15 UNL     1      20.763   0.671  52.607  1.00  0.00     0.056 A 
ENDBRANCH  13  15
ENDBRANCH   9  13
BRANCH   1  23
HETATM   23  C2  UNL     1      29.348  -0.067  53.709  1.00  0.00     0.007 C 
HETATM   24  C1  UNL     1      29.547  -1.510  53.436  1.00  0.00     0.006 C 
ENDBRANCH   1  23
TORSDOF 4
ENDMDL
MODEL 7
REMARK VINA RESULT:      -8.1      2.136      4.864
REMARK  4 active torsions:
REMARK  status: ('A' for Active; 'I' for Inactive)
REMARK    1  A    between atoms: C2_2  and  C3_3 
REMARK    2  A    between atoms: C9_11  and  N3_12 
REMARK    3  A    between atoms: N3_12  and  C10_13 
REMARK    4  A    between atoms: C17_22  and  C18_23 
ROOT
HETATM    1  C3  UNL     1      25.487   4.965  49.428  1.00  0.00    -0.017 A 
HETATM    2  C4  UNL     1      26.735   4.253  49.435  1.00  0.00     0.012 A 
HETATM    3  C5  UNL     1      26.352   3.127  50.280  1.00  0.00    -0.004 A 
HETATM    4  N1  UNL     1      25.286   3.796  50.241  1.00  0.00     0.000 N 
HETATM    5  C6  UNL     1      24.299   3.246  50.940  1.00  0.00     0.022 A 
HETATM    6  C7  UNL     1      24.093   2.061  51.762  1.00  0.00     0.043 A 
HETATM    7  C8  UNL     1      22.942   1.584  52.479  1.00  0.00     0.094 C 
HETATM    8  N2  UNL     1      22.037   1.229  53.033  1.00  0.00    -0.192 NA
HETATM    9  C9  UNL     1      25.345   1.927  51.397  1.00  0.00     0.105 A 
HETATM   10  C16 UNL     1      24.887   3.215  50.749  1.00  0.00     0.021 A 
HETATM   11  C17 UNL     1      23.427   3.960  50.802  1.00  0.00     0.025 A 
HETATM   12  C18 UNL     1      24.417   4.483  50.116  1.00  0.00    -0.002 A 
ENDROOT
BRANCH   9  13
HETATM   13  N3  UNL     1      25.351   0.671  52.207  1.00  0.00    -0.373 N 
HETATM   14  H7  UNL     1      24.456   0.113  52.371  1.00  0.00     0.161 HD
BRANCH  13  15
HETATM   15  C10 UNL     1      26.599   0.249  52.729  1.00  0.00     0.030 A 
HETATM   16  C11 UNL     1      26.966  -1.062  52.602  1.00  0.00     0.032 A 
HETATM   17  C12 UNL     1      28.188  -1.415  53.116  1.00  0.00     0.046 A 
HETATM   18  C13 UNL     1      29.013  -0.503  53.730  1.00  0.00     0.138 A 
HETATM   19  F1  UNL     1      30.221  -0.917  54.222  1.00  0.00    -0.204 F 
HETATM   20  C14 UNL     1      28.654   0.841  53.869  1.00  0.00     0.074 A 
HETATM   21 CL1  UNL     1      29.688   2.017  54.648  1.00  0.00    -0.081 Cl
HETATM   22  C15 UNL     1      27.427   1.158  53.345  1.00  0.00     0.056 A 
ENDBRANCH  13  15
ENDBRANCH   9  13
BRANCH   1  23
HETATM   23  C2  UNL     1      25.361   6.233  48.559  1.00  0.00     0.007 C 
HETATM   24  C1  UNL     1      23.956   6.506  48.172  1.00  0.00     0.006 C 
ENDBRANCH   1  23
TORSDOF 4
ENDMDL
MODEL 8
REMARK VINA RESULT:      -8.0      3.228      6.149
REMARK  4 active torsions:
REMARK  status: ('A' for Active; 'I' for Inactive)
REMARK    1  A    between atoms: C2_2  and  C3_3 
REMARK    2  A    between atoms: C9_11  and  N3_12 
REMARK    3  A    between atoms: N3_12  and  C10_13 
REMARK    4  A    between atoms: C17_22  and  C18_23 
ROOT
HETATM    1  C3  UNL     1      26.929   5.995  48.579  1.00  0.00    -0.017 A 
HETATM    2  C4  UNL     1      27.816   4.865  48.567  1.00  0.00     0.012 A 
HETATM    3  C5  UNL     1      27.060   3.970  49.436  1.00  0.00    -0.004 A 
HETATM    4  N1  UNL     1      26.324   4.991  49.412  1.00  0.00     0.000 N 
HETATM    5  C6  UNL     1      25.221   4.857  50.141  1.00  0.00     0.022 A 
HETATM    6  C7  UNL     1      24.606   3.840  50.984  1.00  0.00     0.043 A 
HETATM    7  C8  UNL     1      23.379   3.835  51.733  1.00  0.00     0.094 C 
HETATM    8  N2  UNL     1      22.422   3.850  52.313  1.00  0.00    -0.192 NA
HETATM    9  C9  UNL     1      25.705   3.243  50.592  1.00  0.00     0.105 A 
HETATM   10  C16 UNL     1      25.749   4.606  49.937  1.00  0.00     0.021 A 
HETATM   11  C17 UNL     1      24.679   5.846  50.013  1.00  0.00     0.025 A 
HETATM   12  C18 UNL     1      25.774   5.954  49.297  1.00  0.00    -0.002 A 
ENDROOT
BRANCH   9  13
HETATM   13  N3  UNL     1      25.258   2.080  51.419  1.00  0.00    -0.373 N 
HETATM   14  H7  UNL     1      24.228   1.812  51.487  1.00  0.00     0.161 HD
BRANCH  13  15
HETATM   15  C10 UNL     1      26.267   1.344  52.089  1.00  0.00     0.030 A 
HETATM   16  C11 UNL     1      26.254  -0.022  52.018  1.00  0.00     0.032 A 
HETATM   17  C12 UNL     1      27.258  -0.685  52.676  1.00  0.00     0.046 A 
HETATM   18  C13 UNL     1      28.236  -0.019  53.376  1.00  0.00     0.138 A 
HETATM   19  F1  UNL     1      29.212  -0.738  54.012  1.00  0.00    -0.204 F 
HETATM   20  C14 UNL     1      28.265   1.376  53.461  1.00  0.00     0.074 A 
HETATM   21 CL1  UNL     1      29.498   2.242  54.348  1.00  0.00    -0.081 Cl
HETATM   22  C15 UNL     1      27.246   2.006  52.792  1.00  0.00     0.056 A 
ENDBRANCH  13  15
ENDBRANCH   9  13
BRANCH   1  23
HETATM   23  C2  UNL     1      27.267   7.214  47.696  1.00  0.00     0.007 C 
HETATM   24  C1  UNL     1      28.727   7.459  47.622  1.00  0.00     0.006 C 
ENDBRANCH   1  23
TORSDOF 4
ENDMDL
MODEL 9
REMARK VINA RESULT:      -7.9      3.492      6.217
REMARK  4 active torsions:
REMARK  status: ('A' for Active; 'I' for Inactive)
REMARK    1  A    between atoms: C2_2  and  C3_3 
REMARK    2  A    between atoms: C9_11  and  N3_12 
REMARK    3  A    between atoms: N3_12  and  C10_13 
REMARK    4  A    between atoms: C17_22  and  C18_23 
ROOT
HETATM    1  C3  UNL     1      27.552  -0.343  53.090  1.00  0.00    -0.017 A 
HETATM    2  C4  UNL     1      28.007   0.954  52.671  1.00  0.00     0.012 A 
HETATM    3  C5  UNL     1      26.718   1.632  52.585  1.00  0.00    -0.004 A 
HETATM    4  N1  UNL     1      26.379   0.476  52.950  1.00  0.00     0.000 N 
HETATM    5  C6  UNL     1      25.066   0.342  53.103  1.00  0.00     0.022 A 
HETATM    6  C7  UNL     1      23.876   1.171  52.963  1.00  0.00     0.043 A 
HETATM    7  C8  UNL     1      22.482   0.882  53.164  1.00  0.00     0.094 C 
HETATM    8  N2  UNL     1      21.401   0.639  53.322  1.00  0.00    -0.192 NA
HETATM    9  C9  UNL     1      24.833   2.007  52.639  1.00  0.00     0.105 A 
HETATM   10  C16 UNL     1      25.542   0.708  52.955  1.00  0.00     0.021 A 
HETATM   11  C17 UNL     1      24.931  -0.738  53.429  1.00  0.00     0.025 A 
HETATM   12  C18 UNL     1      26.226  -0.580  53.273  1.00  0.00    -0.002 A 
ENDROOT
BRANCH   9  13
HETATM   13  N3  UNL     1      23.751   3.016  52.421  1.00  0.00    -0.373 N 
HETATM   14  H7  UNL     1      22.775   2.879  52.831  1.00  0.00     0.161 HD
BRANCH  13  15
HETATM   15  C10 UNL     1      24.087   4.165  51.663  1.00  0.00     0.030 A 
HETATM   16  C11 UNL     1      23.401   5.328  51.877  1.00  0.00     0.032 A 
HETATM   17  C12 UNL     1      23.774   6.413  51.124  1.00  0.00     0.046 A 
HETATM   18  C13 UNL     1      24.787   6.345  50.198  1.00  0.00     0.138 A 
HETATM   19  F1  UNL     1      25.112   7.463  49.478  1.00  0.00    -0.204 F 
HETATM   20  C14 UNL     1      25.499   5.164  49.965  1.00  0.00     0.074 A 
HETATM   21 CL1  UNL     1      26.789   5.056  48.790  1.00  0.00    -0.081 Cl
HETATM   22  C15 UNL     1      25.099   4.101  50.735  1.00  0.00     0.056 A 
ENDBRANCH  13  15
ENDBRANCH   9  13
BRANCH   1  23
HETATM   23  C2  UNL     1      28.600  -1.428  53.413  1.00  0.00     0.007 C 
HETATM   24  C1  UNL     1      29.919  -0.844  53.756  1.00  0.00     0.006 C 
ENDBRANCH   1  23
TORSDOF 4
ENDMDL
