MODEL 1
REMARK VINA RESULT:      -8.7      0.000      0.000
REMARK  6 active torsions:
REMARK  status: ('A' for Active; 'I' for Inactive)
REMARK    1  A    between atoms: N1_1  and  C1_2 
REMARK    2  A    between atoms: C2_4  and  N3_5 
REMARK    3  A    between atoms: N3_5  and  C3_6 
REMARK    4  A    between atoms: C6_9  and  S1_10 
REMARK    5  A    between atoms: S1_10  and  N4_11 
REMARK    6  A    between atoms: N6_17  and  C9_18 
ROOT
HETATM    1  C1  UNL     1      25.050   1.763  52.198  1.00  0.00     0.733 A 
HETATM    2  N2  UNL     1      24.799   2.478  51.065  1.00  0.00     0.131 NA
HETATM    3  C2  UNL     1      25.980   2.779  50.474  1.00  0.00     0.760 A 
HETATM    4  N5  UNL     1      26.934   2.253  51.236  1.00  0.00     0.037 NA
HETATM    5  N6  UNL     1      26.387   1.642  52.272  1.00  0.00    -0.069 N 
ENDROOT
BRANCH   3   6
HETATM    6  N3  UNL     1      25.678   3.528  49.275  1.00  0.00    -0.186 N 
HETATM    7  H3  UNL     1      25.246   3.146  48.406  1.00  0.00     0.184 HD
BRANCH   6   8
HETATM    8  C3  UNL     1      26.022   4.931  49.311  1.00  0.00     0.049 A 
HETATM    9  C4  UNL     1      27.131   5.327  48.567  1.00  0.00     0.031 A 
HETATM   10  C5  UNL     1      27.511   6.673  48.617  1.00  0.00     0.027 A 
HETATM   11  C6  UNL     1      26.792   7.574  49.389  1.00  0.00     0.074 A 
HETATM   12  C7  UNL     1      25.683   7.164  50.128  1.00  0.00     0.027 A 
HETATM   13  C8  UNL     1      25.313   5.833  50.075  1.00  0.00     0.031 A 
BRANCH  11  14
HETATM   14  S1  UNL     1      27.282   9.227  49.441  1.00  0.00     0.239 S 
HETATM   15  O1  UNL     1      26.143  10.098  49.002  1.00  0.00    -0.206 OA
HETATM   16  O2  UNL     1      28.483   9.447  48.582  1.00  0.00    -0.206 OA
BRANCH  14  17
HETATM   17  N4  UNL     1      27.635   9.636  51.098  1.00  0.00    -0.225 NA
HETATM   18  H6  UNL     1      28.189   8.852  51.513  1.00  0.00     0.136 HD
HETATM   19  H7  UNL     1      26.751   9.762  51.628  1.00  0.00     0.136 HD
ENDBRANCH  14  17
ENDBRANCH  11  14
ENDBRANCH   6   8
ENDBRANCH   3   6
BRANCH   1  20
HETATM   20  N1  UNL     1      23.987   1.296  53.070  1.00  0.00    -0.231 N 
HETATM   21  H1  UNL     1      23.078   1.217  52.565  1.00  0.00     0.174 HD
HETATM   22  H2  UNL     1      24.040   1.046  54.096  1.00  0.00     0.174 HD
ENDBRANCH   1  20
BRANCH   5  23
HETATM   23  C9  UNL     1      26.895   0.893  53.411  1.00  0.00     0.229 A 
HETATM   24  C10 UNL     1      28.232   1.417  53.792  1.00  0.00     0.122 A 
HETATM   25  F1  UNL     1      28.098   2.750  54.090  1.00  0.00    -0.208 F 
HETATM   26  C11 UNL     1      29.421   0.881  53.890  1.00  0.00     0.040 A 
HETATM   27  C12 UNL     1      29.448  -0.534  53.554  1.00  0.00     0.002 A 
HETATM   28  C13 UNL     1      28.302  -1.083  53.203  1.00  0.00     0.012 A 
HETATM   29  C14 UNL     1      26.925  -0.559  53.070  1.00  0.00     0.225 A 
HETATM   30  F2  UNL     1      26.048  -1.262  53.883  1.00  0.00    -0.242 F 
ENDBRANCH   5  23
TORSDOF 6
ENDMDL
MODEL 2
REMARK VINA RESULT:      -8.5      1.681      2.187
REMARK  6 active torsions:
REMARK  status: ('A' for Active; 'I' for Inactive)
REMARK    1  A    between atoms: N1_1  and  C1_2 
REMARK    2  A    between atoms: C2_4  and  N3_5 
REMARK    3  A    between atoms: N3_5  and  C3_6 
REMARK    4  A    between atoms: C6_9  and  S1_10 
REMARK    5  A    between atoms: S1_10  and  N4_11 
REMARK    6  A    between atoms: N6_17  and  C9_18 
ROOT
HETATM    1  C1  UNL     1      24.430   0.184  52.987  1.00  0.00     0.733 A 
HETATM    2  N2  UNL     1      23.878   1.107  52.149  1.00  0.00     0.131 NA
HETATM    3  C2  UNL     1      24.876   1.746  51.495  1.00  0.00     0.760 A 
HETATM    4  N5  UNL     1      26.017   1.218  51.927  1.00  0.00     0.037 NA
HETATM    5  N6  UNL     1      25.760   0.281  52.822  1.00  0.00    -0.069 N 
ENDROOT
BRANCH   3   6
HETATM    6  N3  UNL     1      24.258   2.710  50.612  1.00  0.00    -0.186 N 
HETATM    7  H3  UNL     1      23.251   2.737  50.342  1.00  0.00     0.184 HD
BRANCH   6   8
HETATM    8  C3  UNL     1      25.143   3.711  50.062  1.00  0.00     0.049 A 
HETATM    9  C4  UNL     1      24.695   5.030  50.090  1.00  0.00     0.031 A 
HETATM   10  C5  UNL     1      25.515   6.016  49.528  1.00  0.00     0.027 A 
HETATM   11  C6  UNL     1      26.735   5.672  48.964  1.00  0.00     0.074 A 
HETATM   12  C7  UNL     1      27.171   4.347  48.944  1.00  0.00     0.027 A 
HETATM   13  C8  UNL     1      26.356   3.378  49.500  1.00  0.00     0.031 A 
BRANCH  11  14
HETATM   14  S1  UNL     1      27.726   6.901  48.269  1.00  0.00     0.239 S 
HETATM   15  O1  UNL     1      26.950   7.630  47.214  1.00  0.00    -0.206 OA
HETATM   16  O2  UNL     1      28.974   6.312  47.702  1.00  0.00    -0.206 OA
BRANCH  14  17
HETATM   17  N4  UNL     1      28.110   8.057  49.517  1.00  0.00    -0.225 NA
HETATM   18  H6  UNL     1      29.128   8.283  49.445  1.00  0.00     0.136 HD
HETATM   19  H7  UNL     1      27.904   7.652  50.450  1.00  0.00     0.136 HD
ENDBRANCH  14  17
ENDBRANCH  11  14
ENDBRANCH   6   8
ENDBRANCH   3   6
BRANCH   1  20
HETATM   20  N1  UNL     1      23.621  -0.665  53.845  1.00  0.00    -0.231 N 
HETATM   21  H1  UNL     1      22.613  -0.640  53.575  1.00  0.00     0.174 HD
HETATM   22  H2  UNL     1      23.931  -1.262  54.660  1.00  0.00     0.174 HD
ENDBRANCH   1  20
BRANCH   5  23
HETATM   23  C9  UNL     1      26.568  -0.631  53.617  1.00  0.00     0.229 A 
HETATM   24  C10 UNL     1      27.315   0.136  54.645  1.00  0.00     0.122 A 
HETATM   25  F1  UNL     1      26.404   0.805  55.424  1.00  0.00    -0.208 F 
HETATM   26  C11 UNL     1      28.585   0.278  54.925  1.00  0.00     0.040 A 
HETATM   27  C12 UNL     1      29.460  -0.475  54.040  1.00  0.00     0.002 A 
HETATM   28  C13 UNL     1      28.880  -1.187  53.095  1.00  0.00     0.012 A 
HETATM   29  C14 UNL     1      27.468  -1.406  52.713  1.00  0.00     0.225 A 
HETATM   30  F2  UNL     1      27.147  -2.754  52.755  1.00  0.00    -0.242 F 
ENDBRANCH   5  23
TORSDOF 6
ENDMDL
MODEL 3
REMARK VINA RESULT:      -7.4      2.220      2.749
REMARK  6 active torsions:
REMARK  status: ('A' for Active; 'I' for Inactive)
REMARK    1  A    between atoms: N1_1  and  C1_2 
REMARK    2  A    between atoms: C2_4  and  N3_5 
REMARK    3  A    between atoms: N3_5  and  C3_6 
REMARK    4  A    between atoms: C6_9  and  S1_10 
REMARK    5  A    between atoms: S1_10  and  N4_11 
REMARK    6  A    between atoms: N6_17  and  C9_18 
ROOT
HETATM    1  C1  UNL     1      24.014  -0.181  53.544  1.00  0.00     0.733 A 
HETATM    2  N2  UNL     1      23.209   0.605  52.772  1.00  0.00     0.131 NA
HETATM    3  C2  UNL     1      23.983   1.275  51.886  1.00  0.00     0.760 A 
HETATM    4  N5  UNL     1      25.238   0.901  52.115  1.00  0.00     0.037 NA
HETATM    5  N6  UNL     1      25.267   0.029  53.106  1.00  0.00    -0.069 N 
ENDROOT
BRANCH   3   6
HETATM    6  N3  UNL     1      23.101   2.089  51.081  1.00  0.00    -0.186 N 
HETATM    7  H3  UNL     1      22.144   1.826  50.762  1.00  0.00     0.184 HD
BRANCH   6   8
HETATM    8  C3  UNL     1      23.623   3.379  50.692  1.00  0.00     0.049 A 
HETATM    9  C4  UNL     1      24.307   3.443  49.480  1.00  0.00     0.031 A 
HETATM   10  C5  UNL     1      24.858   4.672  49.098  1.00  0.00     0.027 A 
HETATM   11  C6  UNL     1      24.717   5.785  49.915  1.00  0.00     0.074 A 
HETATM   12  C7  UNL     1      24.029   5.707  51.126  1.00  0.00     0.027 A 
HETATM   13  C8  UNL     1      23.488   4.490  51.497  1.00  0.00     0.031 A 
BRANCH  11  14
HETATM   14  S1  UNL     1      25.411   7.288  49.429  1.00  0.00     0.239 S 
HETATM   15  O1  UNL     1      26.904   7.157  49.387  1.00  0.00    -0.206 OA
HETATM   16  O2  UNL     1      24.997   8.381  50.357  1.00  0.00    -0.206 OA
BRANCH  14  17
HETATM   17  N4  UNL     1      24.877   7.631  47.805  1.00  0.00    -0.225 NA
HETATM   18  H6  UNL     1      25.392   8.476  47.468  1.00  0.00     0.136 HD
HETATM   19  H7  UNL     1      23.855   7.814  47.800  1.00  0.00     0.136 HD
ENDBRANCH  14  17
ENDBRANCH  11  14
ENDBRANCH   6   8
ENDBRANCH   3   6
BRANCH   1  20
HETATM   20  N1  UNL     1      23.487  -1.021  54.605  1.00  0.00    -0.231 N 
HETATM   21  H1  UNL     1      23.053  -0.457  55.367  1.00  0.00     0.174 HD
HETATM   22  H2  UNL     1      23.501  -2.076  54.676  1.00  0.00     0.174 HD
ENDBRANCH   1  20
BRANCH   5  23
HETATM   23  C9  UNL     1      26.311  -0.724  53.784  1.00  0.00     0.229 A 
HETATM   24  C10 UNL     1      27.053   0.174  54.704  1.00  0.00     0.122 A 
HETATM   25  F1  UNL     1      26.157   0.701  55.600  1.00  0.00    -0.208 F 
HETATM   26  C11 UNL     1      28.308   0.525  54.812  1.00  0.00     0.040 A 
HETATM   27  C12 UNL     1      29.170  -0.093  53.815  1.00  0.00     0.002 A 
HETATM   28  C13 UNL     1      28.593  -0.908  52.955  1.00  0.00     0.012 A 
HETATM   29  C14 UNL     1      27.198  -1.360  52.765  1.00  0.00     0.225 A 
HETATM   30  F2  UNL     1      27.110  -2.742  52.847  1.00  0.00    -0.242 F 
ENDBRANCH   5  23
TORSDOF 6
ENDMDL
MODEL 4
REMARK VINA RESULT:      -7.3      5.503      7.885
REMARK  6 active torsions:
REMARK  status: ('A' for Active; 'I' for Inactive)
REMARK    1  A    between atoms: N1_1  and  C1_2 
REMARK    2  A    between atoms: C2_4  and  N3_5 
REMARK    3  A    between atoms: N3_5  and  C3_6 
REMARK    4  A    between atoms: C6_9  and  S1_10 
REMARK    5  A    between atoms: S1_10  and  N4_11 
REMARK    6  A    between atoms: N6_17  and  C9_18 
ROOT
HETATM    1  C1  UNL     1      20.405   0.118  52.466  1.00  0.00     0.733 A 
HETATM    2  N2  UNL     1      21.356  -0.592  53.138  1.00  0.00     0.131 NA
HETATM    3  C2  UNL     1      22.574  -0.101  52.807  1.00  0.00     0.760 A 
HETATM    4  N5  UNL     1      22.366   0.893  51.948  1.00  0.00     0.037 NA
HETATM    5  N6  UNL     1      21.070   1.031  51.737  1.00  0.00    -0.069 N 
ENDROOT
BRANCH   3   6
HETATM    6  N3  UNL     1      23.556  -0.868  53.540  1.00  0.00    -0.186 N 
HETATM    7  H3  UNL     1      23.383  -1.766  54.042  1.00  0.00     0.184 HD
BRANCH   6   8
HETATM    8  C3  UNL     1      24.890  -0.312  53.568  1.00  0.00     0.049 A 
HETATM    9  C4  UNL     1      25.571  -0.370  54.781  1.00  0.00     0.031 A 
HETATM   10  C5  UNL     1      26.849   0.198  54.847  1.00  0.00     0.027 A 
HETATM   11  C6  UNL     1      27.406   0.797  53.726  1.00  0.00     0.074 A 
HETATM   12  C7  UNL     1      26.712   0.847  52.517  1.00  0.00     0.027 A 
HETATM   13  C8  UNL     1      25.450   0.285  52.459  1.00  0.00     0.031 A 
BRANCH  11  14
HETATM   14  S1  UNL     1      28.979   1.497  53.831  1.00  0.00     0.239 S 
HETATM   15  O1  UNL     1      29.294   1.801  55.265  1.00  0.00    -0.206 OA
HETATM   16  O2  UNL     1      29.063   2.730  52.994  1.00  0.00    -0.206 OA
BRANCH  14  17
HETATM   17  N4  UNL     1      30.137   0.312  53.289  1.00  0.00    -0.225 NA
HETATM   18  H6  UNL     1      30.892   0.813  52.769  1.00  0.00     0.136 HD
HETATM   19  H7  UNL     1      29.674  -0.376  52.665  1.00  0.00     0.136 HD
ENDBRANCH  14  17
ENDBRANCH  11  14
ENDBRANCH   6   8
ENDBRANCH   3   6
BRANCH   1  20
HETATM   20  N1  UNL     1      18.988  -0.172  52.596  1.00  0.00    -0.231 N 
HETATM   21  H1  UNL     1      18.762  -0.595  53.522  1.00  0.00     0.174 HD
HETATM   22  H2  UNL     1      18.216  -0.009  51.892  1.00  0.00     0.174 HD
ENDBRANCH   1  20
BRANCH   5  23
HETATM   23  C9  UNL     1      20.247   1.925  50.936  1.00  0.00     0.229 A 
HETATM   24  C10 UNL     1      20.874   2.112  49.603  1.00  0.00     0.122 A 
HETATM   25  F1  UNL     1      20.994   0.880  49.011  1.00  0.00    -0.208 F 
HETATM   26  C11 UNL     1      21.296   3.157  48.939  1.00  0.00     0.040 A 
HETATM   27  C12 UNL     1      21.119   4.410  49.657  1.00  0.00     0.002 A 
HETATM   28  C13 UNL     1      20.568   4.337  50.852  1.00  0.00     0.012 A 
HETATM   29  C14 UNL     1      20.063   3.212  51.669  1.00  0.00     0.225 A 
HETATM   30  F2  UNL     1      18.726   3.395  51.990  1.00  0.00    -0.242 F 
ENDBRANCH   5  23
TORSDOF 6
ENDMDL
MODEL 5
REMARK VINA RESULT:      -7.3      4.381      5.368
REMARK  6 active torsions:
REMARK  status: ('A' for Active; 'I' for Inactive)
REMARK    1  A    between atoms: N1_1  and  C1_2 
REMARK    2  A    between atoms: C2_4  and  N3_5 
REMARK    3  A    between atoms: N3_5  and  C3_6 
REMARK    4  A    between atoms: C6_9  and  S1_10 
REMARK    5  A    between atoms: S1_10  and  N4_11 
REMARK    6  A    between atoms: N6_17  and  C9_18 
ROOT
HETATM    1  C1  UNL     1      23.789   5.261  51.586  1.00  0.00     0.733 A 
HETATM    2  N2  UNL     1      24.423   6.121  50.738  1.00  0.00     0.131 NA
HETATM    3  C2  UNL     1      24.238   5.690  49.469  1.00  0.00     0.760 A 
HETATM    4  N5  UNL     1      23.500   4.586  49.543  1.00  0.00     0.037 NA
HETATM    5  N6  UNL     1      23.226   4.321  50.807  1.00  0.00    -0.069 N 
ENDROOT
BRANCH   3   6
HETATM    6  N3  UNL     1      24.915   6.625  48.598  1.00  0.00    -0.186 N 
HETATM    7  H3  UNL     1      24.462   7.379  48.038  1.00  0.00     0.184 HD
BRANCH   6   8
HETATM    8  C3  UNL     1      26.349   6.473  48.511  1.00  0.00     0.049 A 
HETATM    9  C4  UNL     1      26.852   5.178  48.616  1.00  0.00     0.031 A 
HETATM   10  C5  UNL     1      28.241   5.006  48.575  1.00  0.00     0.027 A 
HETATM   11  C6  UNL     1      29.077   6.104  48.434  1.00  0.00     0.074 A 
HETATM   12  C7  UNL     1      28.559   7.395  48.328  1.00  0.00     0.027 A 
HETATM   13  C8  UNL     1      27.186   7.558  48.370  1.00  0.00     0.031 A 
BRANCH  11  14
HETATM   14  S1  UNL     1      30.786   5.870  48.394  1.00  0.00     0.239 S 
HETATM   15  O1  UNL     1      31.454   7.147  47.978  1.00  0.00    -0.206 OA
HETATM   16  O2  UNL     1      31.142   4.756  47.467  1.00  0.00    -0.206 OA
BRANCH  14  17
HETATM   17  N4  UNL     1      31.322   5.512  50.013  1.00  0.00    -0.225 NA
HETATM   18  H6  UNL     1      30.717   4.747  50.391  1.00  0.00     0.136 HD
HETATM   19  H7  UNL     1      31.237   6.357  50.610  1.00  0.00     0.136 HD
ENDBRANCH  14  17
ENDBRANCH  11  14
ENDBRANCH   6   8
ENDBRANCH   3   6
BRANCH   1  20
HETATM   20  N1  UNL     1      23.808   5.440  53.027  1.00  0.00    -0.231 N 
HETATM   21  H1  UNL     1      23.194   4.749  53.511  1.00  0.00     0.174 HD
HETATM   22  H2  UNL     1      24.344   6.153  53.594  1.00  0.00     0.174 HD
ENDBRANCH   1  20
BRANCH   5  23
HETATM   23  C9  UNL     1      22.473   3.288  51.502  1.00  0.00     0.229 A 
HETATM   24  C10 UNL     1      22.744   1.970  50.874  1.00  0.00     0.122 A 
HETATM   25  F1  UNL     1      24.094   1.735  50.944  1.00  0.00    -0.208 F 
HETATM   26  C11 UNL     1      21.989   1.061  50.314  1.00  0.00     0.040 A 
HETATM   27  C12 UNL     1      20.577   1.411  50.296  1.00  0.00     0.002 A 
HETATM   28  C13 UNL     1      20.245   2.568  50.834  1.00  0.00     0.012 A 
HETATM   29  C14 UNL     1      21.023   3.643  51.486  1.00  0.00     0.225 A 
HETATM   30  F2  UNL     1      20.569   3.869  52.777  1.00  0.00    -0.242 F 
ENDBRANCH   5  23
TORSDOF 6
ENDMDL
MODEL 6
REMARK VINA RESULT:      -7.2      2.595      3.409
REMARK  6 active torsions:
REMARK  status: ('A' for Active; 'I' for Inactive)
REMARK    1  A    between atoms: N1_1  and  C1_2 
REMARK    2  A    between atoms: C2_4  and  N3_5 
REMARK    3  A    between atoms: N3_5  and  C3_6 
REMARK    4  A    between atoms: C6_9  and  S1_10 
REMARK    5  A    between atoms: S1_10  and  N4_11 
REMARK    6  A    between atoms: N6_17  and  C9_18 
ROOT
HETATM    1  C1  UNL     1      23.882   4.470  52.135  1.00  0.00     0.733 A 
HETATM    2  N2  UNL     1      24.142   5.118  50.964  1.00  0.00     0.131 NA
HETATM    3  C2  UNL     1      24.771   4.260  50.127  1.00  0.00     0.760 A 
HETATM    4  N5  UNL     1      24.890   3.107  50.779  1.00  0.00     0.037 NA
HETATM    5  N6  UNL     1      24.361   3.223  51.983  1.00  0.00    -0.069 N 
ENDROOT
BRANCH   3   6
HETATM    6  N3  UNL     1      25.024   4.974  48.895  1.00  0.00    -0.186 N 
HETATM    7  H3  UNL     1      24.349   5.100  48.110  1.00  0.00     0.184 HD
BRANCH   6   8
HETATM    8  C3  UNL     1      26.343   5.549  48.766  1.00  0.00     0.049 A 
HETATM    9  C4  UNL     1      26.423   6.940  48.737  1.00  0.00     0.031 A 
HETATM   10  C5  UNL     1      27.685   7.523  48.572  1.00  0.00     0.027 A 
HETATM   11  C6  UNL     1      28.812   6.726  48.443  1.00  0.00     0.074 A 
HETATM   12  C7  UNL     1      28.717   5.334  48.475  1.00  0.00     0.027 A 
HETATM   13  C8  UNL     1      27.468   4.764  48.637  1.00  0.00     0.031 A 
BRANCH  11  14
HETATM   14  S1  UNL     1      30.356   7.466  48.233  1.00  0.00     0.239 S 
HETATM   15  O1  UNL     1      31.429   6.509  48.657  1.00  0.00    -0.206 OA
HETATM   16  O2  UNL     1      30.439   8.738  49.009  1.00  0.00    -0.206 OA
BRANCH  14  17
HETATM   17  N4  UNL     1      30.583   7.774  46.532  1.00  0.00    -0.225 NA
HETATM   18  H6  UNL     1      31.283   8.544  46.434  1.00  0.00     0.136 HD
HETATM   19  H7  UNL     1      29.683   8.058  46.101  1.00  0.00     0.136 HD
ENDBRANCH  14  17
ENDBRANCH  11  14
ENDBRANCH   6   8
ENDBRANCH   3   6
BRANCH   1  20
HETATM   20  N1  UNL     1      23.221   5.123  53.251  1.00  0.00    -0.231 N 
HETATM   21  H1  UNL     1      22.307   4.674  53.478  1.00  0.00     0.174 HD
HETATM   22  H2  UNL     1      23.551   5.954  53.816  1.00  0.00     0.174 HD
ENDBRANCH   1  20
BRANCH   5  23
HETATM   23  C9  UNL     1      24.182   2.331  53.119  1.00  0.00     0.229 A 
HETATM   24  C10 UNL     1      25.494   1.756  53.508  1.00  0.00     0.122 A 
HETATM   25  F1  UNL     1      26.340   2.792  53.815  1.00  0.00    -0.208 F 
HETATM   26  C11 UNL     1      25.955   0.536  53.607  1.00  0.00     0.040 A 
HETATM   27  C12 UNL     1      24.976  -0.483  53.261  1.00  0.00     0.002 A 
HETATM   28  C13 UNL     1      23.780  -0.061  52.902  1.00  0.00     0.012 A 
HETATM   29  C14 UNL     1      23.179   1.283  52.767  1.00  0.00     0.225 A 
HETATM   30  F2  UNL     1      22.055   1.405  53.571  1.00  0.00    -0.242 F 
ENDBRANCH   5  23
TORSDOF 6
ENDMDL
MODEL 7
REMARK VINA RESULT:      -7.0      4.188      4.814
REMARK  6 active torsions:
REMARK  status: ('A' for Active; 'I' for Inactive)
REMARK    1  A    between atoms: N1_1  and  C1_2 
REMARK    2  A    between atoms: C2_4  and  N3_5 
REMARK    3  A    between atoms: N3_5  and  C3_6 
REMARK    4  A    between atoms: C6_9  and  S1_10 
REMARK    5  A    between atoms: S1_10  and  N4_11 
REMARK    6  A    between atoms: N6_17  and  C9_18 
ROOT
HETATM    1  C1  UNL     1      23.942   0.513  53.195  1.00  0.00     0.733 A 
HETATM    2  N2  UNL     1      23.348   1.687  52.839  1.00  0.00     0.131 NA
HETATM    3  C2  UNL     1      24.296   2.653  52.794  1.00  0.00     0.760 A 
HETATM    4  N5  UNL     1      25.449   2.073  53.115  1.00  0.00     0.037 NA
HETATM    5  N6  UNL     1      25.247   0.791  53.358  1.00  0.00    -0.069 N 
ENDROOT
BRANCH   3   6
HETATM    6  N3  UNL     1      23.636   3.880  52.408  1.00  0.00    -0.186 N 
HETATM    7  H3  UNL     1      23.546   4.739  52.993  1.00  0.00     0.184 HD
BRANCH   6   8
HETATM    8  C3  UNL     1      23.053   3.887  51.086  1.00  0.00     0.049 A 
HETATM    9  C4  UNL     1      21.700   4.205  50.996  1.00  0.00     0.031 A 
HETATM   10  C5  UNL     1      21.100   4.180  49.732  1.00  0.00     0.027 A 
HETATM   11  C6  UNL     1      21.845   3.845  48.611  1.00  0.00     0.074 A 
HETATM   12  C7  UNL     1      23.200   3.530  48.715  1.00  0.00     0.027 A 
HETATM   13  C8  UNL     1      23.787   3.556  49.967  1.00  0.00     0.031 A 
BRANCH  11  14
HETATM   14  S1  UNL     1      21.084   3.813  47.063  1.00  0.00     0.239 S 
HETATM   15  O1  UNL     1      19.867   2.938  47.125  1.00  0.00    -0.206 OA
HETATM   16  O2  UNL     1      22.035   3.329  46.020  1.00  0.00    -0.206 OA
BRANCH  14  17
HETATM   17  N4  UNL     1      20.540   5.427  46.693  1.00  0.00    -0.225 NA
HETATM   18  H6  UNL     1      19.548   5.367  46.369  1.00  0.00     0.136 HD
HETATM   19  H7  UNL     1      21.131   5.837  45.944  1.00  0.00     0.136 HD
ENDBRANCH  14  17
ENDBRANCH  11  14
ENDBRANCH   6   8
ENDBRANCH   3   6
BRANCH   1  20
HETATM   20  N1  UNL     1      23.190  -0.721  53.344  1.00  0.00    -0.231 N 
HETATM   21  H1  UNL     1      23.575  -1.484  52.745  1.00  0.00     0.174 HD
HETATM   22  H2  UNL     1      22.349  -0.908  53.956  1.00  0.00     0.174 HD
ENDBRANCH   1  20
BRANCH   5  23
HETATM   23  C9  UNL     1      26.095  -0.331  53.731  1.00  0.00     0.229 A 
HETATM   24  C10 UNL     1      26.977   0.068  54.856  1.00  0.00     0.122 A 
HETATM   25  F1  UNL     1      26.182   0.462  55.902  1.00  0.00    -0.208 F 
HETATM   26  C11 UNL     1      28.274   0.105  55.021  1.00  0.00     0.040 A 
HETATM   27  C12 UNL     1      29.020  -0.336  53.852  1.00  0.00     0.002 A 
HETATM   28  C13 UNL     1      28.314  -0.709  52.803  1.00  0.00     0.012 A 
HETATM   29  C14 UNL     1      26.862  -0.787  52.534  1.00  0.00     0.225 A 
HETATM   30  F2  UNL     1      26.491  -2.078  52.188  1.00  0.00    -0.242 F 
ENDBRANCH   5  23
TORSDOF 6
ENDMDL
MODEL 8
REMARK VINA RESULT:      -6.9      6.721      8.189
REMARK  6 active torsions:
REMARK  status: ('A' for Active; 'I' for Inactive)
REMARK    1  A    between atoms: N1_1  and  C1_2 
REMARK    2  A    between atoms: C2_4  and  N3_5 
REMARK    3  A    between atoms: N3_5  and  C3_6 
REMARK    4  A    between atoms: C6_9  and  S1_10 
REMARK    5  A    between atoms: S1_10  and  N4_11 
REMARK    6  A    between atoms: N6_17  and  C9_18 
ROOT
HETATM    1  C1  UNL     1      21.933   0.044  53.314  1.00  0.00     0.733 A 
HETATM    2  N2  UNL     1      20.859   0.018  52.475  1.00  0.00     0.131 NA
HETATM    3  C2  UNL     1      21.208   0.607  51.308  1.00  0.00     0.760 A 
HETATM    4  N5  UNL     1      22.477   0.984  51.434  1.00  0.00     0.037 NA
HETATM    5  N6  UNL     1      22.920   0.652  52.633  1.00  0.00    -0.069 N 
ENDROOT
BRANCH   3   6
HETATM    6  N3  UNL     1      20.052   0.556  50.441  1.00  0.00    -0.186 N 
HETATM    7  H3  UNL     1      20.005   0.088  49.510  1.00  0.00     0.184 HD
BRANCH   6   8
HETATM    8  C3  UNL     1      18.871   1.227  50.933  1.00  0.00     0.049 A 
HETATM    9  C4  UNL     1      17.746   0.437  51.157  1.00  0.00     0.031 A 
HETATM   10  C5  UNL     1      16.575   1.068  51.596  1.00  0.00     0.027 A 
HETATM   11  C6  UNL     1      16.554   2.440  51.797  1.00  0.00     0.074 A 
HETATM   12  C7  UNL     1      17.689   3.218  51.570  1.00  0.00     0.027 A 
HETATM   13  C8  UNL     1      18.842   2.589  51.136  1.00  0.00     0.031 A 
BRANCH  11  14
HETATM   14  S1  UNL     1      15.099   3.198  52.331  1.00  0.00     0.239 S 
HETATM   15  O1  UNL     1      14.249   2.193  53.049  1.00  0.00    -0.206 OA
HETATM   16  O2  UNL     1      14.362   3.792  51.177  1.00  0.00    -0.206 OA
BRANCH  14  17
HETATM   17  N4  UNL     1      15.523   4.433  53.486  1.00  0.00    -0.225 NA
HETATM   18  H6  UNL     1      16.423   4.867  53.177  1.00  0.00     0.136 HD
HETATM   19  H7  UNL     1      15.639   4.012  54.428  1.00  0.00     0.136 HD
ENDBRANCH  14  17
ENDBRANCH  11  14
ENDBRANCH   6   8
ENDBRANCH   3   6
BRANCH   1  20
HETATM   20  N1  UNL     1      21.880  -0.504  54.658  1.00  0.00    -0.231 N 
HETATM   21  H1  UNL     1      20.925  -0.422  55.072  1.00  0.00     0.174 HD
HETATM   22  H2  UNL     1      22.659  -0.945  55.220  1.00  0.00     0.174 HD
ENDBRANCH   1  20
BRANCH   5  23
HETATM   23  C9  UNL     1      24.188   0.783  53.334  1.00  0.00     0.229 A 
HETATM   24  C10 UNL     1      24.862   2.035  52.908  1.00  0.00     0.122 A 
HETATM   25  F1  UNL     1      24.026   3.087  53.188  1.00  0.00    -0.208 F 
HETATM   26  C11 UNL     1      26.020   2.300  52.360  1.00  0.00     0.040 A 
HETATM   27  C12 UNL     1      26.826   1.115  52.109  1.00  0.00     0.002 A 
HETATM   28  C13 UNL     1      26.304  -0.044  52.457  1.00  0.00     0.012 A 
HETATM   29  C14 UNL     1      25.019  -0.430  53.079  1.00  0.00     0.225 A 
HETATM   30  F2  UNL     1      25.230  -1.125  54.261  1.00  0.00    -0.242 F 
ENDBRANCH   5  23
TORSDOF 6
ENDMDL
MODEL 9
REMARK VINA RESULT:      -6.9      4.989      7.994
REMARK  6 active torsions:
REMARK  status: ('A' for Active; 'I' for Inactive)
REMARK    1  A    between atoms: N1_1  and  C1_2 
REMARK    2  A    between atoms: C2_4  and  N3_5 
REMARK    3  A    between atoms: N3_5  and  C3_6 
REMARK    4  A    between atoms: C6_9  and  S1_10 
REMARK    5  A    between atoms: S1_10  and  N4_11 
REMARK    6  A    between atoms: N6_17  and  C9_18 
ROOT
HETATM    1  C1  UNL     1      28.428   8.470  49.285  1.00  0.00     0.733 A 
HETATM    2  N2  UNL     1      27.201   7.877  49.267  1.00  0.00     0.131 NA
HETATM    3  C2  UNL     1      27.230   6.854  48.381  1.00  0.00     0.760 A 
HETATM    4  N5  UNL     1      28.457   6.826  47.869  1.00  0.00     0.037 NA
HETATM    5  N6  UNL     1      29.183   7.791  48.405  1.00  0.00    -0.069 N 
ENDROOT
BRANCH   3   6
HETATM    6  N3  UNL     1      25.920   6.243  48.391  1.00  0.00    -0.186 N 
HETATM    7  H3  UNL     1      25.097   6.547  47.827  1.00  0.00     0.184 HD
BRANCH   6   8
HETATM    8  C3  UNL     1      25.765   5.112  49.278  1.00  0.00     0.049 A 
HETATM    9  C4  UNL     1      24.674   5.136  50.144  1.00  0.00     0.031 A 
HETATM   10  C5  UNL     1      24.522   4.073  51.041  1.00  0.00     0.027 A 
HETATM   11  C6  UNL     1      25.441   3.034  51.056  1.00  0.00     0.074 A 
HETATM   12  C7  UNL     1      26.529   3.022  50.182  1.00  0.00     0.027 A 
HETATM   13  C8  UNL     1      26.673   4.076  49.298  1.00  0.00     0.031 A 
BRANCH  11  14
HETATM   14  S1  UNL     1      25.239   1.737  52.176  1.00  0.00     0.239 S 
HETATM   15  O1  UNL     1      23.920   1.068  51.930  1.00  0.00    -0.206 OA
HETATM   16  O2  UNL     1      25.331   2.236  53.579  1.00  0.00    -0.206 OA
BRANCH  14  17
HETATM   17  N4  UNL     1      26.483   0.555  51.866  1.00  0.00    -0.225 NA
HETATM   18  H6  UNL     1      26.015  -0.348  51.622  1.00  0.00     0.136 HD
HETATM   19  H7  UNL     1      27.071   0.431  52.712  1.00  0.00     0.136 HD
ENDBRANCH  14  17
ENDBRANCH  11  14
ENDBRANCH   6   8
ENDBRANCH   3   6
BRANCH   1  20
HETATM   20  N1  UNL     1      28.722   9.615  50.131  1.00  0.00    -0.231 N 
HETATM   21  H1  UNL     1      27.902   9.884  50.717  1.00  0.00     0.174 HD
HETATM   22  H2  UNL     1      29.622  10.164  50.204  1.00  0.00     0.174 HD
ENDBRANCH   1  20
BRANCH   5  23
HETATM   23  C9  UNL     1      30.558   8.244  48.263  1.00  0.00     0.229 A 
HETATM   24  C10 UNL     1      30.978   8.114  46.845  1.00  0.00     0.122 A 
HETATM   25  F1  UNL     1      30.124   8.863  46.076  1.00  0.00    -0.208 F 
HETATM   26  C11 UNL     1      31.942   7.468  46.241  1.00  0.00     0.040 A 
HETATM   27  C12 UNL     1      32.788   6.709  47.150  1.00  0.00     0.002 A 
HETATM   28  C13 UNL     1      32.486   6.767  48.431  1.00  0.00     0.012 A 
HETATM   29  C14 UNL     1      31.429   7.467  49.193  1.00  0.00     0.225 A 
HETATM   30  F2  UNL     1      31.982   8.308  50.148  1.00  0.00    -0.242 F 
ENDBRANCH   5  23
TORSDOF 6
ENDMDL
