MODEL 1
REMARK VINA RESULT:      -8.9      0.000      0.000
REMARK  5 active torsions:
REMARK  status: ('A' for Active; 'I' for Inactive)
REMARK    1  A    between atoms: C5_5  and  C6_6 
REMARK    2  A    between atoms: C6_6  and  N1_7 
REMARK    3  A    between atoms: N1_7  and  C7_8 
REMARK    4  A    between atoms: C12_15  and  N4_16 
REMARK    5  A    between atoms: N4_16  and  C13_17 
ROOT
HETATM    1  C7  UNL     1      24.581  -0.697  54.498  1.00  0.00     0.029 A 
HETATM    2  C8  UNL     1      23.656  -1.330  55.320  1.00  0.00     0.031 A 
HETATM    3  C9  UNL     1      22.312  -1.279  55.032  1.00  0.00     0.035 A 
HETATM    4  C10 UNL     1      21.843  -0.602  53.926  1.00  0.00     0.072 A 
HETATM    5  N2  UNL     1      20.531  -0.622  53.748  1.00  0.00    -0.241 NA
HETATM    6  C11 UNL     1      20.025   0.026  52.673  1.00  0.00     0.236 A 
HETATM    7  N3  UNL     1      20.860   0.665  51.830  1.00  0.00    -0.224 NA
HETATM    8  C12 UNL     1      22.193   0.686  52.010  1.00  0.00     0.142 A 
HETATM    9  C19 UNL     1      22.751   0.037  53.093  1.00  0.00     0.041 A 
HETATM   10  C20 UNL     1      24.108  -0.015  53.384  1.00  0.00     0.046 A 
ENDROOT
BRANCH   8  11
HETATM   11  N4  UNL     1      23.110   1.344  51.139  1.00  0.00    -0.340 N 
HETATM   12  H14 UNL     1      23.555   0.714  50.456  1.00  0.00     0.167 HD
BRANCH  11  13
HETATM   13  C13 UNL     1      23.414   2.755  51.183  1.00  0.00     0.035 A 
HETATM   14  C14 UNL     1      22.764   3.632  52.026  1.00  0.00     0.029 A 
HETATM   15  C15 UNL     1      23.147   4.965  51.986  1.00  0.00     0.004 A 
HETATM   16  C16 UNL     1      24.144   5.413  51.133  1.00  0.00     0.019 A 
HETATM   17  C17 UNL     1      24.768   4.486  50.301  1.00  0.00     0.013 A 
HETATM   18 BR1  UNL     1      26.130   5.203  49.166  1.00  0.00    -0.051 Br
HETATM   19  C18 UNL     1      24.417   3.147  50.310  1.00  0.00     0.048 A 
ENDBRANCH  11  13
ENDBRANCH   8  11
BRANCH   1  20
HETATM   20  N1  UNL     1      26.000  -0.667  54.669  1.00  0.00    -0.389 N 
HETATM   21  H10 UNL     1      26.305  -1.378  55.378  1.00  0.00     0.159 HD
BRANCH  20  22
HETATM   22  C6  UNL     1      26.922   0.190  53.998  1.00  0.00     0.129 C 
BRANCH  22  23
HETATM   23  C5  UNL     1      28.314  -0.079  54.564  1.00  0.00     0.035 A 
HETATM   24  C2  UNL     1      29.126  -0.923  53.697  1.00  0.00    -0.082 A 
HETATM   25  C1  UNL     1      29.087  -2.350  53.223  1.00  0.00     0.043 C 
HETATM   26  C3  UNL     1      29.968   0.024  53.440  1.00  0.00    -0.023 A 
HETATM   27  C4  UNL     1      29.279   0.996  54.264  1.00  0.00     0.038 A 
ENDBRANCH  22  23
ENDBRANCH  20  22
ENDBRANCH   1  20
TORSDOF 5
ENDMDL
MODEL 2
REMARK VINA RESULT:      -8.9      1.563      2.575
REMARK  5 active torsions:
REMARK  status: ('A' for Active; 'I' for Inactive)
REMARK    1  A    between atoms: C5_5  and  C6_6 
REMARK    2  A    between atoms: C6_6  and  N1_7 
REMARK    3  A    between atoms: N1_7  and  C7_8 
REMARK    4  A    between atoms: C12_15  and  N4_16 
REMARK    5  A    between atoms: N4_16  and  C13_17 
ROOT
HETATM    1  C7  UNL     1      24.137  -0.191  53.368  1.00  0.00     0.029 A 
HETATM    2  C8  UNL     1      22.895  -0.817  53.355  1.00  0.00     0.031 A 
HETATM    3  C9  UNL     1      21.761  -0.116  53.016  1.00  0.00     0.035 A 
HETATM    4  C10 UNL     1      21.819   1.220  52.679  1.00  0.00     0.072 A 
HETATM    5  N2  UNL     1      20.665   1.789  52.368  1.00  0.00    -0.241 NA
HETATM    6  C11 UNL     1      20.673   3.099  52.028  1.00  0.00     0.236 A 
HETATM    7  N3  UNL     1      21.840   3.774  52.018  1.00  0.00    -0.224 NA
HETATM    8  C12 UNL     1      23.013   3.196  52.334  1.00  0.00     0.142 A 
HETATM    9  C19 UNL     1      23.049   1.863  52.687  1.00  0.00     0.041 A 
HETATM   10  C20 UNL     1      24.195   1.156  53.029  1.00  0.00     0.046 A 
ENDROOT
BRANCH   8  11
HETATM   11  N4  UNL     1      24.268   3.873  52.331  1.00  0.00    -0.340 N 
HETATM   12  H14 UNL     1      24.561   4.202  53.262  1.00  0.00     0.167 HD
BRANCH  11  13
HETATM   13  C13 UNL     1      25.075   4.097  51.154  1.00  0.00     0.035 A 
HETATM   14  C14 UNL     1      26.023   3.195  50.717  1.00  0.00     0.029 A 
HETATM   15  C15 UNL     1      26.732   3.515  49.568  1.00  0.00     0.004 A 
HETATM   16  C16 UNL     1      26.507   4.694  48.876  1.00  0.00     0.019 A 
HETATM   17  C17 UNL     1      25.539   5.571  49.359  1.00  0.00     0.013 A 
HETATM   18 BR1  UNL     1      25.303   7.166  48.333  1.00  0.00    -0.051 Br
HETATM   19  C18 UNL     1      24.808   5.291  50.502  1.00  0.00     0.048 A 
ENDBRANCH  11  13
ENDBRANCH   8  11
BRANCH   1  20
HETATM   20  N1  UNL     1      25.393  -0.787  53.695  1.00  0.00    -0.389 N 
HETATM   21  H10 UNL     1      25.391  -1.812  53.467  1.00  0.00     0.159 HD
BRANCH  20  22
HETATM   22  C6  UNL     1      26.528  -0.131  54.258  1.00  0.00     0.129 C 
BRANCH  22  23
HETATM   23  C5  UNL     1      27.604  -0.040  53.178  1.00  0.00     0.035 A 
HETATM   24  C2  UNL     1      28.616   0.966  53.470  1.00  0.00    -0.082 A 
HETATM   25  C1  UNL     1      28.658   2.466  53.582  1.00  0.00     0.043 C 
HETATM   26  C3  UNL     1      29.554   0.088  53.614  1.00  0.00    -0.023 A 
HETATM   27  C4  UNL     1      28.679  -1.036  53.347  1.00  0.00     0.038 A 
ENDBRANCH  22  23
ENDBRANCH  20  22
ENDBRANCH   1  20
TORSDOF 5
ENDMDL
MODEL 3
REMARK VINA RESULT:      -8.7      2.107      5.748
REMARK  5 active torsions:
REMARK  status: ('A' for Active; 'I' for Inactive)
REMARK    1  A    between atoms: C5_5  and  C6_6 
REMARK    2  A    between atoms: C6_6  and  N1_7 
REMARK    3  A    between atoms: N1_7  and  C7_8 
REMARK    4  A    between atoms: C12_15  and  N4_16 
REMARK    5  A    between atoms: N4_16  and  C13_17 
ROOT
HETATM    1  C7  UNL     1      24.548  -0.369  53.546  1.00  0.00     0.029 A 
HETATM    2  C8  UNL     1      25.130  -0.553  54.795  1.00  0.00     0.031 A 
HETATM    3  C9  UNL     1      26.321   0.060  55.109  1.00  0.00     0.035 A 
HETATM    4  C10 UNL     1      26.971   0.870  54.202  1.00  0.00     0.072 A 
HETATM    5  N2  UNL     1      28.108   1.408  54.616  1.00  0.00    -0.241 NA
HETATM    6  C11 UNL     1      28.779   2.213  53.759  1.00  0.00     0.236 A 
HETATM    7  N3  UNL     1      28.277   2.439  52.529  1.00  0.00    -0.224 NA
HETATM    8  C12 UNL     1      27.122   1.892  52.108  1.00  0.00     0.142 A 
HETATM    9  C19 UNL     1      26.405   1.065  52.949  1.00  0.00     0.041 A 
HETATM   10  C20 UNL     1      25.203   0.447  52.631  1.00  0.00     0.046 A 
ENDROOT
BRANCH   8  11
HETATM   11  N4  UNL     1      26.555   2.110  50.818  1.00  0.00    -0.340 N 
HETATM   12  H14 UNL     1      26.465   1.251  50.257  1.00  0.00     0.167 HD
BRANCH  11  13
HETATM   13  C13 UNL     1      26.136   3.397  50.313  1.00  0.00     0.035 A 
HETATM   14  C14 UNL     1      26.853   4.095  49.364  1.00  0.00     0.029 A 
HETATM   15  C15 UNL     1      26.348   5.319  48.948  1.00  0.00     0.004 A 
HETATM   16  C16 UNL     1      25.166   5.832  49.461  1.00  0.00     0.019 A 
HETATM   17  C17 UNL     1      24.481   5.088  50.418  1.00  0.00     0.013 A 
HETATM   18 BR1  UNL     1      22.865   5.881  51.058  1.00  0.00    -0.051 Br
HETATM   19  C18 UNL     1      24.950   3.862  50.860  1.00  0.00     0.048 A 
ENDBRANCH  11  13
ENDBRANCH   8  11
BRANCH   1  20
HETATM   20  N1  UNL     1      23.321  -0.935  53.081  1.00  0.00    -0.389 N 
HETATM   21  H10 UNL     1      23.503  -1.750  52.446  1.00  0.00     0.159 HD
BRANCH  20  22
HETATM   22  C6  UNL     1      22.003  -0.494  53.402  1.00  0.00     0.129 C 
BRANCH  22  23
HETATM   23  C5  UNL     1      21.504   0.377  52.250  1.00  0.00     0.035 A 
HETATM   24  C2  UNL     1      20.075   0.647  52.322  1.00  0.00    -0.082 A 
HETATM   25  C1  UNL     1      18.809  -0.159  52.207  1.00  0.00     0.043 C 
HETATM   26  C3  UNL     1      20.248   1.911  52.531  1.00  0.00    -0.023 A 
HETATM   27  C4  UNL     1      21.693   1.820  52.492  1.00  0.00     0.038 A 
ENDBRANCH  22  23
ENDBRANCH  20  22
ENDBRANCH   1  20
TORSDOF 5
ENDMDL
MODEL 4
REMARK VINA RESULT:      -8.6      2.399      3.610
REMARK  5 active torsions:
REMARK  status: ('A' for Active; 'I' for Inactive)
REMARK    1  A    between atoms: C5_5  and  C6_6 
REMARK    2  A    between atoms: C6_6  and  N1_7 
REMARK    3  A    between atoms: N1_7  and  C7_8 
REMARK    4  A    between atoms: C12_15  and  N4_16 
REMARK    5  A    between atoms: N4_16  and  C13_17 
ROOT
HETATM    1  C7  UNL     1      25.543   1.735  53.151  1.00  0.00     0.029 A 
HETATM    2  C8  UNL     1      24.287   1.197  53.406  1.00  0.00     0.031 A 
HETATM    3  C9  UNL     1      23.281   1.291  52.472  1.00  0.00     0.035 A 
HETATM    4  C10 UNL     1      23.486   1.918  51.261  1.00  0.00     0.072 A 
HETATM    5  N2  UNL     1      22.448   1.946  50.439  1.00  0.00    -0.241 NA
HETATM    6  C11 UNL     1      22.604   2.548  49.238  1.00  0.00     0.236 A 
HETATM    7  N3  UNL     1      23.794   3.095  48.919  1.00  0.00    -0.224 NA
HETATM    8  C12 UNL     1      24.849   3.066  49.753  1.00  0.00     0.142 A 
HETATM    9  C19 UNL     1      24.734   2.462  50.988  1.00  0.00     0.041 A 
HETATM   10  C20 UNL     1      25.749   2.367  51.931  1.00  0.00     0.046 A 
ENDROOT
BRANCH   8  11
HETATM   11  N4  UNL     1      26.125   3.627  49.451  1.00  0.00    -0.340 N 
HETATM   12  H14 UNL     1      26.866   2.922  49.327  1.00  0.00     0.167 HD
BRANCH  11  13
HETATM   13  C13 UNL     1      26.390   5.041  49.325  1.00  0.00     0.035 A 
HETATM   14  C14 UNL     1      25.619   6.003  49.944  1.00  0.00     0.029 A 
HETATM   15  C15 UNL     1      25.976   7.331  49.758  1.00  0.00     0.004 A 
HETATM   16  C16 UNL     1      27.065   7.691  48.979  1.00  0.00     0.019 A 
HETATM   17  C17 UNL     1      27.811   6.681  48.376  1.00  0.00     0.013 A 
HETATM   18 BR1  UNL     1      29.292   7.282  47.328  1.00  0.00    -0.051 Br
HETATM   19  C18 UNL     1      27.490   5.344  48.537  1.00  0.00     0.048 A 
ENDBRANCH  11  13
ENDBRANCH   8  11
BRANCH   1  20
HETATM   20  N1  UNL     1      26.677   1.711  54.020  1.00  0.00    -0.389 N 
HETATM   21  H10 UNL     1      26.410   2.005  54.991  1.00  0.00     0.159 HD
BRANCH  20  22
HETATM   22  C6  UNL     1      28.012   1.349  53.670  1.00  0.00     0.129 C 
BRANCH  22  23
HETATM   23  C5  UNL     1      28.279  -0.052  54.217  1.00  0.00     0.035 A 
HETATM   24  C2  UNL     1      27.994  -1.103  53.250  1.00  0.00    -0.082 A 
HETATM   25  C1  UNL     1      26.769  -1.648  52.566  1.00  0.00     0.043 C 
HETATM   26  C3  UNL     1      29.234  -1.455  53.155  1.00  0.00    -0.023 A 
HETATM   27  C4  UNL     1      29.692  -0.459  54.101  1.00  0.00     0.038 A 
ENDBRANCH  22  23
ENDBRANCH  20  22
ENDBRANCH   1  20
TORSDOF 5
ENDMDL
MODEL 5
REMARK VINA RESULT:      -8.4      1.614      5.592
REMARK  5 active torsions:
REMARK  status: ('A' for Active; 'I' for Inactive)
REMARK    1  A    between atoms: C5_5  and  C6_6 
REMARK    2  A    between atoms: C6_6  and  N1_7 
REMARK    3  A    between atoms: N1_7  and  C7_8 
REMARK    4  A    between atoms: C12_15  and  N4_16 
REMARK    5  A    between atoms: N4_16  and  C13_17 
ROOT
HETATM    1  C7  UNL     1      22.339  -0.810  54.670  1.00  0.00     0.029 A 
HETATM    2  C8  UNL     1      23.172  -1.422  55.599  1.00  0.00     0.031 A 
HETATM    3  C9  UNL     1      24.540  -1.325  55.485  1.00  0.00     0.035 A 
HETATM    4  C10 UNL     1      25.124  -0.622  54.452  1.00  0.00     0.072 A 
HETATM    5  N2  UNL     1      26.448  -0.595  54.446  1.00  0.00    -0.241 NA
HETATM    6  C11 UNL     1      27.065   0.086  53.452  1.00  0.00     0.236 A 
HETATM    7  N3  UNL     1      26.323   0.705  52.512  1.00  0.00    -0.224 NA
HETATM    8  C12 UNL     1      24.978   0.678  52.519  1.00  0.00     0.142 A 
HETATM    9  C19 UNL     1      24.308  -0.005  53.513  1.00  0.00     0.041 A 
HETATM   10  C20 UNL     1      22.928  -0.102  53.629  1.00  0.00     0.046 A 
ENDROOT
BRANCH   8  11
HETATM   11  N4  UNL     1      24.158   1.324  51.547  1.00  0.00    -0.340 N 
HETATM   12  H14 UNL     1      23.757   0.679  50.852  1.00  0.00     0.167 HD
BRANCH  11  13
HETATM   13  C13 UNL     1      23.894   2.744  51.511  1.00  0.00     0.035 A 
HETATM   14  C14 UNL     1      23.737   3.503  52.651  1.00  0.00     0.029 A 
HETATM   15  C15 UNL     1      23.496   4.860  52.492  1.00  0.00     0.004 A 
HETATM   16  C16 UNL     1      23.413   5.444  51.237  1.00  0.00     0.019 A 
HETATM   17  C17 UNL     1      23.579   4.633  50.117  1.00  0.00     0.013 A 
HETATM   18 BR1  UNL     1      23.450   5.533  48.436  1.00  0.00    -0.051 Br
HETATM   19  C18 UNL     1      23.822   3.274  50.232  1.00  0.00     0.048 A 
ENDBRANCH  11  13
ENDBRANCH   8  11
BRANCH   1  20
HETATM   20  N1  UNL     1      20.910  -0.822  54.661  1.00  0.00    -0.389 N 
HETATM   21  H10 UNL     1      20.528  -0.392  55.539  1.00  0.00     0.159 HD
BRANCH  20  22
HETATM   22  C6  UNL     1      20.068  -1.337  53.632  1.00  0.00     0.129 C 
BRANCH  22  23
HETATM   23  C5  UNL     1      19.225  -0.184  53.091  1.00  0.00     0.035 A 
HETATM   24  C2  UNL     1      19.497   0.110  51.691  1.00  0.00    -0.082 A 
HETATM   25  C1  UNL     1      20.660   0.642  50.897  1.00  0.00     0.043 C 
HETATM   26  C3  UNL     1      18.320  -0.261  51.307  1.00  0.00    -0.023 A 
HETATM   27  C4  UNL     1      17.884  -0.606  52.644  1.00  0.00     0.038 A 
ENDBRANCH  22  23
ENDBRANCH  20  22
ENDBRANCH   1  20
TORSDOF 5
ENDMDL
MODEL 6
REMARK VINA RESULT:      -8.3      2.870      5.295
REMARK  5 active torsions:
REMARK  status: ('A' for Active; 'I' for Inactive)
REMARK    1  A    between atoms: C5_5  and  C6_6 
REMARK    2  A    between atoms: C6_6  and  N1_7 
REMARK    3  A    between atoms: N1_7  and  C7_8 
REMARK    4  A    between atoms: C12_15  and  N4_16 
REMARK    5  A    between atoms: N4_16  and  C13_17 
ROOT
HETATM    1  C7  UNL     1      25.929   3.042  51.157  1.00  0.00     0.029 A 
HETATM    2  C8  UNL     1      26.071   3.431  49.830  1.00  0.00     0.031 A 
HETATM    3  C9  UNL     1      24.966   3.614  49.031  1.00  0.00     0.035 A 
HETATM    4  C10 UNL     1      23.691   3.418  49.519  1.00  0.00     0.072 A 
HETATM    5  N2  UNL     1      22.704   3.626  48.660  1.00  0.00    -0.241 NA
HETATM    6  C11 UNL     1      21.435   3.448  49.095  1.00  0.00     0.236 A 
HETATM    7  N3  UNL     1      21.218   3.070  50.370  1.00  0.00    -0.224 NA
HETATM    8  C12 UNL     1      22.219   2.859  51.243  1.00  0.00     0.142 A 
HETATM    9  C19 UNL     1      23.529   3.028  50.842  1.00  0.00     0.041 A 
HETATM   10  C20 UNL     1      24.644   2.844  51.648  1.00  0.00     0.046 A 
ENDROOT
BRANCH   8  11
HETATM   11  N4  UNL     1      22.031   2.465  52.600  1.00  0.00    -0.340 N 
HETATM   12  H14 UNL     1      22.095   3.245  53.269  1.00  0.00     0.167 HD
BRANCH  11  13
HETATM   13  C13 UNL     1      21.775   1.110  53.032  1.00  0.00     0.035 A 
HETATM   14  C14 UNL     1      22.772   0.270  53.481  1.00  0.00     0.029 A 
HETATM   15  C15 UNL     1      22.404  -1.008  53.879  1.00  0.00     0.004 A 
HETATM   16  C16 UNL     1      21.087  -1.436  53.831  1.00  0.00     0.019 A 
HETATM   17  C17 UNL     1      20.119  -0.548  53.369  1.00  0.00     0.013 A 
HETATM   18 BR1  UNL     1      18.334  -1.233  53.345  1.00  0.00    -0.051 Br
HETATM   19  C18 UNL     1      20.442   0.736  52.963  1.00  0.00     0.048 A 
ENDBRANCH  11  13
ENDBRANCH   8  11
BRANCH   1  20
HETATM   20  N1  UNL     1      26.978   2.818  52.101  1.00  0.00    -0.389 N 
HETATM   21  H10 UNL     1      27.724   3.551  52.012  1.00  0.00     0.159 HD
BRANCH  20  22
HETATM   22  C6  UNL     1      27.056   1.760  53.055  1.00  0.00     0.129 C 
BRANCH  22  23
HETATM   23  C5  UNL     1      27.371   0.468  52.303  1.00  0.00     0.035 A 
HETATM   24  C2  UNL     1      28.074  -0.508  53.123  1.00  0.00    -0.082 A 
HETATM   25  C1  UNL     1      29.426  -0.607  53.778  1.00  0.00     0.043 C 
HETATM   26  C3  UNL     1      27.086  -1.341  53.111  1.00  0.00    -0.023 A 
HETATM   27  C4  UNL     1      26.247  -0.487  52.295  1.00  0.00     0.038 A 
ENDBRANCH  22  23
ENDBRANCH  20  22
ENDBRANCH   1  20
TORSDOF 5
ENDMDL
MODEL 7
REMARK VINA RESULT:      -8.2      2.172      3.014
REMARK  5 active torsions:
REMARK  status: ('A' for Active; 'I' for Inactive)
REMARK    1  A    between atoms: C5_5  and  C6_6 
REMARK    2  A    between atoms: C6_6  and  N1_7 
REMARK    3  A    between atoms: N1_7  and  C7_8 
REMARK    4  A    between atoms: C12_15  and  N4_16 
REMARK    5  A    between atoms: N4_16  and  C13_17 
ROOT
HETATM    1  C7  UNL     1      25.096   2.124  53.076  1.00  0.00     0.029 A 
HETATM    2  C8  UNL     1      24.405   0.923  53.187  1.00  0.00     0.031 A 
HETATM    3  C9  UNL     1      23.052   0.867  52.940  1.00  0.00     0.035 A 
HETATM    4  C10 UNL     1      22.345   1.994  52.576  1.00  0.00     0.072 A 
HETATM    5  N2  UNL     1      21.050   1.820  52.361  1.00  0.00    -0.241 NA
HETATM    6  C11 UNL     1      20.315   2.898  52.000  1.00  0.00     0.236 A 
HETATM    7  N3  UNL     1      20.916   4.098  51.873  1.00  0.00    -0.224 NA
HETATM    8  C12 UNL     1      22.231   4.275  52.091  1.00  0.00     0.142 A 
HETATM    9  C19 UNL     1      23.017   3.203  52.461  1.00  0.00     0.041 A 
HETATM   10  C20 UNL     1      24.382   3.259  52.711  1.00  0.00     0.046 A 
ENDROOT
BRANCH   8  11
HETATM   11  N4  UNL     1      22.904   5.525  51.962  1.00  0.00    -0.340 N 
HETATM   12  H14 UNL     1      22.858   6.107  52.811  1.00  0.00     0.167 HD
BRANCH  11  13
HETATM   13  C13 UNL     1      23.593   5.967  50.772  1.00  0.00     0.035 A 
HETATM   14  C14 UNL     1      23.290   5.488  49.514  1.00  0.00     0.029 A 
HETATM   15  C15 UNL     1      24.014   5.993  48.443  1.00  0.00     0.004 A 
HETATM   16  C16 UNL     1      25.007   6.944  48.617  1.00  0.00     0.019 A 
HETATM   17  C17 UNL     1      25.274   7.394  49.908  1.00  0.00     0.013 A 
HETATM   18 BR1  UNL     1      26.658   8.705  50.041  1.00  0.00    -0.051 Br
HETATM   19  C18 UNL     1      24.575   6.917  51.005  1.00  0.00     0.048 A 
ENDBRANCH  11  13
ENDBRANCH   8  11
BRANCH   1  20
HETATM   20  N1  UNL     1      26.492   2.332  53.298  1.00  0.00    -0.389 N 
HETATM   21  H10 UNL     1      26.651   3.151  53.936  1.00  0.00     0.159 HD
BRANCH  20  22
HETATM   22  C6  UNL     1      27.566   1.567  52.754  1.00  0.00     0.129 C 
BRANCH  22  23
HETATM   23  C5  UNL     1      27.930   0.480  53.764  1.00  0.00     0.035 A 
HETATM   24  C2  UNL     1      27.926  -0.856  53.184  1.00  0.00    -0.082 A 
HETATM   25  C1  UNL     1      26.893  -1.790  52.611  1.00  0.00     0.043 C 
HETATM   26  C3  UNL     1      29.201  -1.004  53.330  1.00  0.00    -0.023 A 
HETATM   27  C4  UNL     1      29.385   0.303  53.925  1.00  0.00     0.038 A 
ENDBRANCH  22  23
ENDBRANCH  20  22
ENDBRANCH   1  20
TORSDOF 5
ENDMDL
MODEL 8
REMARK VINA RESULT:      -7.9      2.306      5.975
REMARK  5 active torsions:
REMARK  status: ('A' for Active; 'I' for Inactive)
REMARK    1  A    between atoms: C5_5  and  C6_6 
REMARK    2  A    between atoms: C6_6  and  N1_7 
REMARK    3  A    between atoms: N1_7  and  C7_8 
REMARK    4  A    between atoms: C12_15  and  N4_16 
REMARK    5  A    between atoms: N4_16  and  C13_17 
ROOT
HETATM    1  C7  UNL     1      21.187   1.582  52.292  1.00  0.00     0.029 A 
HETATM    2  C8  UNL     1      20.253   1.145  53.225  1.00  0.00     0.031 A 
HETATM    3  C9  UNL     1      20.619   0.283  54.232  1.00  0.00     0.035 A 
HETATM    4  C10 UNL     1      21.916  -0.172  54.349  1.00  0.00     0.072 A 
HETATM    5  N2  UNL     1      22.153  -0.995  55.358  1.00  0.00    -0.241 NA
HETATM    6  C11 UNL     1      23.413  -1.465  55.514  1.00  0.00     0.236 A 
HETATM    7  N3  UNL     1      24.373  -1.086  54.648  1.00  0.00    -0.224 NA
HETATM    8  C12 UNL     1      24.134  -0.249  53.622  1.00  0.00     0.142 A 
HETATM    9  C19 UNL     1      22.863   0.253  53.427  1.00  0.00     0.041 A 
HETATM   10  C20 UNL     1      22.494   1.123  52.410  1.00  0.00     0.046 A 
ENDROOT
BRANCH   8  11
HETATM   11  N4  UNL     1      25.123   0.180  52.689  1.00  0.00    -0.340 N 
HETATM   12  H14 UNL     1      24.811   0.132  51.708  1.00  0.00     0.167 HD
BRANCH  11  13
HETATM   13  C13 UNL     1      26.444   0.640  53.047  1.00  0.00     0.035 A 
HETATM   14  C14 UNL     1      26.735   1.969  53.272  1.00  0.00     0.029 A 
HETATM   15  C15 UNL     1      28.039   2.292  53.620  1.00  0.00     0.004 A 
HETATM   16  C16 UNL     1      29.023   1.323  53.740  1.00  0.00     0.019 A 
HETATM   17  C17 UNL     1      28.676  -0.005  53.502  1.00  0.00     0.013 A 
HETATM   18 BR1  UNL     1      30.103  -1.263  53.696  1.00  0.00    -0.051 Br
HETATM   19  C18 UNL     1      27.387  -0.371  53.153  1.00  0.00     0.048 A 
ENDBRANCH  11  13
ENDBRANCH   8  11
BRANCH   1  20
HETATM   20  N1  UNL     1      20.954   2.473  51.200  1.00  0.00    -0.389 N 
HETATM   21  H10 UNL     1      21.159   2.003  50.284  1.00  0.00     0.159 HD
BRANCH  20  22
HETATM   22  C6  UNL     1      20.508   3.826  51.283  1.00  0.00     0.129 C 
BRANCH  22  23
HETATM   23  C5  UNL     1      21.600   4.720  50.696  1.00  0.00     0.035 A 
HETATM   24  C2  UNL     1      22.887   4.550  51.356  1.00  0.00    -0.082 A 
HETATM   25  C1  UNL     1      23.452   4.825  52.724  1.00  0.00     0.043 C 
HETATM   26  C3  UNL     1      23.443   4.045  50.305  1.00  0.00    -0.023 A 
HETATM   27  C4  UNL     1      22.242   4.141  49.501  1.00  0.00     0.038 A 
ENDBRANCH  22  23
ENDBRANCH  20  22
ENDBRANCH   1  20
TORSDOF 5
ENDMDL
MODEL 9
REMARK VINA RESULT:      -7.8      2.980      6.145
REMARK  5 active torsions:
REMARK  status: ('A' for Active; 'I' for Inactive)
REMARK    1  A    between atoms: C5_5  and  C6_6 
REMARK    2  A    between atoms: C6_6  and  N1_7 
REMARK    3  A    between atoms: N1_7  and  C7_8 
REMARK    4  A    between atoms: C12_15  and  N4_16 
REMARK    5  A    between atoms: N4_16  and  C13_17 
ROOT
HETATM    1  C7  UNL     1      24.204   1.958  51.626  1.00  0.00     0.029 A 
HETATM    2  C8  UNL     1      25.205   1.083  52.033  1.00  0.00     0.031 A 
HETATM    3  C9  UNL     1      24.946   0.108  52.968  1.00  0.00     0.035 A 
HETATM    4  C10 UNL     1      23.693  -0.031  53.528  1.00  0.00     0.072 A 
HETATM    5  N2  UNL     1      23.560  -1.005  54.415  1.00  0.00    -0.241 NA
HETATM    6  C11 UNL     1      22.347  -1.181  54.989  1.00  0.00     0.236 A 
HETATM    7  N3  UNL     1      21.326  -0.370  54.645  1.00  0.00    -0.224 NA
HETATM    8  C12 UNL     1      21.461   0.619  53.744  1.00  0.00     0.142 A 
HETATM    9  C19 UNL     1      22.680   0.834  53.135  1.00  0.00     0.041 A 
HETATM   10  C20 UNL     1      22.942   1.818  52.191  1.00  0.00     0.046 A 
ENDROOT
BRANCH   8  11
HETATM   11  N4  UNL     1      20.406   1.494  53.350  1.00  0.00    -0.340 N 
HETATM   12  H14 UNL     1      20.317   2.328  53.949  1.00  0.00     0.167 HD
BRANCH  11  13
HETATM   13  C13 UNL     1      19.527   1.265  52.227  1.00  0.00     0.035 A 
HETATM   14  C14 UNL     1      18.995   0.026  51.937  1.00  0.00     0.029 A 
HETATM   15  C15 UNL     1      18.156  -0.071  50.836  1.00  0.00     0.004 A 
HETATM   16  C16 UNL     1      17.855   1.030  50.049  1.00  0.00     0.019 A 
HETATM   17  C17 UNL     1      18.419   2.258  50.385  1.00  0.00     0.013 A 
HETATM   18 BR1  UNL     1      17.940   3.711  49.239  1.00  0.00    -0.051 Br
HETATM   19  C18 UNL     1      19.261   2.399  51.475  1.00  0.00     0.048 A 
ENDBRANCH  11  13
ENDBRANCH   8  11
BRANCH   1  20
HETATM   20  N1  UNL     1      24.325   3.011  50.668  1.00  0.00    -0.389 N 
HETATM   21  H10 UNL     1      25.334   3.228  50.476  1.00  0.00     0.159 HD
BRANCH  20  22
HETATM   22  C6  UNL     1      23.258   3.710  50.029  1.00  0.00     0.129 C 
BRANCH  22  23
HETATM   23  C5  UNL     1      23.118   3.163  48.610  1.00  0.00     0.035 A 
HETATM   24  C2  UNL     1      21.967   2.286  48.451  1.00  0.00    -0.082 A 
HETATM   25  C1  UNL     1      21.549   0.936  48.968  1.00  0.00     0.043 C 
HETATM   26  C3  UNL     1      21.362   3.102  47.651  1.00  0.00    -0.023 A 
HETATM   27  C4  UNL     1      22.420   4.090  47.699  1.00  0.00     0.038 A 
ENDBRANCH  22  23
ENDBRANCH  20  22
ENDBRANCH   1  20
TORSDOF 5
ENDMDL
