MODEL 1
REMARK VINA RESULT:      -7.4      0.000      0.000
REMARK  6 active torsions:
REMARK  status: ('A' for Active; 'I' for Inactive)
REMARK    1  A    between atoms: O1_2  and  C2_3 
REMARK    2  A    between atoms: C3_4  and  C4_5 
REMARK    3  A    between atoms: C4_5  and  N1_6 
REMARK    4  A    between atoms: N1_6  and  C5_7 
REMARK    5  A    between atoms: C14_19  and  O2_20 
REMARK    6  A    between atoms: C15_22  and  O3_23 
ROOT
HETATM    1  N1  UNL     1      25.998   3.326  51.155  1.00  0.00    -0.370 N 
HETATM    2  H6  UNL     1      25.352   4.101  51.401  1.00  0.00     0.161 HD
ENDROOT
BRANCH   1   3
HETATM    3  C4  UNL     1      26.429   3.262  49.772  1.00  0.00     0.162 C 
BRANCH   3   4
HETATM    4  C3  UNL     1      26.741   4.611  49.245  1.00  0.00    -0.006 A 
HETATM    5  C2  UNL     1      26.040   5.739  49.278  1.00  0.00     0.089 A 
HETATM    6  C15 UNL     1      26.763   6.853  48.615  1.00  0.00     0.236 A 
HETATM    7  C14 UNL     1      28.017   6.185  48.182  1.00  0.00     0.105 A 
HETATM    8  C13 UNL     1      27.998   4.907  48.544  1.00  0.00     0.048 A 
BRANCH   5   9
HETATM    9  O1  UNL     1      24.803   5.671  49.906  1.00  0.00    -0.357 OA
HETATM   10  C1  UNL     1      24.381   6.557  50.926  1.00  0.00     0.209 C 
ENDBRANCH   5   9
BRANCH   6  11
HETATM   11  O3  UNL     1      27.008   7.933  49.451  1.00  0.00    -0.377 OA
HETATM   12  C16 UNL     1      26.381   9.057  48.966  1.00  0.00     0.203 C 
ENDBRANCH   6  11
BRANCH   7  13
HETATM   13  O2  UNL     1      29.096   6.763  47.492  1.00  0.00    -0.242 OA
HETATM   14 CL2  UNL     1      28.783   7.879  46.223  1.00  0.00     0.067 Cl
ENDBRANCH   7  13
ENDBRANCH   3   4
ENDBRANCH   1   3
BRANCH   1  15
HETATM   15  C5  UNL     1      26.485   2.338  52.049  1.00  0.00     0.137 A 
HETATM   16  N2  UNL     1      27.777   2.287  52.393  1.00  0.00    -0.224 NA
HETATM   17  C6  UNL     1      28.306   1.395  53.222  1.00  0.00     0.235 A 
HETATM   18  N3  UNL     1      27.541   0.431  53.803  1.00  0.00    -0.241 NA
HETATM   19  C7  UNL     1      26.231   0.416  53.508  1.00  0.00     0.072 A 
HETATM   20  C8  UNL     1      25.443  -0.545  54.082  1.00  0.00     0.034 A 
HETATM   21  C12 UNL     1      25.733   1.360  52.646  1.00  0.00     0.040 A 
HETATM   22  C9  UNL     1      24.075  -0.605  53.808  1.00  0.00     0.026 A 
HETATM   23  C10 UNL     1      23.562   0.353  52.930  1.00  0.00     0.035 A 
HETATM   24 CL1  UNL     1      21.850   0.316  52.557  1.00  0.00    -0.084 Cl
HETATM   25  C11 UNL     1      24.379   1.308  52.368  1.00  0.00     0.041 A 
ENDBRANCH   1  15
TORSDOF 6
ENDMDL
MODEL 2
REMARK VINA RESULT:      -7.3      2.054      2.600
REMARK  6 active torsions:
REMARK  status: ('A' for Active; 'I' for Inactive)
REMARK    1  A    between atoms: O1_2  and  C2_3 
REMARK    2  A    between atoms: C3_4  and  C4_5 
REMARK    3  A    between atoms: C4_5  and  N1_6 
REMARK    4  A    between atoms: N1_6  and  C5_7 
REMARK    5  A    between atoms: C14_19  and  O2_20 
REMARK    6  A    between atoms: C15_22  and  O3_23 
ROOT
HETATM    1  N1  UNL     1      26.622   3.519  50.738  1.00  0.00    -0.370 N 
HETATM    2  H6  UNL     1      27.305   4.046  51.315  1.00  0.00     0.161 HD
ENDROOT
BRANCH   1   3
HETATM    3  C4  UNL     1      26.762   3.645  49.300  1.00  0.00     0.162 C 
BRANCH   3   4
HETATM    4  C3  UNL     1      27.133   5.027  48.917  1.00  0.00    -0.006 A 
HETATM    5  C2  UNL     1      26.444   6.161  48.987  1.00  0.00     0.089 A 
HETATM    6  C15 UNL     1      27.234   7.313  48.483  1.00  0.00     0.236 A 
HETATM    7  C14 UNL     1      28.513   6.660  48.103  1.00  0.00     0.105 A 
HETATM    8  C13 UNL     1      28.449   5.357  48.353  1.00  0.00     0.048 A 
BRANCH   5   9
HETATM    9  O1  UNL     1      25.158   6.064  49.500  1.00  0.00    -0.357 OA
HETATM   10  C1  UNL     1      24.744   6.647  50.722  1.00  0.00     0.209 C 
ENDBRANCH   5   9
BRANCH   6  11
HETATM   11  O3  UNL     1      27.419   8.315  49.425  1.00  0.00    -0.377 OA
HETATM   12  C16 UNL     1      26.758   9.457  49.035  1.00  0.00     0.203 C 
ENDBRANCH   6  11
BRANCH   7  13
HETATM   13  O2  UNL     1      29.653   7.274  47.557  1.00  0.00    -0.242 OA
HETATM   14 CL2  UNL     1      30.748   8.096  48.596  1.00  0.00     0.067 Cl
ENDBRANCH   7  13
ENDBRANCH   3   4
ENDBRANCH   1   3
BRANCH   1  15
HETATM   15  C5  UNL     1      25.577   2.697  51.234  1.00  0.00     0.137 A 
HETATM   16  N2  UNL     1      24.292   2.991  51.006  1.00  0.00    -0.224 NA
HETATM   17  C6  UNL     1      23.262   2.273  51.436  1.00  0.00     0.235 A 
HETATM   18  N3  UNL     1      23.448   1.141  52.169  1.00  0.00    -0.241 NA
HETATM   19  C7  UNL     1      24.712   0.778  52.440  1.00  0.00     0.072 A 
HETATM   20  C8  UNL     1      24.921  -0.358  53.175  1.00  0.00     0.034 A 
HETATM   21  C12 UNL     1      25.742   1.554  51.973  1.00  0.00     0.040 A 
HETATM   22  C9  UNL     1      26.215  -0.780  53.485  1.00  0.00     0.026 A 
HETATM   23  C10 UNL     1      27.269   0.007  53.012  1.00  0.00     0.035 A 
HETATM   24 CL1  UNL     1      28.911  -0.484  53.378  1.00  0.00    -0.084 Cl
HETATM   25  C11 UNL     1      27.028   1.144  52.275  1.00  0.00     0.041 A 
ENDBRANCH   1  15
TORSDOF 6
ENDMDL
MODEL 3
REMARK VINA RESULT:      -7.1      2.054      2.866
REMARK  6 active torsions:
REMARK  status: ('A' for Active; 'I' for Inactive)
REMARK    1  A    between atoms: O1_2  and  C2_3 
REMARK    2  A    between atoms: C3_4  and  C4_5 
REMARK    3  A    between atoms: C4_5  and  N1_6 
REMARK    4  A    between atoms: N1_6  and  C5_7 
REMARK    5  A    between atoms: C14_19  and  O2_20 
REMARK    6  A    between atoms: C15_22  and  O3_23 
ROOT
HETATM    1  N1  UNL     1      24.449   1.512  51.537  1.00  0.00    -0.370 N 
HETATM    2  H6  UNL     1      23.662   1.687  50.883  1.00  0.00     0.161 HD
ENDROOT
BRANCH   1   3
HETATM    3  C4  UNL     1      25.687   2.211  51.259  1.00  0.00     0.162 C 
BRANCH   3   4
HETATM    4  C3  UNL     1      25.427   3.564  50.713  1.00  0.00    -0.006 A 
HETATM    5  C2  UNL     1      24.559   4.499  51.088  1.00  0.00     0.089 A 
HETATM    6  C15 UNL     1      24.660   5.711  50.236  1.00  0.00     0.236 A 
HETATM    7  C14 UNL     1      25.740   5.329  49.291  1.00  0.00     0.105 A 
HETATM    8  C13 UNL     1      26.173   4.103  49.568  1.00  0.00     0.048 A 
BRANCH   5   9
HETATM    9  O1  UNL     1      23.749   4.181  52.169  1.00  0.00    -0.357 OA
HETATM   10  C1  UNL     1      22.365   4.474  52.237  1.00  0.00     0.209 C 
ENDBRANCH   5   9
BRANCH   6  11
HETATM   11  O3  UNL     1      24.968   6.863  50.944  1.00  0.00    -0.377 OA
HETATM   12  C16 UNL     1      24.106   7.877  50.595  1.00  0.00     0.203 C 
ENDBRANCH   6  11
BRANCH   7  13
HETATM   13  O2  UNL     1      26.266   6.102  48.242  1.00  0.00    -0.242 OA
HETATM   14 CL2  UNL     1      27.854   6.743  48.382  1.00  0.00     0.067 Cl
ENDBRANCH   7  13
ENDBRANCH   3   4
ENDBRANCH   1   3
BRANCH   1  15
HETATM   15  C5  UNL     1      24.411   0.653  52.667  1.00  0.00     0.137 A 
HETATM   16  N2  UNL     1      25.520   0.356  53.353  1.00  0.00    -0.224 NA
HETATM   17  C6  UNL     1      25.564  -0.437  54.418  1.00  0.00     0.235 A 
HETATM   18  N3  UNL     1      24.438  -1.027  54.904  1.00  0.00    -0.241 NA
HETATM   19  C7  UNL     1      23.282  -0.778  54.268  1.00  0.00     0.072 A 
HETATM   20  C8  UNL     1      22.138  -1.362  54.741  1.00  0.00     0.034 A 
HETATM   21  C12 UNL     1      23.289   0.048  53.174  1.00  0.00     0.040 A 
HETATM   22  C9  UNL     1      20.909  -1.136  54.117  1.00  0.00     0.026 A 
HETATM   23  C10 UNL     1      20.911  -0.296  53.002  1.00  0.00     0.035 A 
HETATM   24 CL1  UNL     1      19.391   0.017  52.186  1.00  0.00    -0.084 Cl
HETATM   25  C11 UNL     1      22.077   0.278  52.548  1.00  0.00     0.041 A 
ENDBRANCH   1  15
TORSDOF 6
ENDMDL
MODEL 4
REMARK VINA RESULT:      -7.0      3.959      7.001
REMARK  6 active torsions:
REMARK  status: ('A' for Active; 'I' for Inactive)
REMARK    1  A    between atoms: O1_2  and  C2_3 
REMARK    2  A    between atoms: C3_4  and  C4_5 
REMARK    3  A    between atoms: C4_5  and  N1_6 
REMARK    4  A    between atoms: N1_6  and  C5_7 
REMARK    5  A    between atoms: C14_19  and  O2_20 
REMARK    6  A    between atoms: C15_22  and  O3_23 
ROOT
HETATM    1  N1  UNL     1      25.456   3.512  51.440  1.00  0.00    -0.370 N 
HETATM    2  H6  UNL     1      25.117   3.529  52.421  1.00  0.00     0.161 HD
ENDROOT
BRANCH   1   3
HETATM    3  C4  UNL     1      26.498   2.552  51.133  1.00  0.00     0.162 C 
BRANCH   3   4
HETATM    4  C3  UNL     1      26.661   1.571  52.231  1.00  0.00    -0.006 A 
HETATM    5  C2  UNL     1      25.776   0.775  52.822  1.00  0.00     0.089 A 
HETATM    6  C15 UNL     1      26.405  -0.048  53.886  1.00  0.00     0.236 A 
HETATM    7  C14 UNL     1      27.819   0.401  53.820  1.00  0.00     0.105 A 
HETATM    8  C13 UNL     1      27.959   1.324  52.875  1.00  0.00     0.048 A 
BRANCH   5   9
HETATM    9  O1  UNL     1      24.472   0.857  52.352  1.00  0.00    -0.357 OA
HETATM   10  C1  UNL     1      23.324   0.680  53.162  1.00  0.00     0.209 C 
ENDBRANCH   5   9
BRANCH   6  11
HETATM   11  O3  UNL     1      26.280  -1.415  53.678  1.00  0.00    -0.377 OA
HETATM   12  C16 UNL     1      26.824  -1.759  52.462  1.00  0.00     0.203 C 
ENDBRANCH   6  11
BRANCH   7  13
HETATM   13  O2  UNL     1      28.892  -0.045  54.611  1.00  0.00    -0.242 OA
HETATM   14 CL2  UNL     1      30.116  -1.020  53.900  1.00  0.00     0.067 Cl
ENDBRANCH   7  13
ENDBRANCH   3   4
ENDBRANCH   1   3
BRANCH   1  15
HETATM   15  C5  UNL     1      24.987   4.343  50.388  1.00  0.00     0.137 A 
HETATM   16  N2  UNL     1      25.530   5.543  50.156  1.00  0.00    -0.224 NA
HETATM   17  C6  UNL     1      25.148   6.375  49.194  1.00  0.00     0.235 A 
HETATM   18  N3  UNL     1      24.136   6.051  48.342  1.00  0.00    -0.241 NA
HETATM   19  C7  UNL     1      23.541   4.860  48.512  1.00  0.00     0.072 A 
HETATM   20  C8  UNL     1      22.521   4.514  47.666  1.00  0.00     0.034 A 
HETATM   21  C12 UNL     1      23.972   4.037  49.520  1.00  0.00     0.040 A 
HETATM   22  C9  UNL     1      21.867   3.288  47.798  1.00  0.00     0.026 A 
HETATM   23  C10 UNL     1      22.303   2.445  48.823  1.00  0.00     0.035 A 
HETATM   24 CL1  UNL     1      21.511   0.895  49.027  1.00  0.00    -0.084 Cl
HETATM   25  C11 UNL     1      23.330   2.820  49.659  1.00  0.00     0.041 A 
ENDBRANCH   1  15
TORSDOF 6
ENDMDL
MODEL 5
REMARK VINA RESULT:      -7.0      3.369      4.586
REMARK  6 active torsions:
REMARK  status: ('A' for Active; 'I' for Inactive)
REMARK    1  A    between atoms: O1_2  and  C2_3 
REMARK    2  A    between atoms: C3_4  and  C4_5 
REMARK    3  A    between atoms: C4_5  and  N1_6 
REMARK    4  A    between atoms: N1_6  and  C5_7 
REMARK    5  A    between atoms: C14_19  and  O2_20 
REMARK    6  A    between atoms: C15_22  and  O3_23 
ROOT
HETATM    1  N1  UNL     1      24.998   1.364  51.481  1.00  0.00    -0.370 N 
HETATM    2  H6  UNL     1      24.395   0.926  50.759  1.00  0.00     0.161 HD
ENDROOT
BRANCH   1   3
HETATM    3  C4  UNL     1      25.338   2.759  51.277  1.00  0.00     0.162 C 
BRANCH   3   4
HETATM    4  C3  UNL     1      24.134   3.619  51.346  1.00  0.00    -0.006 A 
HETATM    5  C2  UNL     1      23.964   4.900  51.037  1.00  0.00     0.089 A 
HETATM    6  C15 UNL     1      22.565   5.339  51.271  1.00  0.00     0.236 A 
HETATM    7  C14 UNL     1      21.936   4.090  51.774  1.00  0.00     0.105 A 
HETATM    8  C13 UNL     1      22.836   3.114  51.815  1.00  0.00     0.048 A 
BRANCH   5   9
HETATM    9  O1  UNL     1      25.087   5.569  50.567  1.00  0.00    -0.357 OA
HETATM   10  C1  UNL     1      25.199   6.978  50.496  1.00  0.00     0.209 C 
ENDBRANCH   5   9
BRANCH   6  11
HETATM   11  O3  UNL     1      21.935   5.818  50.131  1.00  0.00    -0.377 OA
HETATM   12  C16 UNL     1      21.322   7.020  50.401  1.00  0.00     0.203 C 
ENDBRANCH   6  11
BRANCH   7  13
HETATM   13  O2  UNL     1      20.598   3.908  52.164  1.00  0.00    -0.242 OA
HETATM   14 CL2  UNL     1      20.069   2.349  52.656  1.00  0.00     0.067 Cl
ENDBRANCH   7  13
ENDBRANCH   3   4
ENDBRANCH   1   3
BRANCH   1  15
HETATM   15  C5  UNL     1      25.511   0.717  52.636  1.00  0.00     0.137 A 
HETATM   16  N2  UNL     1      26.818   0.735  52.920  1.00  0.00    -0.224 NA
HETATM   17  C6  UNL     1      27.371   0.155  53.979  1.00  0.00     0.235 A 
HETATM   18  N3  UNL     1      26.617  -0.526  54.885  1.00  0.00    -0.241 NA
HETATM   19  C7  UNL     1      25.293  -0.587  54.669  1.00  0.00     0.072 A 
HETATM   20  C8  UNL     1      24.517  -1.267  55.569  1.00  0.00     0.034 A 
HETATM   21  C12 UNL     1      24.770   0.028  53.561  1.00  0.00     0.040 A 
HETATM   22  C9  UNL     1      23.135  -1.362  55.391  1.00  0.00     0.026 A 
HETATM   23  C10 UNL     1      22.596  -0.737  54.264  1.00  0.00     0.035 A 
HETATM   24 CL1  UNL     1      20.866  -0.830  54.000  1.00  0.00    -0.084 Cl
HETATM   25  C11 UNL     1      23.403  -0.061  53.376  1.00  0.00     0.041 A 
ENDBRANCH   1  15
TORSDOF 6
ENDMDL
MODEL 6
REMARK VINA RESULT:      -6.9      3.440      4.817
REMARK  6 active torsions:
REMARK  status: ('A' for Active; 'I' for Inactive)
REMARK    1  A    between atoms: O1_2  and  C2_3 
REMARK    2  A    between atoms: C3_4  and  C4_5 
REMARK    3  A    between atoms: C4_5  and  N1_6 
REMARK    4  A    between atoms: N1_6  and  C5_7 
REMARK    5  A    between atoms: C14_19  and  O2_20 
REMARK    6  A    between atoms: C15_22  and  O3_23 
ROOT
HETATM    1  N1  UNL     1      22.403   1.007  51.035  1.00  0.00    -0.370 N 
HETATM    2  H6  UNL     1      22.693   0.512  50.169  1.00  0.00     0.161 HD
ENDROOT
BRANCH   1   3
HETATM    3  C4  UNL     1      22.609   2.442  51.056  1.00  0.00     0.162 C 
BRANCH   3   4
HETATM    4  C3  UNL     1      23.994   2.790  50.659  1.00  0.00    -0.006 A 
HETATM    5  C2  UNL     1      24.461   3.370  49.558  1.00  0.00     0.089 A 
HETATM    6  C15 UNL     1      25.937   3.518  49.602  1.00  0.00     0.236 A 
HETATM    7  C14 UNL     1      26.263   2.923  50.923  1.00  0.00     0.105 A 
HETATM    8  C13 UNL     1      25.150   2.509  51.521  1.00  0.00     0.048 A 
BRANCH   5   9
HETATM    9  O1  UNL     1      23.515   3.719  48.604  1.00  0.00    -0.357 OA
HETATM   10  C1  UNL     1      23.206   5.052  48.243  1.00  0.00     0.209 C 
ENDBRANCH   5   9
BRANCH   6  11
HETATM   11  O3  UNL     1      26.367   4.833  49.501  1.00  0.00    -0.377 OA
HETATM   12  C16 UNL     1      27.458   4.911  48.667  1.00  0.00     0.203 C 
ENDBRANCH   6  11
BRANCH   7  13
HETATM   13  O2  UNL     1      27.534   2.788  51.507  1.00  0.00    -0.242 OA
HETATM   14 CL2  UNL     1      27.662   2.229  53.127  1.00  0.00     0.067 Cl
ENDBRANCH   7  13
ENDBRANCH   3   4
ENDBRANCH   1   3
BRANCH   1  15
HETATM   15  C5  UNL     1      21.831   0.401  52.184  1.00  0.00     0.137 A 
HETATM   16  N2  UNL     1      20.506   0.346  52.354  1.00  0.00    -0.224 NA
HETATM   17  C6  UNL     1      19.897  -0.203  53.399  1.00  0.00     0.235 A 
HETATM   18  N3  UNL     1      20.608  -0.771  54.411  1.00  0.00    -0.241 NA
HETATM   19  C7  UNL     1      21.948  -0.756  54.313  1.00  0.00     0.072 A 
HETATM   20  C8  UNL     1      22.682  -1.322  55.320  1.00  0.00     0.034 A 
HETATM   21  C12 UNL     1      22.528  -0.177  53.213  1.00  0.00     0.040 A 
HETATM   22  C9  UNL     1      24.077  -1.333  55.268  1.00  0.00     0.026 A 
HETATM   23  C10 UNL     1      24.674  -0.744  54.150  1.00  0.00     0.035 A 
HETATM   24 CL1  UNL     1      26.423  -0.735  54.041  1.00  0.00    -0.084 Cl
HETATM   25  C11 UNL     1      23.910  -0.182  53.153  1.00  0.00     0.041 A 
ENDBRANCH   1  15
TORSDOF 6
ENDMDL
MODEL 7
REMARK VINA RESULT:      -6.8      4.682      7.544
REMARK  6 active torsions:
REMARK  status: ('A' for Active; 'I' for Inactive)
REMARK    1  A    between atoms: O1_2  and  C2_3 
REMARK    2  A    between atoms: C3_4  and  C4_5 
REMARK    3  A    between atoms: C4_5  and  N1_6 
REMARK    4  A    between atoms: N1_6  and  C5_7 
REMARK    5  A    between atoms: C14_19  and  O2_20 
REMARK    6  A    between atoms: C15_22  and  O3_23 
ROOT
HETATM    1  N1  UNL     1      30.027   5.743  47.695  1.00  0.00    -0.370 N 
HETATM    2  H6  UNL     1      29.648   4.833  47.371  1.00  0.00     0.161 HD
ENDROOT
BRANCH   1   3
HETATM    3  C4  UNL     1      29.069   6.817  47.865  1.00  0.00     0.162 C 
BRANCH   3   4
HETATM    4  C3  UNL     1      27.822   6.326  48.497  1.00  0.00    -0.006 A 
HETATM    5  C2  UNL     1      26.795   6.988  49.020  1.00  0.00     0.089 A 
HETATM    6  C15 UNL     1      25.757   6.064  49.543  1.00  0.00     0.236 A 
HETATM    7  C14 UNL     1      26.350   4.737  49.237  1.00  0.00     0.105 A 
HETATM    8  C13 UNL     1      27.528   4.894  48.641  1.00  0.00     0.048 A 
BRANCH   5   9
HETATM    9  O1  UNL     1      26.879   8.373  48.982  1.00  0.00    -0.357 OA
HETATM   10  C1  UNL     1      27.170   9.182  50.107  1.00  0.00     0.209 C 
ENDBRANCH   5   9
BRANCH   6  11
HETATM   11  O3  UNL     1      24.514   6.230  48.949  1.00  0.00    -0.377 OA
HETATM   12  C16 UNL     1      23.703   6.992  49.756  1.00  0.00     0.203 C 
ENDBRANCH   6  11
BRANCH   7  13
HETATM   13  O2  UNL     1      25.800   3.474  49.512  1.00  0.00    -0.242 OA
HETATM   14 CL2  UNL     1      26.584   2.440  50.639  1.00  0.00     0.067 Cl
ENDBRANCH   7  13
ENDBRANCH   3   4
ENDBRANCH   1   3
BRANCH   1  15
HETATM   15  C5  UNL     1      31.391   6.018  47.980  1.00  0.00     0.137 A 
HETATM   16  N2  UNL     1      31.791   7.239  48.349  1.00  0.00    -0.224 NA
HETATM   17  C6  UNL     1      33.045   7.573  48.632  1.00  0.00     0.235 A 
HETATM   18  N3  UNL     1      34.051   6.658  48.562  1.00  0.00    -0.241 NA
HETATM   19  C7  UNL     1      33.728   5.407  48.198  1.00  0.00     0.072 A 
HETATM   20  C8  UNL     1      34.725   4.472  48.121  1.00  0.00     0.034 A 
HETATM   21  C12 UNL     1      32.418   5.113  47.916  1.00  0.00     0.040 A 
HETATM   22  C9  UNL     1      34.443   3.156  47.747  1.00  0.00     0.026 A 
HETATM   23  C10 UNL     1      33.111   2.851  47.459  1.00  0.00     0.035 A 
HETATM   24 CL1  UNL     1      32.710   1.212  46.985  1.00  0.00    -0.084 Cl
HETATM   25  C11 UNL     1      32.129   3.813  47.544  1.00  0.00     0.041 A 
ENDBRANCH   1  15
TORSDOF 6
ENDMDL
MODEL 8
REMARK VINA RESULT:      -6.8      2.498      3.312
REMARK  6 active torsions:
REMARK  status: ('A' for Active; 'I' for Inactive)
REMARK    1  A    between atoms: O1_2  and  C2_3 
REMARK    2  A    between atoms: C3_4  and  C4_5 
REMARK    3  A    between atoms: C4_5  and  N1_6 
REMARK    4  A    between atoms: N1_6  and  C5_7 
REMARK    5  A    between atoms: C14_19  and  O2_20 
REMARK    6  A    between atoms: C15_22  and  O3_23 
ROOT
HETATM    1  N1  UNL     1      23.162   3.708  51.324  1.00  0.00    -0.370 N 
HETATM    2  H6  UNL     1      23.364   4.646  51.718  1.00  0.00     0.161 HD
ENDROOT
BRANCH   1   3
HETATM    3  C4  UNL     1      23.496   3.510  49.927  1.00  0.00     0.162 C 
BRANCH   3   4
HETATM    4  C3  UNL     1      24.618   4.385  49.515  1.00  0.00    -0.006 A 
HETATM    5  C2  UNL     1      24.647   5.683  49.230  1.00  0.00     0.089 A 
HETATM    6  C15 UNL     1      26.014   6.132  48.862  1.00  0.00     0.236 A 
HETATM    7  C14 UNL     1      26.789   4.870  48.981  1.00  0.00     0.105 A 
HETATM    8  C13 UNL     1      25.988   3.878  49.353  1.00  0.00     0.048 A 
BRANCH   5   9
HETATM    9  O1  UNL     1      23.436   6.356  49.325  1.00  0.00    -0.357 OA
HETATM   10  C1  UNL     1      23.109   7.255  50.368  1.00  0.00     0.209 C 
ENDBRANCH   5   9
BRANCH   6  11
HETATM   11  O3  UNL     1      26.511   7.130  49.688  1.00  0.00    -0.377 OA
HETATM   12  C16 UNL     1      26.504   8.336  49.027  1.00  0.00     0.203 C 
ENDBRANCH   6  11
BRANCH   7  13
HETATM   13  O2  UNL     1      28.163   4.690  48.747  1.00  0.00    -0.242 OA
HETATM   14 CL2  UNL     1      29.046   5.915  47.925  1.00  0.00     0.067 Cl
ENDBRANCH   7  13
ENDBRANCH   3   4
ENDBRANCH   1   3
BRANCH   1  15
HETATM   15  C5  UNL     1      22.593   2.617  52.032  1.00  0.00     0.137 A 
HETATM   16  N2  UNL     1      21.280   2.559  52.282  1.00  0.00    -0.224 NA
HETATM   17  C6  UNL     1      20.675   1.574  52.936  1.00  0.00     0.235 A 
HETATM   18  N3  UNL     1      21.377   0.512  53.417  1.00  0.00    -0.241 NA
HETATM   19  C7  UNL     1      22.703   0.497  53.205  1.00  0.00     0.072 A 
HETATM   20  C8  UNL     1      23.428  -0.563  53.681  1.00  0.00     0.034 A 
HETATM   21  C12 UNL     1      23.280   1.538  52.524  1.00  0.00     0.040 A 
HETATM   22  C9  UNL     1      24.809  -0.628  53.488  1.00  0.00     0.026 A 
HETATM   23  C10 UNL     1      25.403   0.430  52.795  1.00  0.00     0.035 A 
HETATM   24 CL1  UNL     1      27.135   0.392  52.529  1.00  0.00    -0.084 Cl
HETATM   25  C11 UNL     1      24.648   1.483  52.329  1.00  0.00     0.041 A 
ENDBRANCH   1  15
TORSDOF 6
ENDMDL
MODEL 9
REMARK VINA RESULT:      -6.8      3.061      7.708
REMARK  6 active torsions:
REMARK  status: ('A' for Active; 'I' for Inactive)
REMARK    1  A    between atoms: O1_2  and  C2_3 
REMARK    2  A    between atoms: C3_4  and  C4_5 
REMARK    3  A    between atoms: C4_5  and  N1_6 
REMARK    4  A    between atoms: N1_6  and  C5_7 
REMARK    5  A    between atoms: C14_19  and  O2_20 
REMARK    6  A    between atoms: C15_22  and  O3_23 
ROOT
HETATM    1  N1  UNL     1      25.773   3.496  49.496  1.00  0.00    -0.370 N 
HETATM    2  H6  UNL     1      25.372   2.700  48.963  1.00  0.00     0.161 HD
ENDROOT
BRANCH   1   3
HETATM    3  C4  UNL     1      26.505   3.161  50.701  1.00  0.00     0.162 C 
BRANCH   3   4
HETATM    4  C3  UNL     1      25.747   2.203  51.539  1.00  0.00    -0.006 A 
HETATM    5  C2  UNL     1      24.530   2.285  52.068  1.00  0.00     0.089 A 
HETATM    6  C15 UNL     1      24.186   1.066  52.842  1.00  0.00     0.236 A 
HETATM    7  C14 UNL     1      25.414   0.247  52.679  1.00  0.00     0.105 A 
HETATM    8  C13 UNL     1      26.300   0.901  51.936  1.00  0.00     0.048 A 
BRANCH   5   9
HETATM    9  O1  UNL     1      23.830   3.455  51.807  1.00  0.00    -0.357 OA
HETATM   10  C1  UNL     1      23.645   4.497  52.748  1.00  0.00     0.209 C 
ENDBRANCH   5   9
BRANCH   6  11
HETATM   11  O3  UNL     1      23.055   0.412  52.375  1.00  0.00    -0.377 OA
HETATM   12  C16 UNL     1      22.178   0.187  53.410  1.00  0.00     0.203 C 
ENDBRANCH   6  11
BRANCH   7  13
HETATM   13  O2  UNL     1      25.660  -1.032  53.207  1.00  0.00    -0.242 OA
HETATM   14 CL2  UNL     1      27.001  -1.939  52.629  1.00  0.00     0.067 Cl
ENDBRANCH   7  13
ENDBRANCH   3   4
ENDBRANCH   1   3
BRANCH   1  15
HETATM   15  C5  UNL     1      25.662   4.867  49.145  1.00  0.00     0.137 A 
HETATM   16  N2  UNL     1      24.501   5.522  49.255  1.00  0.00    -0.224 NA
HETATM   17  C6  UNL     1      24.320   6.801  48.948  1.00  0.00     0.235 A 
HETATM   18  N3  UNL     1      25.344   7.566  48.481  1.00  0.00    -0.241 NA
HETATM   19  C7  UNL     1      26.544   6.979  48.343  1.00  0.00     0.072 A 
HETATM   20  C8  UNL     1      27.588   7.731  47.874  1.00  0.00     0.034 A 
HETATM   21  C12 UNL     1      26.680   5.656  48.674  1.00  0.00     0.040 A 
HETATM   22  C9  UNL     1      28.856   7.170  47.712  1.00  0.00     0.026 A 
HETATM   23  C10 UNL     1      29.000   5.822  48.048  1.00  0.00     0.035 A 
HETATM   24 CL1  UNL     1      30.575   5.075  47.860  1.00  0.00    -0.084 Cl
HETATM   25  C11 UNL     1      27.932   5.090  48.516  1.00  0.00     0.041 A 
ENDBRANCH   1  15
TORSDOF 6
ENDMDL
