MODEL 1
REMARK VINA RESULT:      -7.7      0.000      0.000
REMARK  6 active torsions:
REMARK  status: ('A' for Active; 'I' for Inactive)
REMARK    1  A    between atoms: N1_2  and  C3_4 
REMARK    2  A    between atoms: C3_4  and  C4_5 
REMARK    3  A    between atoms: C4_5  and  O1_6 
REMARK    4  A    between atoms: O1_6  and  C5_7 
REMARK    5  A    between atoms: C8_10  and  N2_11 
REMARK    6  A    between atoms: N2_11  and  C9_12 
ROOT
HETATM    1  C5  UNL     1      24.068   4.376  49.486  1.00  0.00     0.103 C 
HETATM    2  C6  UNL     1      24.399   3.201  48.911  1.00  0.00     0.051 C 
HETATM    3  C7  UNL     1      25.237   3.079  50.149  1.00  0.00    -0.006 C 
HETATM    4  C8  UNL     1      25.313   2.869  51.452  1.00  0.00     0.136 C 
HETATM    5  N3  UNL     1      24.136   2.727  52.283  1.00  0.00    -0.224 NA
HETATM    6  C15 UNL     1      23.562   3.843  52.689  1.00  0.00     0.237 C 
HETATM    7  N4  UNL     1      23.574   5.280  52.683  1.00  0.00    -0.230 NA
HETATM    8  C16 UNL     1      23.826   5.991  51.636  1.00  0.00     0.260 C 
HETATM    9  O2  UNL     1      24.150   6.265  50.270  1.00  0.00    -0.302 OA
HETATM   10  C17 UNL     1      25.114   5.423  49.664  1.00  0.00     0.106 C 
HETATM   11  C18 UNL     1      26.300   4.979  49.172  1.00  0.00     0.018 C 
HETATM   12  C19 UNL     1      26.550   3.511  49.527  1.00  0.00     0.072 C 
ENDROOT
BRANCH   4  13
HETATM   13  N2  UNL     1      26.340   2.803  52.432  1.00  0.00    -0.340 N 
HETATM   14  H12 UNL     1      26.518   3.685  52.963  1.00  0.00     0.167 HD
BRANCH  13  15
HETATM   15  C9  UNL     1      27.133   1.671  52.751  1.00  0.00     0.035 A 
HETATM   16  C10 UNL     1      28.369   1.800  53.354  1.00  0.00     0.032 A 
HETATM   17  C11 UNL     1      29.191   0.752  53.689  1.00  0.00     0.046 A 
HETATM   18  C12 UNL     1      28.779  -0.536  53.416  1.00  0.00     0.138 A 
HETATM   19  F1  UNL     1      29.541  -1.612  53.721  1.00  0.00    -0.204 F 
HETATM   20  C13 UNL     1      27.550  -0.713  52.815  1.00  0.00     0.074 A 
HETATM   21 CL1  UNL     1      27.044  -2.369  52.476  1.00  0.00    -0.081 Cl
HETATM   22  C14 UNL     1      26.760   0.360  52.497  1.00  0.00     0.056 A 
ENDBRANCH  13  15
ENDBRANCH   4  13
BRANCH   1  23
HETATM   23  O1  UNL     1      22.741   3.933  49.627  1.00  0.00    -0.347 OA
BRANCH  23  24
HETATM   24  C4  UNL     1      21.826   4.307  48.583  1.00  0.00     0.195 C 
BRANCH  24  25
HETATM   25  C3  UNL     1      20.769   3.260  48.469  1.00  0.00     0.142 C 
BRANCH  25  26
HETATM   26  N1  UNL     1      20.812   2.205  49.393  1.00  0.00    -0.419 N 
HETATM   27  C1  UNL     1      19.844   2.165  50.427  1.00  0.00     0.142 C 
HETATM   28  C2  UNL     1      21.361   0.959  48.975  1.00  0.00     0.142 C 
ENDBRANCH  25  26
ENDBRANCH  24  25
ENDBRANCH  23  24
ENDBRANCH   1  23
TORSDOF 6
ENDMDL
MODEL 2
REMARK VINA RESULT:      -7.3      3.115      4.062
REMARK  6 active torsions:
REMARK  status: ('A' for Active; 'I' for Inactive)
REMARK    1  A    between atoms: N1_2  and  C3_4 
REMARK    2  A    between atoms: C3_4  and  C4_5 
REMARK    3  A    between atoms: C4_5  and  O1_6 
REMARK    4  A    between atoms: O1_6  and  C5_7 
REMARK    5  A    between atoms: C8_10  and  N2_11 
REMARK    6  A    between atoms: N2_11  and  C9_12 
ROOT
HETATM    1  C5  UNL     1      21.495   1.674  51.425  1.00  0.00     0.103 C 
HETATM    2  C6  UNL     1      22.436   1.463  50.482  1.00  0.00     0.051 C 
HETATM    3  C7  UNL     1      23.261   1.123  51.687  1.00  0.00    -0.006 C 
HETATM    4  C8  UNL     1      23.547   0.282  52.666  1.00  0.00     0.136 C 
HETATM    5  N3  UNL     1      22.774  -0.918  52.906  1.00  0.00    -0.224 NA
HETATM    6  C15 UNL     1      21.666  -0.777  53.608  1.00  0.00     0.237 C 
HETATM    7  N4  UNL     1      20.790   0.116  54.316  1.00  0.00    -0.230 NA
HETATM    8  C16 UNL     1      20.472   1.293  53.894  1.00  0.00     0.260 C 
HETATM    9  O2  UNL     1      20.455   2.425  53.021  1.00  0.00    -0.302 OA
HETATM   10  C17 UNL     1      21.684   2.777  52.412  1.00  0.00     0.106 C 
HETATM   11  C18 UNL     1      22.851   3.426  52.161  1.00  0.00     0.018 C 
HETATM   12  C19 UNL     1      23.978   2.453  51.803  1.00  0.00     0.072 C 
ENDROOT
BRANCH   4  13
HETATM   13  N2  UNL     1      24.467   0.226  53.749  1.00  0.00    -0.340 N 
HETATM   14  H12 UNL     1      24.050   0.318  54.702  1.00  0.00     0.167 HD
BRANCH  13  15
HETATM   15  C9  UNL     1      25.872   0.062  53.657  1.00  0.00     0.035 A 
HETATM   16  C10 UNL     1      26.434  -1.115  53.203  1.00  0.00     0.032 A 
HETATM   17  C11 UNL     1      27.784  -1.347  53.090  1.00  0.00     0.046 A 
HETATM   18  C12 UNL     1      28.667  -0.348  53.447  1.00  0.00     0.138 A 
HETATM   19  F1  UNL     1      30.007  -0.512  53.359  1.00  0.00    -0.204 F 
HETATM   20  C13 UNL     1      28.150   0.845  53.905  1.00  0.00     0.074 A 
HETATM   21 CL1  UNL     1      29.298   2.107  54.357  1.00  0.00    -0.081 Cl
HETATM   22  C14 UNL     1      26.797   1.035  54.003  1.00  0.00     0.056 A 
ENDBRANCH  13  15
ENDBRANCH   4  13
BRANCH   1  23
HETATM   23  O1  UNL     1      20.738   0.608  50.910  1.00  0.00    -0.347 OA
BRANCH  23  24
HETATM   24  C4  UNL     1      19.691   0.952  49.987  1.00  0.00     0.195 C 
BRANCH  24  25
HETATM   25  C3  UNL     1      18.399   1.026  50.729  1.00  0.00     0.142 C 
BRANCH  25  26
HETATM   26  N1  UNL     1      17.648  -0.155  50.823  1.00  0.00    -0.419 N 
HETATM   27  C1  UNL     1      17.332  -0.662  52.108  1.00  0.00     0.142 C 
HETATM   28  C2  UNL     1      16.746  -0.471  49.767  1.00  0.00     0.142 C 
ENDBRANCH  25  26
ENDBRANCH  24  25
ENDBRANCH  23  24
ENDBRANCH   1  23
TORSDOF 6
ENDMDL
MODEL 3
REMARK VINA RESULT:      -7.1      1.194      1.660
REMARK  6 active torsions:
REMARK  status: ('A' for Active; 'I' for Inactive)
REMARK    1  A    between atoms: N1_2  and  C3_4 
REMARK    2  A    between atoms: C3_4  and  C4_5 
REMARK    3  A    between atoms: C4_5  and  O1_6 
REMARK    4  A    between atoms: O1_6  and  C5_7 
REMARK    5  A    between atoms: C8_10  and  N2_11 
REMARK    6  A    between atoms: N2_11  and  C9_12 
ROOT
HETATM    1  C5  UNL     1      24.035   4.595  49.444  1.00  0.00     0.103 C 
HETATM    2  C6  UNL     1      24.161   3.393  48.846  1.00  0.00     0.051 C 
HETATM    3  C7  UNL     1      24.927   3.091  50.099  1.00  0.00    -0.006 C 
HETATM    4  C8  UNL     1      24.928   2.842  51.398  1.00  0.00     0.136 C 
HETATM    5  N3  UNL     1      23.722   2.902  52.197  1.00  0.00    -0.224 NA
HETATM    6  C15 UNL     1      23.351   4.096  52.619  1.00  0.00     0.237 C 
HETATM    7  N4  UNL     1      23.627   5.505  52.651  1.00  0.00    -0.230 NA
HETATM    8  C16 UNL     1      24.035   6.180  51.629  1.00  0.00     0.260 C 
HETATM    9  O2  UNL     1      24.442   6.419  50.280  1.00  0.00    -0.302 OA
HETATM   10  C17 UNL     1      25.251   5.428  49.674  1.00  0.00     0.106 C 
HETATM   11  C18 UNL     1      26.348   4.783  49.198  1.00  0.00     0.018 C 
HETATM   12  C19 UNL     1      26.314   3.286  49.520  1.00  0.00     0.072 C 
ENDROOT
BRANCH   4  13
HETATM   13  N2  UNL     1      25.897   2.567  52.400  1.00  0.00    -0.340 N 
HETATM   14  H12 UNL     1      26.124   3.360  53.041  1.00  0.00     0.167 HD
BRANCH  13  15
HETATM   15  C9  UNL     1      26.574   1.338  52.606  1.00  0.00     0.035 A 
HETATM   16  C10 UNL     1      25.940   0.124  52.423  1.00  0.00     0.032 A 
HETATM   17  C11 UNL     1      26.531  -1.104  52.606  1.00  0.00     0.046 A 
HETATM   18  C12 UNL     1      27.852  -1.159  53.000  1.00  0.00     0.138 A 
HETATM   19  F1  UNL     1      28.491  -2.336  53.197  1.00  0.00    -0.204 F 
HETATM   20  C13 UNL     1      28.524   0.029  53.194  1.00  0.00     0.074 A 
HETATM   21 CL1  UNL     1      30.213  -0.067  53.698  1.00  0.00    -0.081 Cl
HETATM   22  C14 UNL     1      27.899   1.232  53.001  1.00  0.00     0.056 A 
ENDBRANCH  13  15
ENDBRANCH   4  13
BRANCH   1  23
HETATM   23  O1  UNL     1      22.646   4.402  49.542  1.00  0.00    -0.347 OA
BRANCH  23  24
HETATM   24  C4  UNL     1      21.904   4.449  48.312  1.00  0.00     0.195 C 
BRANCH  24  25
HETATM   25  C3  UNL     1      20.449   4.548  48.630  1.00  0.00     0.142 C 
BRANCH  25  26
HETATM   26  N1  UNL     1      19.623   3.512  48.168  1.00  0.00    -0.419 N 
HETATM   27  C1  UNL     1      19.466   3.337  46.771  1.00  0.00     0.142 C 
HETATM   28  C2  UNL     1      19.466   2.355  48.984  1.00  0.00     0.142 C 
ENDBRANCH  25  26
ENDBRANCH  24  25
ENDBRANCH  23  24
ENDBRANCH   1  23
TORSDOF 6
ENDMDL
MODEL 4
REMARK VINA RESULT:      -7.0      2.550      3.424
REMARK  6 active torsions:
REMARK  status: ('A' for Active; 'I' for Inactive)
REMARK    1  A    between atoms: N1_2  and  C3_4 
REMARK    2  A    between atoms: C3_4  and  C4_5 
REMARK    3  A    between atoms: C4_5  and  O1_6 
REMARK    4  A    between atoms: O1_6  and  C5_7 
REMARK    5  A    between atoms: C8_10  and  N2_11 
REMARK    6  A    between atoms: N2_11  and  C9_12 
ROOT
HETATM    1  C5  UNL     1      21.562   3.436  50.832  1.00  0.00     0.103 C 
HETATM    2  C6  UNL     1      22.688   3.560  50.099  1.00  0.00     0.051 C 
HETATM    3  C7  UNL     1      23.257   2.762  51.234  1.00  0.00    -0.006 C 
HETATM    4  C8  UNL     1      23.371   1.606  51.864  1.00  0.00     0.136 C 
HETATM    5  N3  UNL     1      22.619   0.432  51.469  1.00  0.00    -0.224 NA
HETATM    6  C15 UNL     1      21.384   0.341  51.923  1.00  0.00     0.237 C 
HETATM    7  N4  UNL     1      20.340   0.935  52.711  1.00  0.00    -0.230 NA
HETATM    8  C16 UNL     1      20.064   2.196  52.703  1.00  0.00     0.260 C 
HETATM    9  O2  UNL     1      20.178   3.572  52.334  1.00  0.00    -0.302 OA
HETATM   10  C17 UNL     1      21.490   4.081  52.175  1.00  0.00     0.106 C 
HETATM   11  C18 UNL     1      22.653   4.733  52.437  1.00  0.00     0.018 C 
HETATM   12  C19 UNL     1      23.873   3.924  51.987  1.00  0.00     0.072 C 
ENDROOT
BRANCH   4  13
HETATM   13  N2  UNL     1      24.045   1.114  53.015  1.00  0.00    -0.340 N 
HETATM   14  H12 UNL     1      23.457   1.001  53.871  1.00  0.00     0.167 HD
BRANCH  13  15
HETATM   15  C9  UNL     1      25.417   0.769  53.108  1.00  0.00     0.035 A 
HETATM   16  C10 UNL     1      25.852  -0.527  52.910  1.00  0.00     0.032 A 
HETATM   17  C11 UNL     1      27.163  -0.934  52.987  1.00  0.00     0.046 A 
HETATM   18  C12 UNL     1      28.137  -0.002  53.280  1.00  0.00     0.138 A 
HETATM   19  F1  UNL     1      29.445  -0.338  53.370  1.00  0.00    -0.204 F 
HETATM   20  C13 UNL     1      27.748   1.305  53.484  1.00  0.00     0.074 A 
HETATM   21 CL1  UNL     1      29.012   2.479  53.858  1.00  0.00    -0.081 Cl
HETATM   22  C14 UNL     1      26.430   1.670  53.399  1.00  0.00     0.056 A 
ENDBRANCH  13  15
ENDBRANCH   4  13
BRANCH   1  23
HETATM   23  O1  UNL     1      20.979   2.670  49.807  1.00  0.00    -0.347 OA
BRANCH  23  24
HETATM   24  C4  UNL     1      20.458   3.395  48.682  1.00  0.00     0.195 C 
BRANCH  24  25
HETATM   25  C3  UNL     1      19.064   2.934  48.413  1.00  0.00     0.142 C 
BRANCH  25  26
HETATM   26  N1  UNL     1      18.061   3.399  49.278  1.00  0.00    -0.419 N 
HETATM   27  C1  UNL     1      17.411   2.471  50.128  1.00  0.00     0.142 C 
HETATM   28  C2  UNL     1      18.124   4.749  49.726  1.00  0.00     0.142 C 
ENDBRANCH  25  26
ENDBRANCH  24  25
ENDBRANCH  23  24
ENDBRANCH   1  23
TORSDOF 6
ENDMDL
MODEL 5
REMARK VINA RESULT:      -6.8      2.624      4.398
REMARK  6 active torsions:
REMARK  status: ('A' for Active; 'I' for Inactive)
REMARK    1  A    between atoms: N1_2  and  C3_4 
REMARK    2  A    between atoms: C3_4  and  C4_5 
REMARK    3  A    between atoms: C4_5  and  O1_6 
REMARK    4  A    between atoms: O1_6  and  C5_7 
REMARK    5  A    between atoms: C8_10  and  N2_11 
REMARK    6  A    between atoms: N2_11  and  C9_12 
ROOT
HETATM    1  C5  UNL     1      20.436   2.344  51.354  1.00  0.00     0.103 C 
HETATM    2  C6  UNL     1      20.727   2.746  52.608  1.00  0.00     0.051 C 
HETATM    3  C7  UNL     1      22.009   2.028  52.310  1.00  0.00    -0.006 C 
HETATM    4  C8  UNL     1      23.167   1.989  51.673  1.00  0.00     0.136 C 
HETATM    5  N3  UNL     1      23.550   2.993  50.703  1.00  0.00    -0.224 NA
HETATM    6  C15 UNL     1      23.089   2.838  49.478  1.00  0.00     0.237 C 
HETATM    7  N4  UNL     1      22.299   2.046  48.576  1.00  0.00    -0.230 NA
HETATM    8  C16 UNL     1      21.163   1.519  48.889  1.00  0.00     0.260 C 
HETATM    9  O2  UNL     1      20.038   1.192  49.709  1.00  0.00    -0.302 OA
HETATM   10  C17 UNL     1      20.308   0.887  51.065  1.00  0.00     0.106 C 
HETATM   11  C18 UNL     1      20.514   0.171  52.201  1.00  0.00     0.018 C 
HETATM   12  C19 UNL     1      21.670   0.737  53.030  1.00  0.00     0.072 C 
ENDROOT
BRANCH   4  13
HETATM   13  N2  UNL     1      24.272   1.100  51.586  1.00  0.00    -0.340 N 
HETATM   14  H12 UNL     1      24.318   0.518  50.720  1.00  0.00     0.167 HD
BRANCH  13  15
HETATM   15  C9  UNL     1      25.299   0.931  52.549  1.00  0.00     0.035 A 
HETATM   16  C10 UNL     1      25.253  -0.083  53.485  1.00  0.00     0.032 A 
HETATM   17  C11 UNL     1      26.209  -0.306  54.448  1.00  0.00     0.046 A 
HETATM   18  C12 UNL     1      27.306   0.528  54.507  1.00  0.00     0.138 A 
HETATM   19  F1  UNL     1      28.283   0.363  55.430  1.00  0.00    -0.204 F 
HETATM   20  C13 UNL     1      27.395   1.554  53.590  1.00  0.00     0.074 A 
HETATM   21 CL1  UNL     1      28.807   2.608  53.685  1.00  0.00    -0.081 Cl
HETATM   22  C14 UNL     1      26.420   1.742  52.646  1.00  0.00     0.056 A 
ENDBRANCH  13  15
ENDBRANCH   4  13
BRANCH   1  23
HETATM   23  O1  UNL     1      20.400   3.685  50.932  1.00  0.00    -0.347 OA
BRANCH  23  24
HETATM   24  C4  UNL     1      19.104   4.227  50.630  1.00  0.00     0.195 C 
BRANCH  24  25
HETATM   25  C3  UNL     1      19.116   4.763  49.237  1.00  0.00     0.142 C 
BRANCH  25  26
HETATM   26  N1  UNL     1      20.229   5.529  48.858  1.00  0.00    -0.419 N 
HETATM   27  C1  UNL     1      20.825   5.286  47.596  1.00  0.00     0.142 C 
HETATM   28  C2  UNL     1      20.360   6.844  49.391  1.00  0.00     0.142 C 
ENDBRANCH  25  26
ENDBRANCH  24  25
ENDBRANCH  23  24
ENDBRANCH   1  23
TORSDOF 6
ENDMDL
MODEL 6
REMARK VINA RESULT:      -6.8      2.075      2.685
REMARK  6 active torsions:
REMARK  status: ('A' for Active; 'I' for Inactive)
REMARK    1  A    between atoms: N1_2  and  C3_4 
REMARK    2  A    between atoms: C3_4  and  C4_5 
REMARK    3  A    between atoms: C4_5  and  O1_6 
REMARK    4  A    between atoms: O1_6  and  C5_7 
REMARK    5  A    between atoms: C8_10  and  N2_11 
REMARK    6  A    between atoms: N2_11  and  C9_12 
ROOT
HETATM    1  C5  UNL     1      21.943   3.715  50.429  1.00  0.00     0.103 C 
HETATM    2  C6  UNL     1      21.890   2.487  49.873  1.00  0.00     0.051 C 
HETATM    3  C7  UNL     1      23.351   2.507  50.208  1.00  0.00    -0.006 C 
HETATM    4  C8  UNL     1      24.309   2.443  51.117  1.00  0.00     0.136 C 
HETATM    5  N3  UNL     1      24.025   2.384  52.536  1.00  0.00    -0.224 NA
HETATM    6  C15 UNL     1      23.792   3.534  53.140  1.00  0.00     0.237 C 
HETATM    7  N4  UNL     1      23.681   4.961  53.019  1.00  0.00    -0.230 NA
HETATM    8  C16 UNL     1      23.097   5.555  52.033  1.00  0.00     0.260 C 
HETATM    9  O2  UNL     1      22.384   5.680  50.800  1.00  0.00    -0.302 OA
HETATM   10  C17 UNL     1      22.744   4.784  49.764  1.00  0.00     0.106 C 
HETATM   11  C18 UNL     1      23.311   4.297  48.630  1.00  0.00     0.018 C 
HETATM   12  C19 UNL     1      23.853   2.878  48.827  1.00  0.00     0.072 C 
ENDROOT
BRANCH   4  13
HETATM   13  N2  UNL     1      25.729   2.492  51.132  1.00  0.00    -0.340 N 
HETATM   14  H12 UNL     1      26.165   3.200  50.499  1.00  0.00     0.167 HD
BRANCH  13  15
HETATM   15  C9  UNL     1      26.595   1.683  51.911  1.00  0.00     0.035 A 
HETATM   16  C10 UNL     1      26.527   0.304  51.870  1.00  0.00     0.032 A 
HETATM   17  C11 UNL     1      27.330  -0.542  52.597  1.00  0.00     0.046 A 
HETATM   18  C12 UNL     1      28.284  -0.003  53.436  1.00  0.00     0.138 A 
HETATM   19  F1  UNL     1      29.106  -0.781  54.179  1.00  0.00    -0.204 F 
HETATM   20  C13 UNL     1      28.387   1.370  53.508  1.00  0.00     0.074 A 
HETATM   21 CL1  UNL     1      29.613   2.036  54.590  1.00  0.00    -0.081 Cl
HETATM   22  C14 UNL     1      27.566   2.178  52.767  1.00  0.00     0.056 A 
ENDBRANCH  13  15
ENDBRANCH   4  13
BRANCH   1  23
HETATM   23  O1  UNL     1      21.106   3.281  51.472  1.00  0.00    -0.347 OA
BRANCH  23  24
HETATM   24  C4  UNL     1      20.226   2.185  51.173  1.00  0.00     0.195 C 
BRANCH  24  25
HETATM   25  C3  UNL     1      19.871   1.489  52.444  1.00  0.00     0.142 C 
BRANCH  25  26
HETATM   26  N1  UNL     1      20.874   0.720  53.053  1.00  0.00    -0.419 N 
HETATM   27  C1  UNL     1      20.755   0.410  54.429  1.00  0.00     0.142 C 
HETATM   28  C2  UNL     1      21.608  -0.197  52.247  1.00  0.00     0.142 C 
ENDBRANCH  25  26
ENDBRANCH  24  25
ENDBRANCH  23  24
ENDBRANCH   1  23
TORSDOF 6
ENDMDL
MODEL 7
REMARK VINA RESULT:      -6.7      2.071      3.551
REMARK  6 active torsions:
REMARK  status: ('A' for Active; 'I' for Inactive)
REMARK    1  A    between atoms: N1_2  and  C3_4 
REMARK    2  A    between atoms: C3_4  and  C4_5 
REMARK    3  A    between atoms: C4_5  and  O1_6 
REMARK    4  A    between atoms: O1_6  and  C5_7 
REMARK    5  A    between atoms: C8_10  and  N2_11 
REMARK    6  A    between atoms: N2_11  and  C9_12 
ROOT
HETATM    1  C5  UNL     1      21.363   2.914  50.465  1.00  0.00     0.103 C 
HETATM    2  C6  UNL     1      20.673   3.038  51.617  1.00  0.00     0.051 C 
HETATM    3  C7  UNL     1      22.057   3.176  52.179  1.00  0.00    -0.006 C 
HETATM    4  C8  UNL     1      23.149   3.903  52.341  1.00  0.00     0.136 C 
HETATM    5  N3  UNL     1      23.325   5.189  51.699  1.00  0.00    -0.224 NA
HETATM    6  C15 UNL     1      23.751   5.172  50.451  1.00  0.00     0.237 C 
HETATM    7  N4  UNL     1      24.162   4.380  49.325  1.00  0.00    -0.230 NA
HETATM    8  C16 UNL     1      23.572   3.292  48.959  1.00  0.00     0.260 C 
HETATM    9  O2  UNL     1      22.614   2.231  48.994  1.00  0.00    -0.302 OA
HETATM   10  C17 UNL     1      22.259   1.737  50.273  1.00  0.00     0.106 C 
HETATM   11  C18 UNL     1      22.211   0.937  51.370  1.00  0.00     0.018 C 
HETATM   12  C19 UNL     1      22.202   1.748  52.668  1.00  0.00     0.072 C 
ENDROOT
BRANCH   4  13
HETATM   13  N2  UNL     1      24.407   3.753  52.985  1.00  0.00    -0.340 N 
HETATM   14  H12 UNL     1      24.701   4.548  53.596  1.00  0.00     0.167 HD
BRANCH  13  15
HETATM   15  C9  UNL     1      25.286   2.646  52.876  1.00  0.00     0.035 A 
HETATM   16  C10 UNL     1      25.681   2.153  51.648  1.00  0.00     0.032 A 
HETATM   17  C11 UNL     1      26.526   1.085  51.466  1.00  0.00     0.046 A 
HETATM   18  C12 UNL     1      27.034   0.438  52.573  1.00  0.00     0.138 A 
HETATM   19  F1  UNL     1      27.871  -0.620  52.463  1.00  0.00    -0.204 F 
HETATM   20  C13 UNL     1      26.668   0.896  53.821  1.00  0.00     0.074 A 
HETATM   21 CL1  UNL     1      27.330   0.052  55.223  1.00  0.00    -0.081 Cl
HETATM   22  C14 UNL     1      25.822   1.965  53.959  1.00  0.00     0.056 A 
ENDBRANCH  13  15
ENDBRANCH   4  13
BRANCH   1  23
HETATM   23  O1  UNL     1      20.796   4.111  49.995  1.00  0.00    -0.347 OA
BRANCH  23  24
HETATM   24  C4  UNL     1      19.641   3.986  49.151  1.00  0.00     0.195 C 
BRANCH  24  25
HETATM   25  C3  UNL     1      19.648   5.096  48.153  1.00  0.00     0.142 C 
BRANCH  25  26
HETATM   26  N1  UNL     1      20.558   4.994  47.091  1.00  0.00    -0.419 N 
HETATM   27  C1  UNL     1      21.674   5.867  47.064  1.00  0.00     0.142 C 
HETATM   28  C2  UNL     1      20.711   3.732  46.447  1.00  0.00     0.142 C 
ENDBRANCH  25  26
ENDBRANCH  24  25
ENDBRANCH  23  24
ENDBRANCH   1  23
TORSDOF 6
ENDMDL
MODEL 8
REMARK VINA RESULT:      -6.6      4.054      5.719
REMARK  6 active torsions:
REMARK  status: ('A' for Active; 'I' for Inactive)
REMARK    1  A    between atoms: N1_2  and  C3_4 
REMARK    2  A    between atoms: C3_4  and  C4_5 
REMARK    3  A    between atoms: C4_5  and  O1_6 
REMARK    4  A    between atoms: O1_6  and  C5_7 
REMARK    5  A    between atoms: C8_10  and  N2_11 
REMARK    6  A    between atoms: N2_11  and  C9_12 
ROOT
HETATM    1  C5  UNL     1      22.100   4.571  49.696  1.00  0.00     0.103 C 
HETATM    2  C6  UNL     1      21.856   4.388  48.383  1.00  0.00     0.051 C 
HETATM    3  C7  UNL     1      21.244   3.118  48.894  1.00  0.00    -0.006 C 
HETATM    4  C8  UNL     1      20.257   2.507  49.526  1.00  0.00     0.136 C 
HETATM    5  N3  UNL     1      19.177   3.235  50.160  1.00  0.00    -0.224 NA
HETATM    6  C15 UNL     1      19.410   3.701  51.371  1.00  0.00     0.237 C 
HETATM    7  N4  UNL     1      20.340   3.828  52.459  1.00  0.00    -0.230 NA
HETATM    8  C16 UNL     1      21.596   4.083  52.303  1.00  0.00     0.260 C 
HETATM    9  O2  UNL     1      22.812   4.360  51.604  1.00  0.00    -0.302 OA
HETATM   10  C17 UNL     1      23.032   3.644  50.402  1.00  0.00     0.106 C 
HETATM   11  C18 UNL     1      23.509   2.718  49.531  1.00  0.00     0.018 C 
HETATM   12  C19 UNL     1      22.418   2.209  48.585  1.00  0.00     0.072 C 
ENDROOT
BRANCH   4  13
HETATM   13  N2  UNL     1      19.924   1.173  49.884  1.00  0.00    -0.340 N 
HETATM   14  H12 UNL     1      19.409   0.624  49.160  1.00  0.00     0.167 HD
BRANCH  13  15
HETATM   15  C9  UNL     1      20.219   0.528  51.113  1.00  0.00     0.035 A 
HETATM   16  C10 UNL     1      19.219   0.071  51.948  1.00  0.00     0.032 A 
HETATM   17  C11 UNL     1      19.429  -0.559  53.151  1.00  0.00     0.046 A 
HETATM   18  C12 UNL     1      20.723  -0.764  53.582  1.00  0.00     0.138 A 
HETATM   19  F1  UNL     1      20.999  -1.378  54.757  1.00  0.00    -0.204 F 
HETATM   20  C13 UNL     1      21.754  -0.324  52.779  1.00  0.00     0.074 A 
HETATM   21 CL1  UNL     1      23.402  -0.597  53.351  1.00  0.00    -0.081 Cl
HETATM   22  C14 UNL     1      21.502   0.300  51.586  1.00  0.00     0.056 A 
ENDBRANCH  13  15
ENDBRANCH   4  13
BRANCH   1  23
HETATM   23  O1  UNL     1      21.240   5.683  49.702  1.00  0.00    -0.347 OA
BRANCH  23  24
HETATM   24  C4  UNL     1      21.805   6.933  49.275  1.00  0.00     0.195 C 
BRANCH  24  25
HETATM   25  C3  UNL     1      22.511   7.564  50.429  1.00  0.00     0.142 C 
BRANCH  25  26
HETATM   26  N1  UNL     1      23.848   7.940  50.230  1.00  0.00    -0.419 N 
HETATM   27  C1  UNL     1      24.874   7.071  50.677  1.00  0.00     0.142 C 
HETATM   28  C2  UNL     1      24.157   8.789  49.129  1.00  0.00     0.142 C 
ENDBRANCH  25  26
ENDBRANCH  24  25
ENDBRANCH  23  24
ENDBRANCH   1  23
TORSDOF 6
ENDMDL
MODEL 9
REMARK VINA RESULT:      -6.5      4.287      6.041
REMARK  6 active torsions:
REMARK  status: ('A' for Active; 'I' for Inactive)
REMARK    1  A    between atoms: N1_2  and  C3_4 
REMARK    2  A    between atoms: C3_4  and  C4_5 
REMARK    3  A    between atoms: C4_5  and  O1_6 
REMARK    4  A    between atoms: O1_6  and  C5_7 
REMARK    5  A    between atoms: C8_10  and  N2_11 
REMARK    6  A    between atoms: N2_11  and  C9_12 
ROOT
HETATM    1  C5  UNL     1      23.079   2.477  50.437  1.00  0.00     0.103 C 
HETATM    2  C6  UNL     1      23.823   2.047  51.476  1.00  0.00     0.051 C 
HETATM    3  C7  UNL     1      24.081   3.517  51.621  1.00  0.00    -0.006 C 
HETATM    4  C8  UNL     1      23.647   4.717  51.968  1.00  0.00     0.136 C 
HETATM    5  N3  UNL     1      22.278   4.957  52.374  1.00  0.00    -0.224 NA
HETATM    6  C15 UNL     1      21.397   5.128  51.407  1.00  0.00     0.237 C 
HETATM    7  N4  UNL     1      21.152   5.192  49.993  1.00  0.00    -0.230 NA
HETATM    8  C16 UNL     1      21.684   4.387  49.135  1.00  0.00     0.260 C 
HETATM    9  O2  UNL     1      22.489   3.305  48.660  1.00  0.00    -0.302 OA
HETATM   10  C17 UNL     1      23.751   3.132  49.278  1.00  0.00     0.106 C 
HETATM   11  C18 UNL     1      25.092   3.176  49.487  1.00  0.00     0.018 C 
HETATM   12  C19 UNL     1      25.433   3.538  50.935  1.00  0.00     0.072 C 
ENDROOT
BRANCH   4  13
HETATM   13  N2  UNL     1      24.170   6.038  52.001  1.00  0.00    -0.340 N 
HETATM   14  H12 UNL     1      24.368   6.424  52.951  1.00  0.00     0.167 HD
BRANCH  13  15
HETATM   15  C9  UNL     1      24.441   6.868  50.883  1.00  0.00     0.035 A 
HETATM   16  C10 UNL     1      23.570   7.868  50.497  1.00  0.00     0.032 A 
HETATM   17  C11 UNL     1      23.765   8.707  49.426  1.00  0.00     0.046 A 
HETATM   18  C12 UNL     1      24.905   8.565  48.663  1.00  0.00     0.138 A 
HETATM   19  F1  UNL     1      25.157   9.359  47.596  1.00  0.00    -0.204 F 
HETATM   20  C13 UNL     1      25.804   7.579  49.013  1.00  0.00     0.074 A 
HETATM   21 CL1  UNL     1      27.255   7.415  48.022  1.00  0.00    -0.081 Cl
HETATM   22  C14 UNL     1      25.572   6.763  50.088  1.00  0.00     0.056 A 
ENDBRANCH  13  15
ENDBRANCH   4  13
BRANCH   1  23
HETATM   23  O1  UNL     1      21.916   2.017  51.079  1.00  0.00    -0.347 OA
BRANCH  23  24
HETATM   24  C4  UNL     1      21.520   0.664  50.797  1.00  0.00     0.195 C 
BRANCH  24  25
HETATM   25  C3  UNL     1      20.729   0.141  51.949  1.00  0.00     0.142 C 
BRANCH  25  26
HETATM   26  N1  UNL     1      21.415  -0.054  53.157  1.00  0.00    -0.419 N 
HETATM   27  C1  UNL     1      20.748   0.234  54.373  1.00  0.00     0.142 C 
HETATM   28  C2  UNL     1      22.440  -1.042  53.203  1.00  0.00     0.142 C 
ENDBRANCH  25  26
ENDBRANCH  24  25
ENDBRANCH  23  24
ENDBRANCH   1  23
TORSDOF 6
ENDMDL
