MODEL 1
REMARK VINA RESULT:      -8.3      0.000      0.000
REMARK  0 active torsions:
REMARK  status: ('A' for Active; 'I' for Inactive)
ROOT
HETATM    1  C1  UNL     1      19.932   3.520  51.193  1.00  0.00     0.070 C 
HETATM    2  C2  UNL     1      21.279   3.379  51.824  1.00  0.00     0.030 C 
HETATM    3  C3  UNL     1      22.354   4.020  52.227  1.00  0.00     0.025 C 
HETATM    4  C4  UNL     1      23.674   4.224  52.799  1.00  0.00     0.010 C 
HETATM    5  C5  UNL     1      24.418   3.225  53.261  1.00  0.00     0.179 C 
HETATM    6  O1  UNL     1      25.467   2.542  53.821  1.00  0.00    -0.355 OA
HETATM    7  C6  UNL     1      26.165   1.578  53.036  1.00  0.00     0.225 C 
HETATM    8  C7  UNL     1      27.610   2.191  52.835  1.00  0.00     0.063 C 
HETATM    9  N1  UNL     1      26.426   0.347  53.644  1.00  0.00    -0.310 N 
HETATM   10  S1  UNL     1      25.288  -0.689  54.270  1.00  0.00     0.148 S 
HETATM   11  O2  UNL     1      25.477  -0.822  55.788  1.00  0.00    -0.230 OA
HETATM   12  C8  UNL     1      23.624  -0.565  53.835  1.00  0.00     0.053 A 
HETATM   13  C9  UNL     1      22.768  -1.290  54.657  1.00  0.00     0.024 A 
HETATM   14  C10 UNL     1      21.397  -1.292  54.478  1.00  0.00     0.021 A 
HETATM   15  C11 UNL     1      20.951  -0.507  53.409  1.00  0.00     0.022 A 
HETATM   16 BR1  UNL     1      19.073  -0.443  53.036  1.00  0.00    -0.050 Br
HETATM   17  C12 UNL     1      21.756   0.239  52.556  1.00  0.00     0.000 A 
HETATM   18  C13 UNL     1      23.105   0.163  52.827  1.00  0.00     0.037 A 
HETATM   19  C14 UNL     1      21.079   1.039  51.509  1.00  0.00     0.129 C 
HETATM   20  N2  UNL     1      21.487   2.059  52.142  1.00  0.00    -0.265 NA
HETATM   21  H11 UNL     1      27.388  -0.038  53.470  1.00  0.00     0.172 HD
ENDROOT
TORSDOF 0
ENDMDL
MODEL 2
REMARK VINA RESULT:      -7.9      2.520      4.371
REMARK  0 active torsions:
REMARK  status: ('A' for Active; 'I' for Inactive)
ROOT
HETATM    1  C1  UNL     1      21.398  -1.193  54.406  1.00  0.00     0.070 C 
HETATM    2  C2  UNL     1      22.774  -0.773  54.003  1.00  0.00     0.030 C 
HETATM    3  C3  UNL     1      24.059  -1.022  54.129  1.00  0.00     0.025 C 
HETATM    4  C4  UNL     1      25.492  -0.876  53.939  1.00  0.00     0.010 C 
HETATM    5  C5  UNL     1      26.021   0.075  53.175  1.00  0.00     0.179 C 
HETATM    6  O1  UNL     1      26.947   0.850  52.526  1.00  0.00    -0.355 OA
HETATM    7  C6  UNL     1      27.041   2.235  52.850  1.00  0.00     0.225 C 
HETATM    8  C7  UNL     1      28.455   2.394  53.542  1.00  0.00     0.063 C 
HETATM    9  N1  UNL     1      27.114   3.124  51.774  1.00  0.00    -0.310 N 
HETATM   10  S1  UNL     1      25.991   3.277  50.559  1.00  0.00     0.148 S 
HETATM   11  O2  UNL     1      26.614   2.876  49.214  1.00  0.00    -0.230 OA
HETATM   12  C8  UNL     1      24.389   2.666  50.736  1.00  0.00     0.053 A 
HETATM   13  C9  UNL     1      23.673   2.598  49.546  1.00  0.00     0.024 A 
HETATM   14  C10 UNL     1      22.380   2.112  49.486  1.00  0.00     0.021 A 
HETATM   15  C11 UNL     1      21.861   1.695  50.717  1.00  0.00     0.022 A 
HETATM   16 BR1  UNL     1      20.068   1.023  50.779  1.00  0.00    -0.050 Br
HETATM   17  C12 UNL     1      22.526   1.736  51.937  1.00  0.00     0.000 A 
HETATM   18  C13 UNL     1      23.807   2.242  51.876  1.00  0.00     0.037 A 
HETATM   19  C14 UNL     1      21.812   1.204  53.120  1.00  0.00     0.129 C 
HETATM   20  N2  UNL     1      22.681   0.280  53.127  1.00  0.00    -0.265 NA
HETATM   21  H11 UNL     1      27.812   3.902  51.888  1.00  0.00     0.172 HD
ENDROOT
TORSDOF 0
ENDMDL
MODEL 3
REMARK VINA RESULT:      -7.7      3.340      5.282
REMARK  0 active torsions:
REMARK  status: ('A' for Active; 'I' for Inactive)
ROOT
HETATM    1  C1  UNL     1      26.866  -0.073  52.301  1.00  0.00     0.070 C 
HETATM    2  C2  UNL     1      26.383   1.203  51.691  1.00  0.00     0.030 C 
HETATM    3  C3  UNL     1      26.662   2.167  50.841  1.00  0.00     0.025 C 
HETATM    4  C4  UNL     1      26.491   3.392  50.079  1.00  0.00     0.010 C 
HETATM    5  C5  UNL     1      25.415   4.165  50.196  1.00  0.00     0.179 C 
HETATM    6  O1  UNL     1      24.537   5.200  50.003  1.00  0.00    -0.355 OA
HETATM    7  C6  UNL     1      24.232   6.062  51.098  1.00  0.00     0.225 C 
HETATM    8  C7  UNL     1      24.850   7.461  50.693  1.00  0.00     0.063 C 
HETATM    9  N1  UNL     1      22.882   6.359  51.302  1.00  0.00    -0.310 N 
HETATM   10  S1  UNL     1      21.672   5.253  51.574  1.00  0.00     0.148 S 
HETATM   11  O2  UNL     1      20.663   5.283  50.417  1.00  0.00    -0.230 OA
HETATM   12  C8  UNL     1      22.025   3.644  52.082  1.00  0.00     0.053 A 
HETATM   13  C9  UNL     1      20.951   2.768  51.975  1.00  0.00     0.024 A 
HETATM   14  C10 UNL     1      21.050   1.430  52.312  1.00  0.00     0.021 A 
HETATM   15  C11 UNL     1      22.315   1.039  52.764  1.00  0.00     0.022 A 
HETATM   16 BR1  UNL     1      22.582  -0.784  53.288  1.00  0.00    -0.050 Br
HETATM   17  C12 UNL     1      23.426   1.866  52.890  1.00  0.00     0.000 A 
HETATM   18  C13 UNL     1      23.208   3.178  52.528  1.00  0.00     0.037 A 
HETATM   19  C14 UNL     1      24.689   1.244  53.347  1.00  0.00     0.129 C 
HETATM   20  N2  UNL     1      25.134   1.488  52.185  1.00  0.00    -0.265 NA
HETATM   21  H11 UNL     1      22.679   7.364  51.531  1.00  0.00     0.172 HD
ENDROOT
TORSDOF 0
ENDMDL
MODEL 4
REMARK VINA RESULT:      -7.7      2.744      4.576
REMARK  0 active torsions:
REMARK  status: ('A' for Active; 'I' for Inactive)
ROOT
HETATM    1  C1  UNL     1      21.390   4.130  49.385  1.00  0.00     0.070 C 
HETATM    2  C2  UNL     1      21.560   2.864  50.160  1.00  0.00     0.030 C 
HETATM    3  C3  UNL     1      21.016   1.708  50.472  1.00  0.00     0.025 C 
HETATM    4  C4  UNL     1      20.874   0.402  51.093  1.00  0.00     0.010 C 
HETATM    5  C5  UNL     1      21.797  -0.113  51.899  1.00  0.00     0.179 C 
HETATM    6  O1  UNL     1      22.444  -0.984  52.738  1.00  0.00    -0.355 OA
HETATM    7  C6  UNL     1      22.707  -0.585  54.081  1.00  0.00     0.225 C 
HETATM    8  C7  UNL     1      21.803  -1.533  54.969  1.00  0.00     0.063 C 
HETATM    9  N1  UNL     1      23.995  -0.832  54.566  1.00  0.00    -0.310 N 
HETATM   10  S1  UNL     1      25.409  -0.262  53.906  1.00  0.00     0.148 S 
HETATM   11  O2  UNL     1      26.259  -1.433  53.393  1.00  0.00    -0.230 OA
HETATM   12  C8  UNL     1      25.415   1.069  52.810  1.00  0.00     0.053 A 
HETATM   13  C9  UNL     1      26.613   1.231  52.122  1.00  0.00     0.024 A 
HETATM   14  C10 UNL     1      26.798   2.230  51.183  1.00  0.00     0.021 A 
HETATM   15  C11 UNL     1      25.684   3.053  50.986  1.00  0.00     0.022 A 
HETATM   16 BR1  UNL     1      25.815   4.493  49.729  1.00  0.00    -0.050 Br
HETATM   17  C12 UNL     1      24.462   2.941  51.641  1.00  0.00     0.000 A 
HETATM   18  C13 UNL     1      24.394   1.912  52.556  1.00  0.00     0.037 A 
HETATM   19  C14 UNL     1      23.393   3.890  51.255  1.00  0.00     0.129 C 
HETATM   20  N2  UNL     1      22.784   2.883  50.783  1.00  0.00    -0.265 NA
HETATM   21  H11 UNL     1      24.035  -1.206  55.547  1.00  0.00     0.172 HD
ENDROOT
TORSDOF 0
ENDMDL
MODEL 5
REMARK VINA RESULT:      -7.6      3.349      4.997
REMARK  0 active torsions:
REMARK  status: ('A' for Active; 'I' for Inactive)
ROOT
HETATM    1  C1  UNL     1      25.193   4.007  49.365  1.00  0.00     0.070 C 
HETATM    2  C2  UNL     1      24.048   3.090  49.650  1.00  0.00     0.030 C 
HETATM    3  C3  UNL     1      22.957   2.542  49.163  1.00  0.00     0.025 C 
HETATM    4  C4  UNL     1      21.754   1.728  49.118  1.00  0.00     0.010 C 
HETATM    5  C5  UNL     1      21.338   1.007  50.153  1.00  0.00     0.179 C 
HETATM    6  O1  UNL     1      20.580   0.160  50.921  1.00  0.00    -0.355 OA
HETATM    7  C6  UNL     1      19.967   0.663  52.106  1.00  0.00     0.225 C 
HETATM    8  C7  UNL     1      18.414   0.618  51.807  1.00  0.00     0.063 C 
HETATM    9  N1  UNL     1      20.090  -0.124  53.255  1.00  0.00    -0.310 N 
HETATM   10  S1  UNL     1      21.517  -0.606  53.956  1.00  0.00     0.148 S 
HETATM   11  O2  UNL     1      21.648  -2.134  53.885  1.00  0.00    -0.230 OA
HETATM   12  C8  UNL     1      23.006   0.187  53.598  1.00  0.00     0.053 A 
HETATM   13  C9  UNL     1      24.134  -0.510  54.018  1.00  0.00     0.024 A 
HETATM   14  C10 UNL     1      25.417  -0.043  53.797  1.00  0.00     0.021 A 
HETATM   15  C11 UNL     1      25.479   1.179  53.118  1.00  0.00     0.022 A 
HETATM   16 BR1  UNL     1      27.198   1.951  52.769  1.00  0.00    -0.050 Br
HETATM   17  C12 UNL     1      24.390   1.920  52.673  1.00  0.00     0.000 A 
HETATM   18  C13 UNL     1      23.162   1.359  52.952  1.00  0.00     0.037 A 
HETATM   19  C14 UNL     1      24.674   3.172  51.934  1.00  0.00     0.129 C 
HETATM   20  N2  UNL     1      24.186   2.587  50.921  1.00  0.00    -0.265 NA
HETATM   21  H11 UNL     1      19.216  -0.205  53.833  1.00  0.00     0.172 HD
ENDROOT
TORSDOF 0
ENDMDL
MODEL 6
REMARK VINA RESULT:      -7.6      2.192      2.850
REMARK  0 active torsions:
REMARK  status: ('A' for Active; 'I' for Inactive)
ROOT
HETATM    1  C1  UNL     1      19.079   1.554  52.125  1.00  0.00     0.070 C 
HETATM    2  C2  UNL     1      20.329   2.364  52.003  1.00  0.00     0.030 C 
HETATM    3  C3  UNL     1      20.821   3.572  51.841  1.00  0.00     0.025 C 
HETATM    4  C4  UNL     1      21.816   4.621  51.692  1.00  0.00     0.010 C 
HETATM    5  C5  UNL     1      23.122   4.375  51.695  1.00  0.00     0.179 C 
HETATM    6  O1  UNL     1      24.478   4.575  51.643  1.00  0.00    -0.355 OA
HETATM    7  C6  UNL     1      25.226   3.977  50.586  1.00  0.00     0.225 C 
HETATM    8  C7  UNL     1      25.739   5.194  49.716  1.00  0.00     0.063 C 
HETATM    9  N1  UNL     1      26.408   3.326  50.949  1.00  0.00    -0.310 N 
HETATM   10  S1  UNL     1      26.536   2.066  52.024  1.00  0.00     0.148 S 
HETATM   11  O2  UNL     1      27.360   2.498  53.245  1.00  0.00    -0.230 OA
HETATM   12  C8  UNL     1      25.161   1.126  52.472  1.00  0.00     0.053 A 
HETATM   13  C9  UNL     1      25.365   0.321  53.587  1.00  0.00     0.024 A 
HETATM   14  C10 UNL     1      24.370  -0.485  54.110  1.00  0.00     0.021 A 
HETATM   15  C11 UNL     1      23.151  -0.418  53.425  1.00  0.00     0.022 A 
HETATM   16 BR1  UNL     1      21.695  -1.505  54.031  1.00  0.00    -0.050 Br
HETATM   17  C12 UNL     1      22.887   0.367  52.308  1.00  0.00     0.000 A 
HETATM   18  C13 UNL     1      23.953   1.126  51.875  1.00  0.00     0.037 A 
HETATM   19  C14 UNL     1      21.513   0.326  51.757  1.00  0.00     0.129 C 
HETATM   20  N2  UNL     1      21.414   1.532  52.136  1.00  0.00    -0.265 NA
HETATM   21  H11 UNL     1      27.225   3.502  50.311  1.00  0.00     0.172 HD
ENDROOT
TORSDOF 0
ENDMDL
MODEL 7
REMARK VINA RESULT:      -7.3      3.338      5.243
REMARK  0 active torsions:
REMARK  status: ('A' for Active; 'I' for Inactive)
ROOT
HETATM    1  C1  UNL     1      28.009   1.948  53.083  1.00  0.00     0.070 C 
HETATM    2  C2  UNL     1      26.988   2.314  52.055  1.00  0.00     0.030 C 
HETATM    3  C3  UNL     1      26.792   2.855  50.873  1.00  0.00     0.025 C 
HETATM    4  C4  UNL     1      26.074   3.328  49.702  1.00  0.00     0.010 C 
HETATM    5  C5  UNL     1      24.753   3.233  49.584  1.00  0.00     0.179 C 
HETATM    6  O1  UNL     1      23.489   3.333  49.064  1.00  0.00    -0.355 OA
HETATM    7  C6  UNL     1      22.522   4.130  49.744  1.00  0.00     0.225 C 
HETATM    8  C7  UNL     1      22.241   5.344  48.769  1.00  0.00     0.063 C 
HETATM    9  N1  UNL     1      21.255   3.563  49.917  1.00  0.00    -0.310 N 
HETATM   10  S1  UNL     1      20.926   2.136  50.700  1.00  0.00     0.148 S 
HETATM   11  O2  UNL     1      20.351   1.113  49.709  1.00  0.00    -0.230 OA
HETATM   12  C8  UNL     1      22.066   1.419  51.778  1.00  0.00     0.053 A 
HETATM   13  C9  UNL     1      21.778   0.101  52.112  1.00  0.00     0.024 A 
HETATM   14  C10 UNL     1      22.591  -0.646  52.945  1.00  0.00     0.021 A 
HETATM   15  C11 UNL     1      23.720   0.035  53.416  1.00  0.00     0.022 A 
HETATM   16 BR1  UNL     1      24.918  -0.877  54.600  1.00  0.00    -0.050 Br
HETATM   17  C12 UNL     1      24.061   1.350  53.116  1.00  0.00     0.000 A 
HETATM   18  C13 UNL     1      23.176   1.996  52.280  1.00  0.00     0.037 A 
HETATM   19  C14 UNL     1      25.325   1.871  53.684  1.00  0.00     0.129 C 
HETATM   20  N2  UNL     1      25.751   1.906  52.490  1.00  0.00    -0.265 NA
HETATM   21  H11 UNL     1      20.450   4.216  49.742  1.00  0.00     0.172 HD
ENDROOT
TORSDOF 0
ENDMDL
MODEL 8
REMARK VINA RESULT:      -7.3      4.167      6.152
REMARK  0 active torsions:
REMARK  status: ('A' for Active; 'I' for Inactive)
ROOT
HETATM    1  C1  UNL     1      26.753   1.220  51.733  1.00  0.00     0.070 C 
HETATM    2  C2  UNL     1      26.304   2.479  51.065  1.00  0.00     0.030 C 
HETATM    3  C3  UNL     1      26.585   3.368  50.138  1.00  0.00     0.025 C 
HETATM    4  C4  UNL     1      26.436   4.550  49.305  1.00  0.00     0.010 C 
HETATM    5  C5  UNL     1      25.412   5.388  49.425  1.00  0.00     0.179 C 
HETATM    6  O1  UNL     1      24.580   6.456  49.210  1.00  0.00    -0.355 OA
HETATM    7  C6  UNL     1      24.384   7.403  50.258  1.00  0.00     0.225 C 
HETATM    8  C7  UNL     1      25.051   8.736  49.727  1.00  0.00     0.063 C 
HETATM    9  N1  UNL     1      23.065   7.789  50.513  1.00  0.00    -0.310 N 
HETATM   10  S1  UNL     1      21.816   6.774  50.923  1.00  0.00     0.148 S 
HETATM   11  O2  UNL     1      20.745   6.786  49.822  1.00  0.00    -0.230 OA
HETATM   12  C8  UNL     1      22.111   5.183  51.519  1.00  0.00     0.053 A 
HETATM   13  C9  UNL     1      20.987   4.364  51.529  1.00  0.00     0.024 A 
HETATM   14  C10 UNL     1      21.034   3.047  51.951  1.00  0.00     0.021 A 
HETATM   15  C11 UNL     1      22.300   2.616  52.360  1.00  0.00     0.022 A 
HETATM   16 BR1  UNL     1      22.500   0.818  52.991  1.00  0.00    -0.050 Br
HETATM   17  C12 UNL     1      23.459   3.385  52.371  1.00  0.00     0.000 A 
HETATM   18  C13 UNL     1      23.291   4.681  51.933  1.00  0.00     0.037 A 
HETATM   19  C14 UNL     1      24.711   2.723  52.802  1.00  0.00     0.129 C 
HETATM   20  N2  UNL     1      25.102   2.866  51.604  1.00  0.00    -0.265 NA
HETATM   21  H11 UNL     1      22.929   8.817  50.684  1.00  0.00     0.172 HD
ENDROOT
TORSDOF 0
ENDMDL
MODEL 9
REMARK VINA RESULT:      -7.1      3.496      5.230
REMARK  0 active torsions:
REMARK  status: ('A' for Active; 'I' for Inactive)
ROOT
HETATM    1  C1  UNL     1      26.792   2.857  50.974  1.00  0.00     0.070 C 
HETATM    2  C2  UNL     1      25.350   2.868  50.584  1.00  0.00     0.030 C 
HETATM    3  C3  UNL     1      24.483   3.232  49.664  1.00  0.00     0.025 C 
HETATM    4  C4  UNL     1      23.199   3.405  49.006  1.00  0.00     0.010 C 
HETATM    5  C5  UNL     1      22.058   2.985  49.540  1.00  0.00     0.179 C 
HETATM    6  O1  UNL     1      20.720   2.728  49.703  1.00  0.00    -0.355 OA
HETATM    7  C6  UNL     1      20.028   3.330  50.794  1.00  0.00     0.225 C 
HETATM    8  C7  UNL     1      19.016   4.343  50.121  1.00  0.00     0.063 C 
HETATM    9  N1  UNL     1      19.190   2.495  51.539  1.00  0.00    -0.310 N 
HETATM   10  S1  UNL     1      19.652   1.111  52.333  1.00  0.00     0.148 S 
HETATM   11  O2  UNL     1      18.958  -0.109  51.711  1.00  0.00    -0.230 OA
HETATM   12  C8  UNL     1      21.308   0.795  52.697  1.00  0.00     0.053 A 
HETATM   13  C9  UNL     1      21.563  -0.516  53.083  1.00  0.00     0.024 A 
HETATM   14  C10 UNL     1      22.835  -0.963  53.391  1.00  0.00     0.021 A 
HETATM   15  C11 UNL     1      23.834   0.011  53.279  1.00  0.00     0.022 A 
HETATM   16 BR1  UNL     1      25.639  -0.470  53.701  1.00  0.00    -0.050 Br
HETATM   17  C12 UNL     1      23.641   1.334  52.897  1.00  0.00     0.000 A 
HETATM   18  C13 UNL     1      22.333   1.666  52.617  1.00  0.00     0.037 A 
HETATM   19  C14 UNL     1      24.842   2.195  52.798  1.00  0.00     0.129 C 
HETATM   20  N2  UNL     1      24.622   2.218  51.550  1.00  0.00    -0.265 NA
HETATM   21  H11 UNL     1      18.263   2.915  51.800  1.00  0.00     0.172 HD
ENDROOT
TORSDOF 0
ENDMDL
