MODEL 1
REMARK VINA RESULT:      -6.8      0.000      0.000
REMARK  10 active torsions:
REMARK  status: ('A' for Active; 'I' for Inactive)
REMARK    1  A    between atoms: O1_2  and  C2_3 
REMARK    2  A    between atoms: C2_3  and  C3_4 
REMARK    3  A    between atoms: C3_4  and  C15_20 
REMARK    4  A    between atoms: C4_5  and  C5_6 
REMARK    5  A    between atoms: C7_8  and  N1_9 
REMARK    6  A    between atoms: N1_9  and  C8_10 
REMARK    7  A    between atoms: C10_12  and  C11_13 
REMARK    8  A    between atoms: C11_13  and  C12_14 
REMARK    9  A    between atoms: C12_14  and  C13_15 
REMARK   10  A    between atoms: C15_20  and  O2_21 
ROOT
HETATM    1  C5  UNL     1      25.868  -0.377  52.765  1.00  0.00     0.062 A 
HETATM    2  C6  UNL     1      25.899   0.791  52.019  1.00  0.00     0.082 A 
HETATM    3  C7  UNL     1      24.898   1.751  51.973  1.00  0.00     0.131 A 
HETATM    4  N2  UNL     1      23.836   1.468  52.735  1.00  0.00    -0.224 NA
HETATM    5  C14 UNL     1      23.768   0.345  53.473  1.00  0.00     0.235 A 
HETATM    6  N3  UNL     1      24.761  -0.576  53.499  1.00  0.00    -0.242 NA
ENDROOT
BRANCH   3   7
HETATM    7  N1  UNL     1      24.997   2.925  51.177  1.00  0.00    -0.345 N 
HETATM    8  H8  UNL     1      25.757   3.607  51.463  1.00  0.00     0.167 HD
BRANCH   7   9
HETATM    9  C8  UNL     1      24.092   3.050  50.106  1.00  0.00     0.007 C 
HETATM   10  C9  UNL     1      22.809   2.356  49.906  1.00  0.00     0.068 C 
HETATM   11  C10 UNL     1      24.272   3.846  49.071  1.00  0.00     0.024 C 
BRANCH  11  12
HETATM   12  C11 UNL     1      25.572   4.484  49.369  1.00  0.00    -0.001 C 
BRANCH  12  13
HETATM   13  C12 UNL     1      26.528   5.281  48.937  1.00  0.00    -0.016 C 
BRANCH  13  14
HETATM   14  C13 UNL     1      27.381   6.400  48.477  1.00  0.00     0.112 C 
HETATM   15 BR1  UNL     1      29.181   5.669  48.221  1.00  0.00    -0.092 Br
ENDBRANCH  13  14
ENDBRANCH  12  13
ENDBRANCH  11  12
ENDBRANCH   7   9
ENDBRANCH   3   7
BRANCH   1  16
HETATM   16  C4  UNL     1      27.006  -1.281  52.712  1.00  0.00     0.039 C 
HETATM   17  C3  UNL     1      28.180  -1.139  53.302  1.00  0.00    -0.031 C 
BRANCH  17  18
HETATM   18  C2  UNL     1      28.794  -0.137  54.168  1.00  0.00     0.203 C 
BRANCH  18  19
HETATM   19  O1  UNL     1      29.371   0.940  53.485  1.00  0.00    -0.392 OA
HETATM   20  C1  UNL     1      28.744   2.126  53.859  1.00  0.00     0.201 C 
ENDBRANCH  18  19
ENDBRANCH  17  18
BRANCH  17  21
HETATM   21  C15 UNL     1      29.226  -2.180  53.124  1.00  0.00     0.200 C 
BRANCH  21  22
HETATM   22  O2  UNL     1      28.739  -3.455  53.437  1.00  0.00    -0.397 OA
HETATM   23  H20 UNL     1      27.882  -3.572  52.972  1.00  0.00     0.209 HD
ENDBRANCH  21  22
ENDBRANCH  17  21
ENDBRANCH   1  16
TORSDOF 10
ENDMDL
MODEL 2
REMARK VINA RESULT:      -6.6      3.689      5.864
REMARK  10 active torsions:
REMARK  status: ('A' for Active; 'I' for Inactive)
REMARK    1  A    between atoms: O1_2  and  C2_3 
REMARK    2  A    between atoms: C2_3  and  C3_4 
REMARK    3  A    between atoms: C3_4  and  C15_20 
REMARK    4  A    between atoms: C4_5  and  C5_6 
REMARK    5  A    between atoms: C7_8  and  N1_9 
REMARK    6  A    between atoms: N1_9  and  C8_10 
REMARK    7  A    between atoms: C10_12  and  C11_13 
REMARK    8  A    between atoms: C11_13  and  C12_14 
REMARK    9  A    between atoms: C12_14  and  C13_15 
REMARK   10  A    between atoms: C15_20  and  O2_21 
ROOT
HETATM    1  C5  UNL     1      26.108  -0.112  52.448  1.00  0.00     0.062 A 
HETATM    2  C6  UNL     1      24.890  -0.275  53.090  1.00  0.00     0.082 A 
HETATM    3  C7  UNL     1      23.828   0.616  53.052  1.00  0.00     0.131 A 
HETATM    4  N2  UNL     1      24.059   1.709  52.317  1.00  0.00    -0.224 NA
HETATM    5  C14 UNL     1      25.227   1.904  51.679  1.00  0.00     0.235 A 
HETATM    6  N3  UNL     1      26.249   1.017  51.732  1.00  0.00    -0.242 NA
ENDROOT
BRANCH   3   7
HETATM    7  N1  UNL     1      22.607   0.384  53.743  1.00  0.00    -0.345 N 
HETATM    8  H8  UNL     1      21.844   1.101  53.577  1.00  0.00     0.167 HD
BRANCH   7   9
HETATM    9  C8  UNL     1      22.543  -0.761  54.561  1.00  0.00     0.007 C 
HETATM   10  C9  UNL     1      23.573  -1.298  55.465  1.00  0.00     0.068 C 
HETATM   11  C10 UNL     1      21.499  -1.561  54.636  1.00  0.00     0.024 C 
BRANCH  11  12
HETATM   12  C11 UNL     1      20.539  -0.939  53.700  1.00  0.00    -0.001 C 
BRANCH  12  13
HETATM   13  C12 UNL     1      19.302  -0.921  53.249  1.00  0.00    -0.016 C 
BRANCH  13  14
HETATM   14  C13 UNL     1      17.852  -1.084  52.992  1.00  0.00     0.112 C 
HETATM   15 BR1  UNL     1      17.464  -0.130  51.325  1.00  0.00    -0.092 Br
ENDBRANCH  13  14
ENDBRANCH  12  13
ENDBRANCH  11  12
ENDBRANCH   7   9
ENDBRANCH   3   7
BRANCH   1  16
HETATM   16  C4  UNL     1      27.122  -1.146  52.579  1.00  0.00     0.039 C 
HETATM   17  C3  UNL     1      28.233  -1.104  53.293  1.00  0.00    -0.031 C 
BRANCH  17  18
HETATM   18  C2  UNL     1      28.871  -0.122  54.166  1.00  0.00     0.203 C 
BRANCH  18  19
HETATM   19  O1  UNL     1      29.556   0.893  53.489  1.00  0.00    -0.392 OA
HETATM   20  C1  UNL     1      28.962   2.124  53.759  1.00  0.00     0.201 C 
ENDBRANCH  18  19
ENDBRANCH  17  18
BRANCH  17  21
HETATM   21  C15 UNL     1      29.153  -2.272  53.299  1.00  0.00     0.200 C 
BRANCH  21  22
HETATM   22  O2  UNL     1      28.445  -3.480  53.345  1.00  0.00    -0.397 OA
HETATM   23  H20 UNL     1      27.918  -3.489  54.173  1.00  0.00     0.209 HD
ENDBRANCH  21  22
ENDBRANCH  17  21
ENDBRANCH   1  16
TORSDOF 10
ENDMDL
MODEL 3
REMARK VINA RESULT:      -6.4      2.164      2.576
REMARK  10 active torsions:
REMARK  status: ('A' for Active; 'I' for Inactive)
REMARK    1  A    between atoms: O1_2  and  C2_3 
REMARK    2  A    between atoms: C2_3  and  C3_4 
REMARK    3  A    between atoms: C3_4  and  C15_20 
REMARK    4  A    between atoms: C4_5  and  C5_6 
REMARK    5  A    between atoms: C7_8  and  N1_9 
REMARK    6  A    between atoms: N1_9  and  C8_10 
REMARK    7  A    between atoms: C10_12  and  C11_13 
REMARK    8  A    between atoms: C11_13  and  C12_14 
REMARK    9  A    between atoms: C12_14  and  C13_15 
REMARK   10  A    between atoms: C15_20  and  O2_21 
ROOT
HETATM    1  C5  UNL     1      25.904  -0.025  52.662  1.00  0.00     0.062 A 
HETATM    2  C6  UNL     1      26.091   1.281  52.238  1.00  0.00     0.082 A 
HETATM    3  C7  UNL     1      25.126   2.279  52.237  1.00  0.00     0.131 A 
HETATM    4  N2  UNL     1      23.933   1.885  52.695  1.00  0.00    -0.224 NA
HETATM    5  C14 UNL     1      23.713   0.627  53.116  1.00  0.00     0.235 A 
HETATM    6  N3  UNL     1      24.673  -0.329  53.106  1.00  0.00    -0.242 NA
ENDROOT
BRANCH   3   7
HETATM    7  N1  UNL     1      25.390   3.599  51.779  1.00  0.00    -0.345 N 
HETATM    8  H8  UNL     1      25.440   4.343  52.534  1.00  0.00     0.167 HD
BRANCH   7   9
HETATM    9  C8  UNL     1      25.557   3.774  50.392  1.00  0.00     0.007 C 
HETATM   10  C9  UNL     1      26.516   3.109  49.495  1.00  0.00     0.068 C 
HETATM   11  C10 UNL     1      24.845   4.605  49.658  1.00  0.00     0.024 C 
BRANCH  11  12
HETATM   12  C11 UNL     1      23.927   5.213  50.644  1.00  0.00    -0.001 C 
BRANCH  12  13
HETATM   13  C12 UNL     1      22.831   5.917  50.834  1.00  0.00    -0.016 C 
BRANCH  13  14
HETATM   14  C13 UNL     1      21.728   6.906  50.838  1.00  0.00     0.112 C 
HETATM   15 BR1  UNL     1      22.214   8.299  49.550  1.00  0.00    -0.092 Br
ENDBRANCH  13  14
ENDBRANCH  12  13
ENDBRANCH  11  12
ENDBRANCH   7   9
ENDBRANCH   3   7
BRANCH   1  16
HETATM   16  C4  UNL     1      27.023  -0.953  52.608  1.00  0.00     0.039 C 
HETATM   17  C3  UNL     1      28.107  -0.958  53.364  1.00  0.00    -0.031 C 
BRANCH  17  18
HETATM   18  C2  UNL     1      28.614  -0.137  54.460  1.00  0.00     0.203 C 
BRANCH  18  19
HETATM   19  O1  UNL     1      29.573   0.807  54.078  1.00  0.00    -0.392 OA
HETATM   20  C1  UNL     1      28.987   2.067  53.991  1.00  0.00     0.201 C 
ENDBRANCH  18  19
ENDBRANCH  17  18
BRANCH  17  21
HETATM   21  C15 UNL     1      29.149  -1.996  53.153  1.00  0.00     0.200 C 
BRANCH  21  22
HETATM   22  O2  UNL     1      28.658  -3.279  53.429  1.00  0.00    -0.397 OA
HETATM   23  H20 UNL     1      28.562  -3.755  52.576  1.00  0.00     0.209 HD
ENDBRANCH  21  22
ENDBRANCH  17  21
ENDBRANCH   1  16
TORSDOF 10
ENDMDL
MODEL 4
REMARK VINA RESULT:      -6.3      3.137      4.832
REMARK  10 active torsions:
REMARK  status: ('A' for Active; 'I' for Inactive)
REMARK    1  A    between atoms: O1_2  and  C2_3 
REMARK    2  A    between atoms: C2_3  and  C3_4 
REMARK    3  A    between atoms: C3_4  and  C15_20 
REMARK    4  A    between atoms: C4_5  and  C5_6 
REMARK    5  A    between atoms: C7_8  and  N1_9 
REMARK    6  A    between atoms: N1_9  and  C8_10 
REMARK    7  A    between atoms: C10_12  and  C11_13 
REMARK    8  A    between atoms: C11_13  and  C12_14 
REMARK    9  A    between atoms: C12_14  and  C13_15 
REMARK   10  A    between atoms: C15_20  and  O2_21 
ROOT
HETATM    1  C5  UNL     1      26.380   1.130  51.702  1.00  0.00     0.062 A 
HETATM    2  C6  UNL     1      24.997   1.103  51.804  1.00  0.00     0.082 A 
HETATM    3  C7  UNL     1      24.141   2.148  51.486  1.00  0.00     0.131 A 
HETATM    4  N2  UNL     1      24.762   3.248  51.049  1.00  0.00    -0.224 NA
HETATM    5  C14 UNL     1      26.100   3.313  50.936  1.00  0.00     0.235 A 
HETATM    6  N3  UNL     1      26.914   2.278  51.254  1.00  0.00    -0.242 NA
ENDROOT
BRANCH   3   7
HETATM    7  N1  UNL     1      22.729   2.049  51.623  1.00  0.00    -0.345 N 
HETATM    8  H8  UNL     1      22.323   2.494  52.497  1.00  0.00     0.167 HD
BRANCH   7   9
HETATM    9  C8  UNL     1      22.031   1.385  50.597  1.00  0.00     0.007 C 
HETATM   10  C9  UNL     1      22.062   1.651  49.149  1.00  0.00     0.068 C 
HETATM   11  C10 UNL     1      21.202   0.380  50.793  1.00  0.00     0.024 C 
BRANCH  11  12
HETATM   12  C11 UNL     1      21.244   0.200  52.260  1.00  0.00    -0.001 C 
BRANCH  12  13
HETATM   13  C12 UNL     1      21.371  -0.650  53.258  1.00  0.00    -0.016 C 
BRANCH  13  14
HETATM   14  C13 UNL     1      21.415  -1.364  54.555  1.00  0.00     0.112 C 
HETATM   15 BR1  UNL     1      23.235  -1.160  55.250  1.00  0.00    -0.092 Br
ENDBRANCH  13  14
ENDBRANCH  12  13
ENDBRANCH  11  12
ENDBRANCH   7   9
ENDBRANCH   3   7
BRANCH   1  16
HETATM   16  C4  UNL     1      27.139  -0.056  52.068  1.00  0.00     0.039 C 
HETATM   17  C3  UNL     1      27.643  -0.360  53.251  1.00  0.00    -0.031 C 
BRANCH  17  18
HETATM   18  C2  UNL     1      27.666   0.276  54.566  1.00  0.00     0.203 C 
BRANCH  18  19
HETATM   19  O1  UNL     1      28.891   0.864  54.900  1.00  0.00    -0.392 OA
HETATM   20  C1  UNL     1      29.064   2.039  54.173  1.00  0.00     0.201 C 
ENDBRANCH  18  19
ENDBRANCH  17  18
BRANCH  17  21
HETATM   21  C15 UNL     1      28.398  -1.628  53.428  1.00  0.00     0.200 C 
BRANCH  21  22
HETATM   22  O2  UNL     1      27.690  -2.721  52.911  1.00  0.00    -0.397 OA
HETATM   23  H20 UNL     1      26.957  -2.372  52.360  1.00  0.00     0.209 HD
ENDBRANCH  21  22
ENDBRANCH  17  21
ENDBRANCH   1  16
TORSDOF 10
ENDMDL
MODEL 5
REMARK VINA RESULT:      -6.2      1.686      1.700
REMARK  10 active torsions:
REMARK  status: ('A' for Active; 'I' for Inactive)
REMARK    1  A    between atoms: O1_2  and  C2_3 
REMARK    2  A    between atoms: C2_3  and  C3_4 
REMARK    3  A    between atoms: C3_4  and  C15_20 
REMARK    4  A    between atoms: C4_5  and  C5_6 
REMARK    5  A    between atoms: C7_8  and  N1_9 
REMARK    6  A    between atoms: N1_9  and  C8_10 
REMARK    7  A    between atoms: C10_12  and  C11_13 
REMARK    8  A    between atoms: C11_13  and  C12_14 
REMARK    9  A    between atoms: C12_14  and  C13_15 
REMARK   10  A    between atoms: C15_20  and  O2_21 
ROOT
HETATM    1  C5  UNL     1      25.530  -0.208  52.846  1.00  0.00     0.062 A 
HETATM    2  C6  UNL     1      25.207   0.933  52.128  1.00  0.00     0.082 A 
HETATM    3  C7  UNL     1      23.991   1.599  52.168  1.00  0.00     0.131 A 
HETATM    4  N2  UNL     1      23.092   1.044  52.988  1.00  0.00    -0.224 NA
HETATM    5  C14 UNL     1      23.367  -0.063  53.701  1.00  0.00     0.235 A 
HETATM    6  N3  UNL     1      24.564  -0.694  53.643  1.00  0.00    -0.242 NA
ENDROOT
BRANCH   3   7
HETATM    7  N1  UNL     1      23.730   2.765  51.396  1.00  0.00    -0.345 N 
HETATM    8  H8  UNL     1      23.907   3.687  51.888  1.00  0.00     0.167 HD
BRANCH   7   9
HETATM    9  C8  UNL     1      23.274   2.570  50.078  1.00  0.00     0.007 C 
HETATM   10  C9  UNL     1      22.220   1.661  49.600  1.00  0.00     0.068 C 
HETATM   11  C10 UNL     1      23.751   3.205  49.027  1.00  0.00     0.024 C 
BRANCH  11  12
HETATM   12  C11 UNL     1      24.790   4.079  49.613  1.00  0.00    -0.001 C 
BRANCH  12  13
HETATM   13  C12 UNL     1      25.395   5.248  49.566  1.00  0.00    -0.016 C 
BRANCH  13  14
HETATM   14  C13 UNL     1      25.832   6.657  49.690  1.00  0.00     0.112 C 
HETATM   15 BR1  UNL     1      24.329   7.648  50.462  1.00  0.00    -0.092 Br
ENDBRANCH  13  14
ENDBRANCH  12  13
ENDBRANCH  11  12
ENDBRANCH   7   9
ENDBRANCH   3   7
BRANCH   1  16
HETATM   16  C4  UNL     1      26.858  -0.784  52.700  1.00  0.00     0.039 C 
HETATM   17  C3  UNL     1      27.927  -0.550  53.439  1.00  0.00    -0.031 C 
BRANCH  17  18
HETATM   18  C2  UNL     1      28.228   0.290  54.596  1.00  0.00     0.203 C 
BRANCH  18  19
HETATM   19  O1  UNL     1      27.798   1.616  54.472  1.00  0.00    -0.392 OA
HETATM   20  C1  UNL     1      28.660   2.314  53.629  1.00  0.00     0.201 C 
ENDBRANCH  18  19
ENDBRANCH  17  18
BRANCH  17  21
HETATM   21  C15 UNL     1      29.206  -1.240  53.128  1.00  0.00     0.200 C 
BRANCH  21  22
HETATM   22  O2  UNL     1      30.170  -1.004  54.117  1.00  0.00    -0.397 OA
HETATM   23  H20 UNL     1      31.047  -1.235  53.744  1.00  0.00     0.209 HD
ENDBRANCH  21  22
ENDBRANCH  17  21
ENDBRANCH   1  16
TORSDOF 10
ENDMDL
MODEL 6
REMARK VINA RESULT:      -6.1      1.349      2.439
REMARK  10 active torsions:
REMARK  status: ('A' for Active; 'I' for Inactive)
REMARK    1  A    between atoms: O1_2  and  C2_3 
REMARK    2  A    between atoms: C2_3  and  C3_4 
REMARK    3  A    between atoms: C3_4  and  C15_20 
REMARK    4  A    between atoms: C4_5  and  C5_6 
REMARK    5  A    between atoms: C7_8  and  N1_9 
REMARK    6  A    between atoms: N1_9  and  C8_10 
REMARK    7  A    between atoms: C10_12  and  C11_13 
REMARK    8  A    between atoms: C11_13  and  C12_14 
REMARK    9  A    between atoms: C12_14  and  C13_15 
REMARK   10  A    between atoms: C15_20  and  O2_21 
ROOT
HETATM    1  C5  UNL     1      25.245   1.029  53.413  1.00  0.00     0.062 A 
HETATM    2  C6  UNL     1      24.496   1.834  52.569  1.00  0.00     0.082 A 
HETATM    3  C7  UNL     1      23.214   1.561  52.114  1.00  0.00     0.131 A 
HETATM    4  N2  UNL     1      22.711   0.405  52.561  1.00  0.00    -0.224 NA
HETATM    5  C14 UNL     1      23.407  -0.403  53.381  1.00  0.00     0.235 A 
HETATM    6  N3  UNL     1      24.657  -0.112  53.811  1.00  0.00    -0.242 NA
ENDROOT
BRANCH   3   7
HETATM    7  N1  UNL     1      22.509   2.434  51.241  1.00  0.00    -0.345 N 
HETATM    8  H8  UNL     1      22.167   3.338  51.679  1.00  0.00     0.167 HD
BRANCH   7   9
HETATM    9  C8  UNL     1      22.345   2.012  49.908  1.00  0.00     0.007 C 
HETATM   10  C9  UNL     1      21.490   0.933  49.388  1.00  0.00     0.068 C 
HETATM   11  C10 UNL     1      22.969   2.548  48.879  1.00  0.00     0.024 C 
BRANCH  11  12
HETATM   12  C11 UNL     1      23.791   3.605  49.505  1.00  0.00    -0.001 C 
BRANCH  12  13
HETATM   13  C12 UNL     1      24.800   4.439  49.362  1.00  0.00    -0.016 C 
BRANCH  13  14
HETATM   14  C13 UNL     1      25.711   5.599  49.226  1.00  0.00     0.112 C 
HETATM   15 BR1  UNL     1      27.473   4.881  48.757  1.00  0.00    -0.092 Br
ENDBRANCH  13  14
ENDBRANCH  12  13
ENDBRANCH  11  12
ENDBRANCH   7   9
ENDBRANCH   3   7
BRANCH   1  16
HETATM   16  C4  UNL     1      26.576   1.462  53.808  1.00  0.00     0.039 C 
HETATM   17  C3  UNL     1      27.724   0.843  53.598  1.00  0.00    -0.031 C 
BRANCH  17  18
HETATM   18  C2  UNL     1      28.130  -0.404  52.955  1.00  0.00     0.203 C 
BRANCH  18  19
HETATM   19  O1  UNL     1      28.231  -1.495  53.825  1.00  0.00    -0.392 OA
HETATM   20  C1  UNL     1      28.958  -2.516  53.218  1.00  0.00     0.201 C 
ENDBRANCH  18  19
ENDBRANCH  17  18
BRANCH  17  21
HETATM   21  C15 UNL     1      28.991   1.450  54.085  1.00  0.00     0.200 C 
BRANCH  21  22
HETATM   22  O2  UNL     1      30.109   0.809  53.536  1.00  0.00    -0.397 OA
HETATM   23  H20 UNL     1      30.836   1.467  53.480  1.00  0.00     0.209 HD
ENDBRANCH  21  22
ENDBRANCH  17  21
ENDBRANCH   1  16
TORSDOF 10
ENDMDL
MODEL 7
REMARK VINA RESULT:      -6.0      3.250      4.551
REMARK  10 active torsions:
REMARK  status: ('A' for Active; 'I' for Inactive)
REMARK    1  A    between atoms: O1_2  and  C2_3 
REMARK    2  A    between atoms: C2_3  and  C3_4 
REMARK    3  A    between atoms: C3_4  and  C15_20 
REMARK    4  A    between atoms: C4_5  and  C5_6 
REMARK    5  A    between atoms: C7_8  and  N1_9 
REMARK    6  A    between atoms: N1_9  and  C8_10 
REMARK    7  A    between atoms: C10_12  and  C11_13 
REMARK    8  A    between atoms: C11_13  and  C12_14 
REMARK    9  A    between atoms: C12_14  and  C13_15 
REMARK   10  A    between atoms: C15_20  and  O2_21 
ROOT
HETATM    1  C5  UNL     1      24.812   0.173  53.077  1.00  0.00     0.062 A 
HETATM    2  C6  UNL     1      24.734   1.493  52.662  1.00  0.00     0.082 A 
HETATM    3  C7  UNL     1      25.680   2.160  51.898  1.00  0.00     0.131 A 
HETATM    4  N2  UNL     1      26.737   1.412  51.563  1.00  0.00    -0.224 NA
HETATM    5  C14 UNL     1      26.849   0.128  51.946  1.00  0.00     0.235 A 
HETATM    6  N3  UNL     1      25.910  -0.500  52.693  1.00  0.00    -0.242 NA
ENDROOT
BRANCH   3   7
HETATM    7  N1  UNL     1      25.535   3.522  51.515  1.00  0.00    -0.345 N 
HETATM    8  H8  UNL     1      26.186   4.205  52.000  1.00  0.00     0.167 HD
BRANCH   7   9
HETATM    9  C8  UNL     1      24.558   3.813  50.544  1.00  0.00     0.007 C 
HETATM   10  C9  UNL     1      23.095   3.689  50.653  1.00  0.00     0.068 C 
HETATM   11  C10 UNL     1      24.824   4.259  49.333  1.00  0.00     0.024 C 
BRANCH  11  12
HETATM   12  C11 UNL     1      26.300   4.344  49.331  1.00  0.00    -0.001 C 
BRANCH  12  13
HETATM   13  C12 UNL     1      27.369   4.857  48.758  1.00  0.00    -0.016 C 
BRANCH  13  14
HETATM   14  C13 UNL     1      28.721   5.313  48.361  1.00  0.00     0.112 C 
HETATM   15 BR1  UNL     1      28.519   7.126  47.647  1.00  0.00    -0.092 Br
ENDBRANCH  13  14
ENDBRANCH  12  13
ENDBRANCH  11  12
ENDBRANCH   7   9
ENDBRANCH   3   7
BRANCH   1  16
HETATM   16  C4  UNL     1      23.728  -0.385  53.871  1.00  0.00     0.039 C 
HETATM   17  C3  UNL     1      22.446  -0.069  53.824  1.00  0.00    -0.031 C 
BRANCH  17  18
HETATM   18  C2  UNL     1      21.634   0.868  53.053  1.00  0.00     0.203 C 
BRANCH  18  19
HETATM   19  O1  UNL     1      20.752   0.260  52.152  1.00  0.00    -0.392 OA
HETATM   20  C1  UNL     1      21.271   0.335  50.861  1.00  0.00     0.201 C 
ENDBRANCH  18  19
ENDBRANCH  17  18
BRANCH  17  21
HETATM   21  C15 UNL     1      21.483  -0.755  54.726  1.00  0.00     0.200 C 
BRANCH  21  22
HETATM   22  O2  UNL     1      20.371   0.053  54.996  1.00  0.00    -0.397 OA
HETATM   23  H20 UNL     1      20.658   0.989  54.940  1.00  0.00     0.209 HD
ENDBRANCH  21  22
ENDBRANCH  17  21
ENDBRANCH   1  16
TORSDOF 10
ENDMDL
MODEL 8
REMARK VINA RESULT:      -6.0      3.229      4.357
REMARK  10 active torsions:
REMARK  status: ('A' for Active; 'I' for Inactive)
REMARK    1  A    between atoms: O1_2  and  C2_3 
REMARK    2  A    between atoms: C2_3  and  C3_4 
REMARK    3  A    between atoms: C3_4  and  C15_20 
REMARK    4  A    between atoms: C4_5  and  C5_6 
REMARK    5  A    between atoms: C7_8  and  N1_9 
REMARK    6  A    between atoms: N1_9  and  C8_10 
REMARK    7  A    between atoms: C10_12  and  C11_13 
REMARK    8  A    between atoms: C11_13  and  C12_14 
REMARK    9  A    between atoms: C12_14  and  C13_15 
REMARK   10  A    between atoms: C15_20  and  O2_21 
ROOT
HETATM    1  C5  UNL     1      25.437   0.390  52.821  1.00  0.00     0.062 A 
HETATM    2  C6  UNL     1      24.403   0.815  52.001  1.00  0.00     0.082 A 
HETATM    3  C7  UNL     1      23.813   2.071  52.025  1.00  0.00     0.131 A 
HETATM    4  N2  UNL     1      24.329   2.899  52.940  1.00  0.00    -0.224 NA
HETATM    5  C14 UNL     1      25.333   2.524  53.753  1.00  0.00     0.235 A 
HETATM    6  N3  UNL     1      25.891   1.291  53.708  1.00  0.00    -0.242 NA
ENDROOT
BRANCH   3   7
HETATM    7  N1  UNL     1      22.748   2.433  51.155  1.00  0.00    -0.345 N 
HETATM    8  H8  UNL     1      21.791   2.495  51.607  1.00  0.00     0.167 HD
BRANCH   7   9
HETATM    9  C8  UNL     1      23.076   2.673  49.807  1.00  0.00     0.007 C 
HETATM   10  C9  UNL     1      24.082   3.599  49.262  1.00  0.00     0.068 C 
HETATM   11  C10 UNL     1      22.499   2.075  48.785  1.00  0.00     0.024 C 
BRANCH  11  12
HETATM   12  C11 UNL     1      21.519   1.181  49.438  1.00  0.00    -0.001 C 
BRANCH  12  13
HETATM   13  C12 UNL     1      20.270   1.017  49.823  1.00  0.00    -0.016 C 
BRANCH  13  14
HETATM   14  C13 UNL     1      18.808   1.069  50.055  1.00  0.00     0.112 C 
HETATM   15 BR1  UNL     1      18.445  -0.054  51.619  1.00  0.00    -0.092 Br
ENDBRANCH  13  14
ENDBRANCH  12  13
ENDBRANCH  11  12
ENDBRANCH   7   9
ENDBRANCH   3   7
BRANCH   1  16
HETATM   16  C4  UNL     1      25.954  -0.960  52.665  1.00  0.00     0.039 C 
HETATM   17  C3  UNL     1      27.198  -1.374  52.830  1.00  0.00    -0.031 C 
BRANCH  17  18
HETATM   18  C2  UNL     1      28.464  -0.744  53.196  1.00  0.00     0.203 C 
BRANCH  18  19
HETATM   19  O1  UNL     1      28.613  -0.503  54.566  1.00  0.00    -0.392 OA
HETATM   20  C1  UNL     1      29.063   0.800  54.770  1.00  0.00     0.201 C 
ENDBRANCH  18  19
ENDBRANCH  17  18
BRANCH  17  21
HETATM   21  C15 UNL     1      27.533  -2.807  52.621  1.00  0.00     0.200 C 
BRANCH  21  22
HETATM   22  O2  UNL     1      28.636  -3.194  53.394  1.00  0.00    -0.397 OA
HETATM   23  H20 UNL     1      29.449  -2.971  52.891  1.00  0.00     0.209 HD
ENDBRANCH  21  22
ENDBRANCH  17  21
ENDBRANCH   1  16
TORSDOF 10
ENDMDL
MODEL 9
REMARK VINA RESULT:      -6.0      3.412      5.340
REMARK  10 active torsions:
REMARK  status: ('A' for Active; 'I' for Inactive)
REMARK    1  A    between atoms: O1_2  and  C2_3 
REMARK    2  A    between atoms: C2_3  and  C3_4 
REMARK    3  A    between atoms: C3_4  and  C15_20 
REMARK    4  A    between atoms: C4_5  and  C5_6 
REMARK    5  A    between atoms: C7_8  and  N1_9 
REMARK    6  A    between atoms: N1_9  and  C8_10 
REMARK    7  A    between atoms: C10_12  and  C11_13 
REMARK    8  A    between atoms: C11_13  and  C12_14 
REMARK    9  A    between atoms: C12_14  and  C13_15 
REMARK   10  A    between atoms: C15_20  and  O2_21 
ROOT
HETATM    1  C5  UNL     1      26.624   2.482  51.719  1.00  0.00     0.062 A 
HETATM    2  C6  UNL     1      25.280   2.241  51.961  1.00  0.00     0.082 A 
HETATM    3  C7  UNL     1      24.232   2.570  51.113  1.00  0.00     0.131 A 
HETATM    4  N2  UNL     1      24.614   3.171  49.981  1.00  0.00    -0.224 NA
HETATM    5  C14 UNL     1      25.907   3.422  49.710  1.00  0.00     0.235 A 
HETATM    6  N3  UNL     1      26.912   3.089  50.556  1.00  0.00    -0.242 NA
ENDROOT
BRANCH   3   7
HETATM    7  N1  UNL     1      22.874   2.297  51.433  1.00  0.00    -0.345 N 
HETATM    8  H8  UNL     1      22.557   1.299  51.262  1.00  0.00     0.167 HD
BRANCH   7   9
HETATM    9  C8  UNL     1      22.108   3.364  51.939  1.00  0.00     0.007 C 
HETATM   10  C9  UNL     1      22.509   4.767  52.132  1.00  0.00     0.068 C 
HETATM   11  C10 UNL     1      20.856   3.256  52.337  1.00  0.00     0.024 C 
BRANCH  11  12
HETATM   12  C11 UNL     1      20.559   1.827  52.104  1.00  0.00    -0.001 C 
BRANCH  12  13
HETATM   13  C12 UNL     1      20.357   0.645  52.650  1.00  0.00    -0.016 C 
BRANCH  13  14
HETATM   14  C13 UNL     1      19.958  -0.521  53.471  1.00  0.00     0.112 C 
HETATM   15 BR1  UNL     1      21.542  -1.064  54.488  1.00  0.00    -0.092 Br
ENDBRANCH  13  14
ENDBRANCH  12  13
ENDBRANCH  11  12
ENDBRANCH   7   9
ENDBRANCH   3   7
BRANCH   1  16
HETATM   16  C4  UNL     1      27.607   2.066  52.707  1.00  0.00     0.039 C 
HETATM   17  C3  UNL     1      27.830   0.846  53.163  1.00  0.00    -0.031 C 
BRANCH  17  18
HETATM   18  C2  UNL     1      27.262  -0.476  52.914  1.00  0.00     0.203 C 
BRANCH  18  19
HETATM   19  O1  UNL     1      26.669  -1.070  54.034  1.00  0.00    -0.392 OA
HETATM   20  C1  UNL     1      25.379  -0.571  54.204  1.00  0.00     0.201 C 
ENDBRANCH  18  19
ENDBRANCH  17  18
BRANCH  17  21
HETATM   21  C15 UNL     1      28.886   0.621  54.184  1.00  0.00     0.200 C 
BRANCH  21  22
HETATM   22  O2  UNL     1      29.110   1.771  54.952  1.00  0.00    -0.397 OA
HETATM   23  H20 UNL     1      29.596   2.415  54.394  1.00  0.00     0.209 HD
ENDBRANCH  21  22
ENDBRANCH  17  21
ENDBRANCH   1  16
TORSDOF 10
ENDMDL
