MODEL 1
REMARK VINA RESULT:      -9.2      0.000      0.000
REMARK  4 active torsions:
REMARK  status: ('A' for Active; 'I' for Inactive)
REMARK    1  A    between atoms: C1_2  and  O2_3 
REMARK    2  A    between atoms: C1_2  and  C2_4 
REMARK    3  A    between atoms: C10_13  and  N2_14 
REMARK    4  A    between atoms: N2_14  and  C11_15 
ROOT
HETATM    1  C2  UNL     1      20.717  -0.571  53.470  1.00  0.00     0.038 A 
HETATM    2  C3  UNL     1      21.674  -1.361  54.069  1.00  0.00     0.021 A 
HETATM    3  C4  UNL     1      22.985  -0.910  54.112  1.00  0.00     0.038 A 
HETATM    4  C5  UNL     1      23.305   0.321  53.555  1.00  0.00     0.080 A 
HETATM    5  C6  UNL     1      22.368   1.132  52.950  1.00  0.00    -0.006 A 
HETATM    6  C7  UNL     1      21.077   0.645  52.930  1.00  0.00     0.029 A 
HETATM    7  C8  UNL     1      22.553   2.463  52.314  1.00  0.00     0.161 C 
HETATM    8  N1  UNL     1      23.812   2.441  51.593  1.00  0.00    -0.382 N 
HETATM    9  C9  UNL     1      25.094   2.239  52.173  1.00  0.00     0.103 C 
HETATM   10  C10 UNL     1      26.073   2.600  51.334  1.00  0.00     0.157 C 
HETATM   11  N3  UNL     1      27.434   2.474  51.730  1.00  0.00    -0.206 NA
HETATM   12  C17 UNL     1      27.663   2.099  52.923  1.00  0.00     0.198 C 
HETATM   13  N4  UNL     1      26.831   1.429  53.587  1.00  0.00    -0.229 NA
HETATM   14  C18 UNL     1      25.405   1.700  53.533  1.00  0.00     0.307 C 
HETATM   15  O3  UNL     1      24.671   0.490  53.752  1.00  0.00    -0.318 OA
HETATM   16  H7  UNL     1      23.864   2.582  50.543  1.00  0.00     0.160 HD
ENDROOT
BRANCH  10  17
HETATM   17  N2  UNL     1      25.841   3.117  50.035  1.00  0.00    -0.339 N 
HETATM   18  H8  UNL     1      25.396   2.431  49.389  1.00  0.00     0.167 HD
BRANCH  17  19
HETATM   19  C11 UNL     1      26.179   4.437  49.647  1.00  0.00     0.035 A 
HETATM   20  C12 UNL     1      27.270   4.620  48.823  1.00  0.00     0.032 A 
HETATM   21  C13 UNL     1      27.580   5.920  48.458  1.00  0.00     0.046 A 
HETATM   22  C14 UNL     1      26.810   6.969  48.916  1.00  0.00     0.138 A 
HETATM   23  F1  UNL     1      27.132   8.246  48.544  1.00  0.00    -0.204 F 
HETATM   24  C15 UNL     1      25.710   6.769  49.748  1.00  0.00     0.074 A 
HETATM   25 CL1  UNL     1      24.769   8.139  50.298  1.00  0.00    -0.081 Cl
HETATM   26  C16 UNL     1      25.392   5.466  50.120  1.00  0.00     0.056 A 
ENDBRANCH  17  19
ENDBRANCH  10  17
BRANCH   1  27
HETATM   27  C1  UNL     1      19.314  -0.927  53.361  1.00  0.00     0.176 C 
HETATM   28  O1  UNL     1      18.436  -0.371  52.640  1.00  0.00    -0.646 OA
BRANCH  27  29
HETATM   29  O2  UNL     1      18.790  -1.998  54.106  1.00  0.00    -0.773 OA
HETATM   30  H1  UNL     1      18.140  -1.839  54.882  1.00  0.00     0.167 HD
ENDBRANCH  27  29
ENDBRANCH   1  27
TORSDOF 4
ENDMDL
MODEL 2
REMARK VINA RESULT:      -8.8      2.770      4.940
REMARK  4 active torsions:
REMARK  status: ('A' for Active; 'I' for Inactive)
REMARK    1  A    between atoms: C1_2  and  O2_3 
REMARK    2  A    between atoms: C1_2  and  C2_4 
REMARK    3  A    between atoms: C10_13  and  N2_14 
REMARK    4  A    between atoms: N2_14  and  C11_15 
ROOT
HETATM    1  C2  UNL     1      26.871  -0.546  53.055  1.00  0.00     0.038 A 
HETATM    2  C3  UNL     1      25.695  -0.919  53.668  1.00  0.00     0.021 A 
HETATM    3  C4  UNL     1      24.553  -0.163  53.446  1.00  0.00     0.038 A 
HETATM    4  C5  UNL     1      24.618   0.947  52.615  1.00  0.00     0.080 A 
HETATM    5  C6  UNL     1      25.781   1.343  51.988  1.00  0.00    -0.006 A 
HETATM    6  C7  UNL     1      26.892   0.563  52.237  1.00  0.00     0.029 A 
HETATM    7  C8  UNL     1      26.007   2.496  51.079  1.00  0.00     0.161 C 
HETATM    8  N1  UNL     1      25.243   3.621  51.585  1.00  0.00    -0.382 N 
HETATM    9  C9  UNL     1      23.829   3.664  51.727  1.00  0.00     0.103 C 
HETATM   10  C10 UNL     1      23.391   4.918  51.895  1.00  0.00     0.157 C 
HETATM   11  N3  UNL     1      22.001   5.172  52.055  1.00  0.00    -0.206 NA
HETATM   12  C17 UNL     1      21.209   4.183  51.940  1.00  0.00     0.198 C 
HETATM   13  N4  UNL     1      21.580   3.000  52.145  1.00  0.00    -0.229 NA
HETATM   14  C18 UNL     1      22.875   2.511  51.705  1.00  0.00     0.307 C 
HETATM   15  O3  UNL     1      23.336   1.485  52.591  1.00  0.00    -0.318 OA
HETATM   16  H7  UNL     1      25.704   4.524  51.896  1.00  0.00     0.160 HD
ENDROOT
BRANCH  10  17
HETATM   17  N2  UNL     1      24.245   6.048  51.924  1.00  0.00    -0.339 N 
HETATM   18  H8  UNL     1      24.680   6.215  52.856  1.00  0.00     0.167 HD
BRANCH  17  19
HETATM   19  C11 UNL     1      24.488   6.874  50.799  1.00  0.00     0.035 A 
HETATM   20  C12 UNL     1      23.604   7.900  50.535  1.00  0.00     0.032 A 
HETATM   21  C13 UNL     1      23.863   8.693  49.429  1.00  0.00     0.046 A 
HETATM   22  C14 UNL     1      24.968   8.443  48.642  1.00  0.00     0.138 A 
HETATM   23  F1  UNL     1      25.208   9.238  47.555  1.00  0.00    -0.204 F 
HETATM   24  C15 UNL     1      25.852   7.403  48.922  1.00  0.00     0.074 A 
HETATM   25 CL1  UNL     1      27.239   7.133  47.888  1.00  0.00    -0.081 Cl
HETATM   26  C16 UNL     1      25.600   6.601  50.030  1.00  0.00     0.056 A 
ENDBRANCH  17  19
ENDBRANCH  10  17
BRANCH   1  27
HETATM   27  C1  UNL     1      28.131  -1.251  53.205  1.00  0.00     0.176 C 
HETATM   28  O1  UNL     1      29.268  -0.748  53.440  1.00  0.00    -0.646 OA
BRANCH  27  29
HETATM   29  O2  UNL     1      28.182  -2.652  53.092  1.00  0.00    -0.773 OA
HETATM   30  H1  UNL     1      29.059  -3.136  52.870  1.00  0.00     0.167 HD
ENDBRANCH  27  29
ENDBRANCH   1  27
TORSDOF 4
ENDMDL
MODEL 3
REMARK VINA RESULT:      -8.8      3.679      5.158
REMARK  4 active torsions:
REMARK  status: ('A' for Active; 'I' for Inactive)
REMARK    1  A    between atoms: C1_2  and  O2_3 
REMARK    2  A    between atoms: C1_2  and  C2_4 
REMARK    3  A    between atoms: C10_13  and  N2_14 
REMARK    4  A    between atoms: N2_14  and  C11_15 
ROOT
HETATM    1  C2  UNL     1      18.643  -0.452  52.647  1.00  0.00     0.038 A 
HETATM    2  C3  UNL     1      18.325   0.581  51.793  1.00  0.00     0.021 A 
HETATM    3  C4  UNL     1      19.352   1.281  51.177  1.00  0.00     0.038 A 
HETATM    4  C5  UNL     1      20.670   0.929  51.429  1.00  0.00     0.080 A 
HETATM    5  C6  UNL     1      21.017  -0.101  52.279  1.00  0.00    -0.006 A 
HETATM    6  C7  UNL     1      19.966  -0.771  52.871  1.00  0.00     0.029 A 
HETATM    7  C8  UNL     1      22.370  -0.595  52.648  1.00  0.00     0.161 C 
HETATM    8  N1  UNL     1      23.241   0.557  52.794  1.00  0.00    -0.382 N 
HETATM    9  C9  UNL     1      23.563   1.485  51.765  1.00  0.00     0.103 C 
HETATM   10  C10 UNL     1      24.628   2.228  52.094  1.00  0.00     0.157 C 
HETATM   11  N3  UNL     1      25.111   3.218  51.193  1.00  0.00    -0.206 NA
HETATM   12  C17 UNL     1      24.551   3.294  50.054  1.00  0.00     0.198 C 
HETATM   13  N4  UNL     1      23.376   2.896  49.856  1.00  0.00    -0.229 NA
HETATM   14  C18 UNL     1      22.863   1.677  50.458  1.00  0.00     0.307 C 
HETATM   15  O3  UNL     1      21.453   1.798  50.678  1.00  0.00    -0.318 OA
HETATM   16  H7  UNL     1      23.715   0.795  53.711  1.00  0.00     0.160 HD
ENDROOT
BRANCH  10  17
HETATM   17  N2  UNL     1      25.332   2.091  53.316  1.00  0.00    -0.339 N 
HETATM   18  H8  UNL     1      24.799   2.437  54.142  1.00  0.00     0.167 HD
BRANCH  17  19
HETATM   19  C11 UNL     1      26.633   1.540  53.411  1.00  0.00     0.035 A 
HETATM   20  C12 UNL     1      27.682   2.382  53.717  1.00  0.00     0.032 A 
HETATM   21  C13 UNL     1      28.945   1.819  53.804  1.00  0.00     0.046 A 
HETATM   22  C14 UNL     1      29.116   0.467  53.589  1.00  0.00     0.138 A 
HETATM   23  F1  UNL     1      30.370  -0.071  53.680  1.00  0.00    -0.204 F 
HETATM   24  C15 UNL     1      28.046  -0.371  53.281  1.00  0.00     0.074 A 
HETATM   25 CL1  UNL     1      28.322  -2.080  53.018  1.00  0.00    -0.081 Cl
HETATM   26  C16 UNL     1      26.774   0.186  53.190  1.00  0.00     0.056 A 
ENDBRANCH  17  19
ENDBRANCH  10  17
BRANCH   1  27
HETATM   27  C1  UNL     1      17.665  -1.260  53.353  1.00  0.00     0.176 C 
HETATM   28  O1  UNL     1      17.848  -2.390  53.891  1.00  0.00    -0.646 OA
BRANCH  27  29
HETATM   29  O2  UNL     1      16.341  -0.810  53.500  1.00  0.00    -0.773 OA
HETATM   30  H1  UNL     1      16.057   0.122  53.181  1.00  0.00     0.167 HD
ENDBRANCH  27  29
ENDBRANCH   1  27
TORSDOF 4
ENDMDL
MODEL 4
REMARK VINA RESULT:      -8.8      2.186      3.735
REMARK  4 active torsions:
REMARK  status: ('A' for Active; 'I' for Inactive)
REMARK    1  A    between atoms: C1_2  and  O2_3 
REMARK    2  A    between atoms: C1_2  and  C2_4 
REMARK    3  A    between atoms: C10_13  and  N2_14 
REMARK    4  A    between atoms: N2_14  and  C11_15 
ROOT
HETATM    1  C2  UNL     1      23.645  -0.430  54.028  1.00  0.00     0.038 A 
HETATM    2  C3  UNL     1      22.359  -0.436  53.533  1.00  0.00     0.021 A 
HETATM    3  C4  UNL     1      22.067   0.334  52.416  1.00  0.00     0.038 A 
HETATM    4  C5  UNL     1      23.070   1.090  51.824  1.00  0.00     0.080 A 
HETATM    5  C6  UNL     1      24.365   1.114  52.298  1.00  0.00    -0.006 A 
HETATM    6  C7  UNL     1      24.611   0.334  53.409  1.00  0.00     0.029 A 
HETATM    7  C8  UNL     1      25.538   1.864  51.778  1.00  0.00     0.161 C 
HETATM    8  N1  UNL     1      25.079   3.176  51.360  1.00  0.00    -0.382 N 
HETATM    9  C9  UNL     1      24.122   3.431  50.340  1.00  0.00     0.103 C 
HETATM   10  C10 UNL     1      24.149   4.713  49.953  1.00  0.00     0.157 C 
HETATM   11  N3  UNL     1      23.264   5.170  48.938  1.00  0.00    -0.206 NA
HETATM   12  C17 UNL     1      22.530   4.301  48.368  1.00  0.00     0.198 C 
HETATM   13  N4  UNL     1      22.220   3.217  48.923  1.00  0.00    -0.229 NA
HETATM   14  C18 UNL     1      23.169   2.460  49.720  1.00  0.00     0.307 C 
HETATM   15  O3  UNL     1      22.477   1.739  50.747  1.00  0.00    -0.318 OA
HETATM   16  H7  UNL     1      25.440   4.069  51.804  1.00  0.00     0.160 HD
ENDROOT
BRANCH  10  17
HETATM   17  N2  UNL     1      25.029   5.678  50.503  1.00  0.00    -0.339 N 
HETATM   18  H8  UNL     1      24.844   5.883  51.508  1.00  0.00     0.167 HD
BRANCH  17  19
HETATM   19  C11 UNL     1      26.060   6.307  49.763  1.00  0.00     0.035 A 
HETATM   20  C12 UNL     1      26.822   5.534  48.912  1.00  0.00     0.032 A 
HETATM   21  C13 UNL     1      27.825   6.172  48.200  1.00  0.00     0.046 A 
HETATM   22  C14 UNL     1      28.030   7.527  48.357  1.00  0.00     0.138 A 
HETATM   23  F1  UNL     1      29.024   8.139  47.644  1.00  0.00    -0.204 F 
HETATM   24  C15 UNL     1      27.251   8.295  49.221  1.00  0.00     0.074 A 
HETATM   25 CL1  UNL     1      27.556  10.012  49.378  1.00  0.00    -0.081 Cl
HETATM   26  C16 UNL     1      26.242   7.663  49.940  1.00  0.00     0.056 A 
ENDBRANCH  17  19
ENDBRANCH  10  17
BRANCH   1  27
HETATM   27  C1  UNL     1      24.078  -1.190  55.187  1.00  0.00     0.176 C 
HETATM   28  O1  UNL     1      25.257  -1.305  55.631  1.00  0.00    -0.646 OA
BRANCH  27  29
HETATM   29  O2  UNL     1      23.147  -1.909  55.957  1.00  0.00    -0.773 OA
HETATM   30  H1  UNL     1      23.444  -2.475  56.759  1.00  0.00     0.167 HD
ENDBRANCH  27  29
ENDBRANCH   1  27
TORSDOF 4
ENDMDL
MODEL 5
REMARK VINA RESULT:      -8.7      5.096      7.552
REMARK  4 active torsions:
REMARK  status: ('A' for Active; 'I' for Inactive)
REMARK    1  A    between atoms: C1_2  and  O2_3 
REMARK    2  A    between atoms: C1_2  and  C2_4 
REMARK    3  A    between atoms: C10_13  and  N2_14 
REMARK    4  A    between atoms: N2_14  and  C11_15 
ROOT
HETATM    1  C2  UNL     1      28.307  -0.219  53.458  1.00  0.00     0.038 A 
HETATM    2  C3  UNL     1      28.657   1.112  53.420  1.00  0.00     0.021 A 
HETATM    3  C4  UNL     1      27.656   2.066  53.300  1.00  0.00     0.038 A 
HETATM    4  C5  UNL     1      26.331   1.662  53.223  1.00  0.00     0.080 A 
HETATM    5  C6  UNL     1      25.951   0.336  53.259  1.00  0.00    -0.006 A 
HETATM    6  C7  UNL     1      26.978  -0.578  53.379  1.00  0.00     0.029 A 
HETATM    7  C8  UNL     1      24.587  -0.249  53.188  1.00  0.00     0.161 C 
HETATM    8  N1  UNL     1      23.823   0.517  52.220  1.00  0.00    -0.382 N 
HETATM    9  C9  UNL     1      23.517   1.903  52.318  1.00  0.00     0.103 C 
HETATM   10  C10 UNL     1      22.538   2.248  51.473  1.00  0.00     0.157 C 
HETATM   11  N3  UNL     1      22.086   3.595  51.419  1.00  0.00    -0.206 NA
HETATM   12  C17 UNL     1      22.582   4.413  52.258  1.00  0.00     0.198 C 
HETATM   13  N4  UNL     1      23.708   4.230  52.786  1.00  0.00    -0.229 NA
HETATM   14  C18 UNL     1      24.153   2.916  53.215  1.00  0.00     0.307 C 
HETATM   15  O3  UNL     1      25.579   2.826  53.112  1.00  0.00    -0.318 OA
HETATM   16  H7  UNL     1      23.424   0.079  51.342  1.00  0.00     0.160 HD
ENDROOT
BRANCH  10  17
HETATM   17  N2  UNL     1      21.898   1.333  50.600  1.00  0.00    -0.339 N 
HETATM   18  H8  UNL     1      22.509   1.004  49.824  1.00  0.00     0.167 HD
BRANCH  17  19
HETATM   19  C11 UNL     1      20.557   0.906  50.762  1.00  0.00     0.035 A 
HETATM   20  C12 UNL     1      19.629   1.282  49.813  1.00  0.00     0.032 A 
HETATM   21  C13 UNL     1      18.325   0.851  49.994  1.00  0.00     0.046 A 
HETATM   22  C14 UNL     1      17.997   0.079  51.089  1.00  0.00     0.138 A 
HETATM   23  F1  UNL     1      16.704  -0.338  51.250  1.00  0.00    -0.204 F 
HETATM   24  C15 UNL     1      18.946  -0.294  52.039  1.00  0.00     0.074 A 
HETATM   25 CL1  UNL     1      18.473  -1.276  53.409  1.00  0.00    -0.081 Cl
HETATM   26  C16 UNL     1      20.258   0.135  51.866  1.00  0.00     0.056 A 
ENDBRANCH  17  19
ENDBRANCH  10  17
BRANCH   1  27
HETATM   27  C1  UNL     1      29.255  -1.312  53.582  1.00  0.00     0.176 C 
HETATM   28  O1  UNL     1      30.486  -1.231  53.858  1.00  0.00    -0.646 OA
BRANCH  27  29
HETATM   29  O2  UNL     1      28.840  -2.641  53.389  1.00  0.00    -0.773 OA
HETATM   30  H1  UNL     1      28.496  -3.210  54.169  1.00  0.00     0.167 HD
ENDBRANCH  27  29
ENDBRANCH   1  27
TORSDOF 4
ENDMDL
MODEL 6
REMARK VINA RESULT:      -8.6      3.088      4.781
REMARK  4 active torsions:
REMARK  status: ('A' for Active; 'I' for Inactive)
REMARK    1  A    between atoms: C1_2  and  O2_3 
REMARK    2  A    between atoms: C1_2  and  C2_4 
REMARK    3  A    between atoms: C10_13  and  N2_14 
REMARK    4  A    between atoms: N2_14  and  C11_15 
ROOT
HETATM    1  C2  UNL     1      25.858   0.060  52.757  1.00  0.00     0.038 A 
HETATM    2  C3  UNL     1      24.593   0.184  53.288  1.00  0.00     0.021 A 
HETATM    3  C4  UNL     1      23.807   1.261  52.903  1.00  0.00     0.038 A 
HETATM    4  C5  UNL     1      24.307   2.185  51.996  1.00  0.00     0.080 A 
HETATM    5  C6  UNL     1      25.569   2.084  51.448  1.00  0.00    -0.006 A 
HETATM    6  C7  UNL     1      26.316   0.999  51.858  1.00  0.00     0.029 A 
HETATM    7  C8  UNL     1      26.240   2.983  50.473  1.00  0.00     0.161 C 
HETATM    8  N1  UNL     1      25.895   4.351  50.817  1.00  0.00    -0.382 N 
HETATM    9  C9  UNL     1      24.581   4.895  50.825  1.00  0.00     0.103 C 
HETATM   10  C10 UNL     1      24.607   6.233  50.852  1.00  0.00     0.157 C 
HETATM   11  N3  UNL     1      23.389   6.969  50.864  1.00  0.00    -0.206 NA
HETATM   12  C17 UNL     1      22.306   6.309  50.757  1.00  0.00     0.198 C 
HETATM   13  N4  UNL     1      22.223   5.100  51.088  1.00  0.00    -0.229 NA
HETATM   14  C18 UNL     1      23.285   4.149  50.808  1.00  0.00     0.307 C 
HETATM   15  O3  UNL     1      23.302   3.128  51.812  1.00  0.00    -0.318 OA
HETATM   16  H7  UNL     1      26.627   5.065  51.095  1.00  0.00     0.160 HD
ENDROOT
BRANCH  10  17
HETATM   17  N2  UNL     1      25.802   6.994  50.868  1.00  0.00    -0.339 N 
HETATM   18  H8  UNL     1      26.278   6.998  51.795  1.00  0.00     0.167 HD
BRANCH  17  19
HETATM   19  C11 UNL     1      26.305   7.684  49.738  1.00  0.00     0.035 A 
HETATM   20  C12 UNL     1      26.107   7.132  48.490  1.00  0.00     0.032 A 
HETATM   21  C13 UNL     1      26.609   7.826  47.401  1.00  0.00     0.046 A 
HETATM   22  C14 UNL     1      27.274   9.019  47.588  1.00  0.00     0.138 A 
HETATM   23  F1  UNL     1      27.762   9.691  46.501  1.00  0.00    -0.204 F 
HETATM   24  C15 UNL     1      27.466   9.565  48.856  1.00  0.00     0.074 A 
HETATM   25 CL1  UNL     1      28.318  11.084  49.034  1.00  0.00    -0.081 Cl
HETATM   26  C16 UNL     1      26.966   8.875  49.956  1.00  0.00     0.056 A 
ENDBRANCH  17  19
ENDBRANCH  10  17
BRANCH   1  27
HETATM   27  C1  UNL     1      26.777  -1.018  53.077  1.00  0.00     0.176 C 
HETATM   28  O1  UNL     1      26.869  -2.142  52.506  1.00  0.00    -0.646 OA
BRANCH  27  29
HETATM   29  O2  UNL     1      27.703  -0.877  54.126  1.00  0.00    -0.773 OA
HETATM   30  H1  UNL     1      27.503  -0.281  54.936  1.00  0.00     0.167 HD
ENDBRANCH  27  29
ENDBRANCH   1  27
TORSDOF 4
ENDMDL
MODEL 7
REMARK VINA RESULT:      -8.6      4.717      8.203
REMARK  4 active torsions:
REMARK  status: ('A' for Active; 'I' for Inactive)
REMARK    1  A    between atoms: C1_2  and  O2_3 
REMARK    2  A    between atoms: C1_2  and  C2_4 
REMARK    3  A    between atoms: C10_13  and  N2_14 
REMARK    4  A    between atoms: N2_14  and  C11_15 
ROOT
HETATM    1  C2  UNL     1      26.292   8.218  49.672  1.00  0.00     0.038 A 
HETATM    2  C3  UNL     1      26.283   7.622  48.430  1.00  0.00     0.021 A 
HETATM    3  C4  UNL     1      25.509   6.487  48.236  1.00  0.00     0.038 A 
HETATM    4  C5  UNL     1      24.762   5.979  49.289  1.00  0.00     0.080 A 
HETATM    5  C6  UNL     1      24.751   6.555  50.543  1.00  0.00    -0.006 A 
HETATM    6  C7  UNL     1      25.535   7.681  50.692  1.00  0.00     0.029 A 
HETATM    7  C8  UNL     1      24.011   6.133  51.760  1.00  0.00     0.161 C 
HETATM    8  N1  UNL     1      24.040   4.683  51.820  1.00  0.00    -0.382 N 
HETATM    9  C9  UNL     1      23.486   3.804  50.849  1.00  0.00     0.103 C 
HETATM   10  C10 UNL     1      23.369   2.559  51.327  1.00  0.00     0.157 C 
HETATM   11  N3  UNL     1      22.833   1.528  50.506  1.00  0.00    -0.206 NA
HETATM   12  C17 UNL     1      22.398   1.861  49.359  1.00  0.00     0.198 C 
HETATM   13  N4  UNL     1      22.806   2.887  48.759  1.00  0.00    -0.229 NA
HETATM   14  C18 UNL     1      23.062   4.137  49.454  1.00  0.00     0.307 C 
HETATM   15  O3  UNL     1      24.105   4.860  48.791  1.00  0.00    -0.318 OA
HETATM   16  H7  UNL     1      24.493   4.159  52.623  1.00  0.00     0.160 HD
ENDROOT
BRANCH  10  17
HETATM   17  N2  UNL     1      23.753   2.183  52.638  1.00  0.00    -0.339 N 
HETATM   18  H8  UNL     1      23.033   2.401  53.360  1.00  0.00     0.167 HD
BRANCH  17  19
HETATM   19  C11 UNL     1      24.994   1.573  52.945  1.00  0.00     0.035 A 
HETATM   20  C12 UNL     1      25.939   2.312  53.627  1.00  0.00     0.032 A 
HETATM   21  C13 UNL     1      27.144   1.693  53.914  1.00  0.00     0.046 A 
HETATM   22  C14 UNL     1      27.363   0.389  53.522  1.00  0.00     0.138 A 
HETATM   23  F1  UNL     1      28.559  -0.206  53.815  1.00  0.00    -0.204 F 
HETATM   24  C15 UNL     1      26.398  -0.346  52.834  1.00  0.00     0.074 A 
HETATM   25 CL1  UNL     1      26.730  -1.998  52.362  1.00  0.00    -0.081 Cl
HETATM   26  C16 UNL     1      25.185   0.268  52.540  1.00  0.00     0.056 A 
ENDBRANCH  17  19
ENDBRANCH  10  17
BRANCH   1  27
HETATM   27  C1  UNL     1      27.057   9.406  50.005  1.00  0.00     0.176 C 
HETATM   28  O1  UNL     1      27.210  10.443  49.297  1.00  0.00    -0.646 OA
BRANCH  27  29
HETATM   29  O2  UNL     1      27.736   9.496  51.233  1.00  0.00    -0.773 OA
HETATM   30  H1  UNL     1      27.584  10.287  51.868  1.00  0.00     0.167 HD
ENDBRANCH  27  29
ENDBRANCH   1  27
TORSDOF 4
ENDMDL
MODEL 8
REMARK VINA RESULT:      -7.9      6.063      8.616
REMARK  4 active torsions:
REMARK  status: ('A' for Active; 'I' for Inactive)
REMARK    1  A    between atoms: C1_2  and  O2_3 
REMARK    2  A    between atoms: C1_2  and  C2_4 
REMARK    3  A    between atoms: C10_13  and  N2_14 
REMARK    4  A    between atoms: N2_14  and  C11_15 
ROOT
HETATM    1  C2  UNL     1      24.604   6.686  50.087  1.00  0.00     0.038 A 
HETATM    2  C3  UNL     1      24.658   8.062  50.105  1.00  0.00     0.021 A 
HETATM    3  C4  UNL     1      25.787   8.696  49.608  1.00  0.00     0.038 A 
HETATM    4  C5  UNL     1      26.834   7.937  49.105  1.00  0.00     0.080 A 
HETATM    5  C6  UNL     1      26.807   6.558  49.073  1.00  0.00    -0.006 A 
HETATM    6  C7  UNL     1      25.666   5.968  49.577  1.00  0.00     0.029 A 
HETATM    7  C8  UNL     1      27.838   5.613  48.571  1.00  0.00     0.161 C 
HETATM    8  N1  UNL     1      29.140   6.131  48.949  1.00  0.00    -0.382 N 
HETATM    9  C9  UNL     1      29.689   7.375  48.532  1.00  0.00     0.103 C 
HETATM   10  C10 UNL     1      31.007   7.429  48.759  1.00  0.00     0.157 C 
HETATM   11  N3  UNL     1      31.743   8.595  48.411  1.00  0.00    -0.206 NA
HETATM   12  C17 UNL     1      31.117   9.522  47.804  1.00  0.00     0.198 C 
HETATM   13  N4  UNL     1      29.872   9.664  47.899  1.00  0.00    -0.229 NA
HETATM   14  C18 UNL     1      28.965   8.529  47.913  1.00  0.00     0.307 C 
HETATM   15  O3  UNL     1      27.803   8.843  48.689  1.00  0.00    -0.318 OA
HETATM   16  H7  UNL     1      29.798   5.596  49.586  1.00  0.00     0.160 HD
ENDROOT
BRANCH  10  17
HETATM   17  N2  UNL     1      31.746   6.369  49.341  1.00  0.00    -0.339 N 
HETATM   18  H8  UNL     1      31.590   6.270  50.367  1.00  0.00     0.167 HD
BRANCH  17  19
HETATM   19  C11 UNL     1      32.613   5.525  48.606  1.00  0.00     0.035 A 
HETATM   20  C12 UNL     1      33.948   5.865  48.526  1.00  0.00     0.032 A 
HETATM   21  C13 UNL     1      34.776   5.024  47.801  1.00  0.00     0.046 A 
HETATM   22  C14 UNL     1      34.258   3.898  47.195  1.00  0.00     0.138 A 
HETATM   23  F1  UNL     1      35.092   3.078  46.484  1.00  0.00    -0.204 F 
HETATM   24  C15 UNL     1      32.907   3.567  47.285  1.00  0.00     0.074 A 
HETATM   25 CL1  UNL     1      32.306   2.125  46.495  1.00  0.00    -0.081 Cl
HETATM   26  C16 UNL     1      32.068   4.407  48.011  1.00  0.00     0.056 A 
ENDBRANCH  17  19
ENDBRANCH  10  17
BRANCH   1  27
HETATM   27  C1  UNL     1      23.483   5.904  50.575  1.00  0.00     0.176 C 
HETATM   28  O1  UNL     1      23.135   4.747  50.203  1.00  0.00    -0.646 OA
BRANCH  27  29
HETATM   29  O2  UNL     1      22.638   6.417  51.575  1.00  0.00    -0.773 OA
HETATM   30  H1  UNL     1      22.248   7.363  51.509  1.00  0.00     0.167 HD
ENDBRANCH  27  29
ENDBRANCH   1  27
TORSDOF 4
ENDMDL
MODEL 9
REMARK VINA RESULT:      -7.8      2.952      4.984
REMARK  4 active torsions:
REMARK  status: ('A' for Active; 'I' for Inactive)
REMARK    1  A    between atoms: C1_2  and  O2_3 
REMARK    2  A    between atoms: C1_2  and  C2_4 
REMARK    3  A    between atoms: C10_13  and  N2_14 
REMARK    4  A    between atoms: N2_14  and  C11_15 
ROOT
HETATM    1  C2  UNL     1      23.850   1.172  52.552  1.00  0.00     0.038 A 
HETATM    2  C3  UNL     1      22.616   1.720  52.822  1.00  0.00     0.021 A 
HETATM    3  C4  UNL     1      22.297   2.955  52.277  1.00  0.00     0.038 A 
HETATM    4  C5  UNL     1      23.221   3.610  51.475  1.00  0.00     0.080 A 
HETATM    5  C6  UNL     1      24.464   3.085  51.188  1.00  0.00    -0.006 A 
HETATM    6  C7  UNL     1      24.740   1.855  51.750  1.00  0.00     0.029 A 
HETATM    7  C8  UNL     1      25.552   3.659  50.354  1.00  0.00     0.161 C 
HETATM    8  N1  UNL     1      25.602   5.087  50.607  1.00  0.00    -0.382 N 
HETATM    9  C9  UNL     1      24.550   6.010  50.350  1.00  0.00     0.103 C 
HETATM   10  C10 UNL     1      24.994   7.273  50.365  1.00  0.00     0.157 C 
HETATM   11  N3  UNL     1      24.092   8.347  50.129  1.00  0.00    -0.206 NA
HETATM   12  C17 UNL     1      22.895   8.048  49.819  1.00  0.00     0.198 C 
HETATM   13  N4  UNL     1      22.373   6.952  50.141  1.00  0.00    -0.229 NA
HETATM   14  C18 UNL     1      23.111   5.701  50.087  1.00  0.00     0.307 C 
HETATM   15  O3  UNL     1      22.619   4.801  51.087  1.00  0.00    -0.318 OA
HETATM   16  H7  UNL     1      26.458   5.559  51.015  1.00  0.00     0.160 HD
ENDROOT
BRANCH  10  17
HETATM   17  N2  UNL     1      26.344   7.626  50.608  1.00  0.00    -0.339 N 
HETATM   18  H8  UNL     1      26.704   7.283  51.523  1.00  0.00     0.167 HD
BRANCH  17  19
HETATM   19  C11 UNL     1      27.132   8.374  49.699  1.00  0.00     0.035 A 
HETATM   20  C12 UNL     1      27.475   9.667  50.036  1.00  0.00     0.032 A 
HETATM   21  C13 UNL     1      28.245  10.378  49.130  1.00  0.00     0.046 A 
HETATM   22  C14 UNL     1      28.639   9.790  47.947  1.00  0.00     0.138 A 
HETATM   23  F1  UNL     1      29.400  10.507  47.065  1.00  0.00    -0.204 F 
HETATM   24  C15 UNL     1      28.286   8.482  47.620  1.00  0.00     0.074 A 
HETATM   25 CL1  UNL     1      28.815   7.787  46.103  1.00  0.00    -0.081 Cl
HETATM   26  C16 UNL     1      27.511   7.761  48.523  1.00  0.00     0.056 A 
ENDBRANCH  17  19
ENDBRANCH  10  17
BRANCH   1  27
HETATM   27  C1  UNL     1      24.305  -0.110  53.059  1.00  0.00     0.176 C 
HETATM   28  O1  UNL     1      23.639  -0.949  53.730  1.00  0.00    -0.646 OA
BRANCH  27  29
HETATM   29  O2  UNL     1      25.621  -0.544  52.821  1.00  0.00    -0.773 OA
HETATM   30  H1  UNL     1      26.376   0.123  52.632  1.00  0.00     0.167 HD
ENDBRANCH  27  29
ENDBRANCH   1  27
TORSDOF 4
ENDMDL
