MODEL 1
REMARK VINA RESULT:      -6.1      0.000      0.000
REMARK  10 active torsions:
REMARK  status: ('A' for Active; 'I' for Inactive)
REMARK    1  A    between atoms: C2_2  and  C3_3 
REMARK    2  A    between atoms: C3_3  and  C4_4 
REMARK    3  A    between atoms: C4_4  and  N2_15 
REMARK    4  A    between atoms: C5_5  and  C6_6 
REMARK    5  A    between atoms: C6_6  and  C7_7 
REMARK       I    between atoms: C7_7  and  N1_9 
REMARK    6  A    between atoms: N1_9  and  C8_10 
REMARK    7  A    between atoms: N2_15  and  C13_16 
REMARK    8  A    between atoms: N2_15  and  C15_19 
REMARK    9  A    between atoms: C13_16  and  C14_17 
REMARK   10  A    between atoms: C15_19  and  C16_20 
ROOT
HETATM    1  C4  UNL     1      23.086   2.148  51.777  1.00  0.00     0.004 C 
HETATM    2  C5  UNL     1      23.968   1.831  52.733  1.00  0.00     0.007 C 
ENDROOT
BRANCH   1   3
HETATM    3  C3  UNL     1      22.185   1.068  51.298  1.00  0.00     0.056 C 
BRANCH   3   4
HETATM    4  C2  UNL     1      21.564   0.264  52.428  1.00  0.00     0.002 C 
HETATM    5  C1  UNL     1      20.422   1.053  53.033  1.00  0.00     0.005 C 
ENDBRANCH   3   4
ENDBRANCH   1   3
BRANCH   1   6
HETATM    6  N2  UNL     1      23.188   3.507  51.371  1.00  0.00    -0.382 N 
BRANCH   6   7
HETATM    7  C13 UNL     1      22.749   4.769  51.870  1.00  0.00     0.137 C 
BRANCH   7   8
HETATM    8  C14 UNL     1      21.613   5.457  51.273  1.00  0.00     0.134 C 
HETATM    9 CL1  UNL     1      20.227   4.296  51.383  1.00  0.00    -0.129 Cl
ENDBRANCH   7   8
ENDBRANCH   6   7
BRANCH   6  10
HETATM   10  C15 UNL     1      23.935   3.643  50.126  1.00  0.00     0.137 C 
BRANCH  10  11
HETATM   11  C16 UNL     1      25.102   4.593  50.243  1.00  0.00     0.134 C 
HETATM   12 CL2  UNL     1      26.466   3.807  49.373  1.00  0.00    -0.129 Cl
ENDBRANCH  10  11
ENDBRANCH   6  10
ENDBRANCH   1   6
BRANCH   2  13
HETATM   13  C6  UNL     1      24.977   2.642  53.413  1.00  0.00     0.132 C 
BRANCH  13  14
HETATM   14  C7  UNL     1      26.224   1.829  53.447  1.00  0.00     0.225 C 
HETATM   15  O1  UNL     1      26.522   2.005  52.245  1.00  0.00    -0.273 OA
HETATM   16  N1  UNL     1      26.893   1.090  54.453  1.00  0.00    -0.330 N 
HETATM   17  H11 UNL     1      26.314   1.191  55.336  1.00  0.00     0.168 HD
BRANCH  16  18
HETATM   18  C8  UNL     1      28.094   0.428  54.096  1.00  0.00     0.015 A 
HETATM   19  C9  UNL     1      29.366   0.828  54.198  1.00  0.00     0.025 A 
HETATM   20  C10 UNL     1      30.183  -0.279  53.668  1.00  0.00    -0.002 A 
HETATM   21  C11 UNL     1      29.429  -1.292  53.269  1.00  0.00    -0.021 A 
HETATM   22  C12 UNL     1      27.994  -0.931  53.509  1.00  0.00     0.084 A 
ENDBRANCH  16  18
ENDBRANCH  13  14
ENDBRANCH   2  13
TORSDOF 10
ENDMDL
MODEL 2
REMARK VINA RESULT:      -6.1      2.738      6.609
REMARK  10 active torsions:
REMARK  status: ('A' for Active; 'I' for Inactive)
REMARK    1  A    between atoms: C2_2  and  C3_3 
REMARK    2  A    between atoms: C3_3  and  C4_4 
REMARK    3  A    between atoms: C4_4  and  N2_15 
REMARK    4  A    between atoms: C5_5  and  C6_6 
REMARK    5  A    between atoms: C6_6  and  C7_7 
REMARK       I    between atoms: C7_7  and  N1_9 
REMARK    6  A    between atoms: N1_9  and  C8_10 
REMARK    7  A    between atoms: N2_15  and  C13_16 
REMARK    8  A    between atoms: N2_15  and  C15_19 
REMARK    9  A    between atoms: C13_16  and  C14_17 
REMARK   10  A    between atoms: C15_19  and  C16_20 
ROOT
HETATM    1  C4  UNL     1      24.708   0.177  53.148  1.00  0.00     0.004 C 
HETATM    2  C5  UNL     1      24.459   1.208  52.330  1.00  0.00     0.007 C 
ENDROOT
BRANCH   1   3
HETATM    3  C3  UNL     1      23.541  -0.464  53.808  1.00  0.00     0.056 C 
BRANCH   3   4
HETATM    4  C2  UNL     1      22.250   0.316  53.625  1.00  0.00     0.002 C 
HETATM    5  C1  UNL     1      21.250  -0.118  54.676  1.00  0.00     0.005 C 
ENDBRANCH   3   4
ENDBRANCH   1   3
BRANCH   1   6
HETATM    6  N2  UNL     1      26.095  -0.114  53.249  1.00  0.00    -0.382 N 
BRANCH   6   7
HETATM    7  C13 UNL     1      27.061  -0.821  52.471  1.00  0.00     0.137 C 
BRANCH   7   8
HETATM    8  C14 UNL     1      27.163  -2.272  52.541  1.00  0.00     0.134 C 
HETATM    9 CL1  UNL     1      28.851  -2.616  53.100  1.00  0.00    -0.129 Cl
ENDBRANCH   7   8
ENDBRANCH   6   7
BRANCH   6  10
HETATM   10  C15 UNL     1      26.680   0.456  54.457  1.00  0.00     0.137 C 
BRANCH  10  11
HETATM   11  C16 UNL     1      28.154   0.748  54.313  1.00  0.00     0.134 C 
HETATM   12 CL2  UNL     1      28.263   2.416  53.647  1.00  0.00    -0.129 Cl
ENDBRANCH  10  11
ENDBRANCH   6  10
ENDBRANCH   1   6
BRANCH   2  13
HETATM   13  C6  UNL     1      25.362   2.043  51.539  1.00  0.00     0.132 C 
BRANCH  13  14
HETATM   14  C7  UNL     1      24.671   3.347  51.342  1.00  0.00     0.225 C 
HETATM   15  O1  UNL     1      24.570   3.249  50.099  1.00  0.00    -0.273 OA
HETATM   16  N1  UNL     1      24.249   4.382  52.211  1.00  0.00    -0.330 N 
HETATM   17  H11 UNL     1      24.523   4.083  53.191  1.00  0.00     0.168 HD
BRANCH  16  18
HETATM   18  C8  UNL     1      23.603   5.505  51.635  1.00  0.00     0.015 A 
HETATM   19  C9  UNL     1      24.112   6.643  51.153  1.00  0.00     0.025 A 
HETATM   20  C10 UNL     1      22.961   7.437  50.686  1.00  0.00    -0.002 A 
HETATM   21  C11 UNL     1      21.818   6.798  50.883  1.00  0.00    -0.021 A 
HETATM   22  C12 UNL     1      22.124   5.476  51.521  1.00  0.00     0.084 A 
ENDBRANCH  16  18
ENDBRANCH  13  14
ENDBRANCH   2  13
TORSDOF 10
ENDMDL
MODEL 3
REMARK VINA RESULT:      -6.1      1.232      2.476
REMARK  10 active torsions:
REMARK  status: ('A' for Active; 'I' for Inactive)
REMARK    1  A    between atoms: C2_2  and  C3_3 
REMARK    2  A    between atoms: C3_3  and  C4_4 
REMARK    3  A    between atoms: C4_4  and  N2_15 
REMARK    4  A    between atoms: C5_5  and  C6_6 
REMARK    5  A    between atoms: C6_6  and  C7_7 
REMARK       I    between atoms: C7_7  and  N1_9 
REMARK    6  A    between atoms: N1_9  and  C8_10 
REMARK    7  A    between atoms: N2_15  and  C13_16 
REMARK    8  A    between atoms: N2_15  and  C15_19 
REMARK    9  A    between atoms: C13_16  and  C14_17 
REMARK   10  A    between atoms: C15_19  and  C16_20 
ROOT
HETATM    1  C4  UNL     1      22.811   1.941  52.242  1.00  0.00     0.004 C 
HETATM    2  C5  UNL     1      23.860   1.765  53.054  1.00  0.00     0.007 C 
ENDROOT
BRANCH   1   3
HETATM    3  C3  UNL     1      21.868   0.801  52.092  1.00  0.00     0.056 C 
BRANCH   3   4
HETATM    4  C2  UNL     1      22.301  -0.436  52.861  1.00  0.00     0.002 C 
HETATM    5  C1  UNL     1      21.256  -0.765  53.907  1.00  0.00     0.005 C 
ENDBRANCH   3   4
ENDBRANCH   1   3
BRANCH   1   6
HETATM    6  N2  UNL     1      22.800   3.227  51.638  1.00  0.00    -0.382 N 
BRANCH   6   7
HETATM    7  C13 UNL     1      23.550   3.900  50.628  1.00  0.00     0.137 C 
BRANCH   7   8
HETATM    8  C14 UNL     1      24.039   3.186  49.457  1.00  0.00     0.134 C 
HETATM    9 CL1  UNL     1      22.586   2.387  48.730  1.00  0.00    -0.129 Cl
ENDBRANCH   7   8
ENDBRANCH   6   7
BRANCH   6  10
HETATM   10  C15 UNL     1      21.751   4.075  52.192  1.00  0.00     0.137 C 
BRANCH  10  11
HETATM   11  C16 UNL     1      20.642   4.357  51.207  1.00  0.00     0.134 C 
HETATM   12 CL2  UNL     1      19.264   3.314  51.705  1.00  0.00    -0.129 Cl
ENDBRANCH  10  11
ENDBRANCH   6  10
ENDBRANCH   1   6
BRANCH   2  13
HETATM   13  C6  UNL     1      24.952   2.667  53.417  1.00  0.00     0.132 C 
BRANCH  13  14
HETATM   14  C7  UNL     1      26.193   1.844  53.437  1.00  0.00     0.225 C 
HETATM   15  O1  UNL     1      26.448   1.970  52.220  1.00  0.00    -0.273 OA
HETATM   16  N1  UNL     1      26.894   1.139  54.447  1.00  0.00    -0.330 N 
HETATM   17  H11 UNL     1      26.349   1.280  55.345  1.00  0.00     0.168 HD
BRANCH  16  18
HETATM   18  C8  UNL     1      28.076   0.453  54.072  1.00  0.00     0.015 A 
HETATM   19  C9  UNL     1      29.354   0.843  54.118  1.00  0.00     0.025 A 
HETATM   20  C10 UNL     1      30.143  -0.290  53.599  1.00  0.00    -0.002 A 
HETATM   21  C11 UNL     1      29.366  -1.308  53.259  1.00  0.00    -0.021 A 
HETATM   22  C12 UNL     1      27.943  -0.924  53.534  1.00  0.00     0.084 A 
ENDBRANCH  16  18
ENDBRANCH  13  14
ENDBRANCH   2  13
TORSDOF 10
ENDMDL
MODEL 4
REMARK VINA RESULT:      -6.1      1.691      1.924
REMARK  10 active torsions:
REMARK  status: ('A' for Active; 'I' for Inactive)
REMARK    1  A    between atoms: C2_2  and  C3_3 
REMARK    2  A    between atoms: C3_3  and  C4_4 
REMARK    3  A    between atoms: C4_4  and  N2_15 
REMARK    4  A    between atoms: C5_5  and  C6_6 
REMARK    5  A    between atoms: C6_6  and  C7_7 
REMARK       I    between atoms: C7_7  and  N1_9 
REMARK    6  A    between atoms: N1_9  and  C8_10 
REMARK    7  A    between atoms: N2_15  and  C13_16 
REMARK    8  A    between atoms: N2_15  and  C15_19 
REMARK    9  A    between atoms: C13_16  and  C14_17 
REMARK   10  A    between atoms: C15_19  and  C16_20 
ROOT
HETATM    1  C4  UNL     1      22.600   1.703  52.468  1.00  0.00     0.004 C 
HETATM    2  C5  UNL     1      23.754   1.656  53.145  1.00  0.00     0.007 C 
ENDROOT
BRANCH   1   3
HETATM    3  C3  UNL     1      21.714   0.513  52.551  1.00  0.00     0.056 C 
BRANCH   3   4
HETATM    4  C2  UNL     1      22.363  -0.666  53.257  1.00  0.00     0.002 C 
HETATM    5  C1  UNL     1      21.528  -1.050  54.461  1.00  0.00     0.005 C 
ENDBRANCH   3   4
ENDBRANCH   1   3
BRANCH   1   6
HETATM    6  N2  UNL     1      22.436   2.923  51.757  1.00  0.00    -0.382 N 
BRANCH   6   7
HETATM    7  C13 UNL     1      22.051   4.259  52.075  1.00  0.00     0.137 C 
BRANCH   7   8
HETATM    8  C14 UNL     1      22.837   5.395  51.613  1.00  0.00     0.134 C 
HETATM    9 CL1  UNL     1      21.633   6.620  51.038  1.00  0.00    -0.129 Cl
ENDBRANCH   7   8
ENDBRANCH   6   7
BRANCH   6  10
HETATM   10  C15 UNL     1      22.741   2.766  50.340  1.00  0.00     0.137 C 
BRANCH  10  11
HETATM   11  C16 UNL     1      21.503   2.676  49.480  1.00  0.00     0.134 C 
HETATM   12 CL2  UNL     1      21.401   0.963  48.941  1.00  0.00    -0.129 Cl
ENDBRANCH  10  11
ENDBRANCH   6  10
ENDBRANCH   1   6
BRANCH   2  13
HETATM   13  C6  UNL     1      24.831   2.637  53.273  1.00  0.00     0.132 C 
BRANCH  13  14
HETATM   14  C7  UNL     1      26.103   1.866  53.345  1.00  0.00     0.225 C 
HETATM   15  O1  UNL     1      26.443   2.073  52.160  1.00  0.00    -0.273 OA
HETATM   16  N1  UNL     1      26.756   1.133  54.366  1.00  0.00    -0.330 N 
HETATM   17  H11 UNL     1      26.139   1.198  55.225  1.00  0.00     0.168 HD
BRANCH  16  18
HETATM   18  C8  UNL     1      27.993   0.518  54.048  1.00  0.00     0.015 A 
HETATM   19  C9  UNL     1      29.242   0.983  54.152  1.00  0.00     0.025 A 
HETATM   20  C10 UNL     1      30.120  -0.100  53.672  1.00  0.00    -0.002 A 
HETATM   21  C11 UNL     1      29.421  -1.163  53.299  1.00  0.00    -0.021 A 
HETATM   22  C12 UNL     1      27.967  -0.864  53.508  1.00  0.00     0.084 A 
ENDBRANCH  16  18
ENDBRANCH  13  14
ENDBRANCH   2  13
TORSDOF 10
ENDMDL
MODEL 5
REMARK VINA RESULT:      -6.0      1.874      2.568
REMARK  10 active torsions:
REMARK  status: ('A' for Active; 'I' for Inactive)
REMARK    1  A    between atoms: C2_2  and  C3_3 
REMARK    2  A    between atoms: C3_3  and  C4_4 
REMARK    3  A    between atoms: C4_4  and  N2_15 
REMARK    4  A    between atoms: C5_5  and  C6_6 
REMARK    5  A    between atoms: C6_6  and  C7_7 
REMARK       I    between atoms: C7_7  and  N1_9 
REMARK    6  A    between atoms: N1_9  and  C8_10 
REMARK    7  A    between atoms: N2_15  and  C13_16 
REMARK    8  A    between atoms: N2_15  and  C15_19 
REMARK    9  A    between atoms: C13_16  and  C14_17 
REMARK   10  A    between atoms: C15_19  and  C16_20 
ROOT
HETATM    1  C4  UNL     1      22.385   1.003  52.360  1.00  0.00     0.004 C 
HETATM    2  C5  UNL     1      23.674   0.946  52.715  1.00  0.00     0.007 C 
ENDROOT
BRANCH   1   3
HETATM    3  C3  UNL     1      21.478  -0.033  52.922  1.00  0.00     0.056 C 
BRANCH   3   4
HETATM    4  C2  UNL     1      21.660  -0.237  54.416  1.00  0.00     0.002 C 
HETATM    5  C1  UNL     1      21.847  -1.713  54.700  1.00  0.00     0.005 C 
ENDBRANCH   3   4
ENDBRANCH   1   3
BRANCH   1   6
HETATM    6  N2  UNL     1      22.113   2.074  51.466  1.00  0.00    -0.382 N 
BRANCH   6   7
HETATM    7  C13 UNL     1      22.329   2.343  50.081  1.00  0.00     0.137 C 
BRANCH   7   8
HETATM    8  C14 UNL     1      21.835   1.435  49.056  1.00  0.00     0.134 C 
HETATM    9 CL1  UNL     1      22.531   2.036  47.495  1.00  0.00    -0.129 Cl
ENDBRANCH   7   8
ENDBRANCH   6   7
BRANCH   6  10
HETATM   10  C15 UNL     1      21.441   3.180  52.137  1.00  0.00     0.137 C 
BRANCH  10  11
HETATM   11  C16 UNL     1      21.964   4.530  51.711  1.00  0.00     0.134 C 
HETATM   12 CL2  UNL     1      23.287   4.931  52.863  1.00  0.00    -0.129 Cl
ENDBRANCH  10  11
ENDBRANCH   6  10
ENDBRANCH   1   6
BRANCH   2  13
HETATM   13  C6  UNL     1      24.807   1.795  52.350  1.00  0.00     0.132 C 
BRANCH  13  14
HETATM   14  C7  UNL     1      26.038   1.012  52.645  1.00  0.00     0.225 C 
HETATM   15  O1  UNL     1      26.573   1.191  51.529  1.00  0.00    -0.273 OA
HETATM   16  N1  UNL     1      26.504   0.292  53.773  1.00  0.00    -0.330 N 
HETATM   17  H11 UNL     1      25.754   0.382  54.517  1.00  0.00     0.168 HD
BRANCH  16  18
HETATM   18  C8  UNL     1      27.767  -0.342  53.675  1.00  0.00     0.015 A 
HETATM   19  C9  UNL     1      28.981   0.089  54.032  1.00  0.00     0.025 A 
HETATM   20  C10 UNL     1      29.915  -1.000  53.690  1.00  0.00    -0.002 A 
HETATM   21  C11 UNL     1      29.282  -2.033  53.153  1.00  0.00    -0.021 A 
HETATM   22  C12 UNL     1      27.820  -1.705  53.091  1.00  0.00     0.084 A 
ENDBRANCH  16  18
ENDBRANCH  13  14
ENDBRANCH   2  13
TORSDOF 10
ENDMDL
MODEL 6
REMARK VINA RESULT:      -5.9      1.818      2.918
REMARK  10 active torsions:
REMARK  status: ('A' for Active; 'I' for Inactive)
REMARK    1  A    between atoms: C2_2  and  C3_3 
REMARK    2  A    between atoms: C3_3  and  C4_4 
REMARK    3  A    between atoms: C4_4  and  N2_15 
REMARK    4  A    between atoms: C5_5  and  C6_6 
REMARK    5  A    between atoms: C6_6  and  C7_7 
REMARK       I    between atoms: C7_7  and  N1_9 
REMARK    6  A    between atoms: N1_9  and  C8_10 
REMARK    7  A    between atoms: N2_15  and  C13_16 
REMARK    8  A    between atoms: N2_15  and  C15_19 
REMARK    9  A    between atoms: C13_16  and  C14_17 
REMARK   10  A    between atoms: C15_19  and  C16_20 
ROOT
HETATM    1  C4  UNL     1      23.762   2.885  50.729  1.00  0.00     0.004 C 
HETATM    2  C5  UNL     1      24.822   2.905  51.546  1.00  0.00     0.007 C 
ENDROOT
BRANCH   1   3
HETATM    3  C3  UNL     1      24.003   3.191  49.294  1.00  0.00     0.056 C 
BRANCH   3   4
HETATM    4  C2  UNL     1      22.721   3.331  48.491  1.00  0.00     0.002 C 
HETATM    5  C1  UNL     1      22.456   2.043  47.742  1.00  0.00     0.005 C 
ENDBRANCH   3   4
ENDBRANCH   1   3
BRANCH   1   6
HETATM    6  N2  UNL     1      22.554   2.578  51.412  1.00  0.00    -0.382 N 
BRANCH   6   7
HETATM    7  C13 UNL     1      21.551   3.310  52.114  1.00  0.00     0.137 C 
BRANCH   7   8
HETATM    8  C14 UNL     1      20.533   4.064  51.396  1.00  0.00     0.134 C 
HETATM    9 CL1  UNL     1      21.288   5.668  51.022  1.00  0.00    -0.129 Cl
ENDBRANCH   7   8
ENDBRANCH   6   7
BRANCH   6  10
HETATM   10  C15 UNL     1      22.269   1.148  51.388  1.00  0.00     0.137 C 
BRANCH  10  11
HETATM   11  C16 UNL     1      21.838   0.613  52.732  1.00  0.00     0.134 C 
HETATM   12 CL2  UNL     1      23.138  -0.518  53.250  1.00  0.00    -0.129 Cl
ENDBRANCH  10  11
ENDBRANCH   6  10
ENDBRANCH   1   6
BRANCH   2  13
HETATM   13  C6  UNL     1      24.930   2.654  52.982  1.00  0.00     0.132 C 
BRANCH  13  14
HETATM   14  C7  UNL     1      26.090   1.740  53.168  1.00  0.00     0.225 C 
HETATM   15  O1  UNL     1      26.767   2.201  52.223  1.00  0.00    -0.273 OA
HETATM   16  N1  UNL     1      26.388   0.694  54.076  1.00  0.00    -0.330 N 
HETATM   17  H11 UNL     1      25.552   0.612  54.724  1.00  0.00     0.168 HD
BRANCH  16  18
HETATM   18  C8  UNL     1      27.634   0.034  53.937  1.00  0.00     0.015 A 
HETATM   19  C9  UNL     1      28.827   0.318  54.470  1.00  0.00     0.025 A 
HETATM   20  C10 UNL     1      29.752  -0.716  53.970  1.00  0.00    -0.002 A 
HETATM   21  C11 UNL     1      29.134  -1.576  53.174  1.00  0.00    -0.021 A 
HETATM   22  C12 UNL     1      27.694  -1.172  53.075  1.00  0.00     0.084 A 
ENDBRANCH  16  18
ENDBRANCH  13  14
ENDBRANCH   2  13
TORSDOF 10
ENDMDL
MODEL 7
REMARK VINA RESULT:      -5.8      2.230      3.769
REMARK  10 active torsions:
REMARK  status: ('A' for Active; 'I' for Inactive)
REMARK    1  A    between atoms: C2_2  and  C3_3 
REMARK    2  A    between atoms: C3_3  and  C4_4 
REMARK    3  A    between atoms: C4_4  and  N2_15 
REMARK    4  A    between atoms: C5_5  and  C6_6 
REMARK    5  A    between atoms: C6_6  and  C7_7 
REMARK       I    between atoms: C7_7  and  N1_9 
REMARK    6  A    between atoms: N1_9  and  C8_10 
REMARK    7  A    between atoms: N2_15  and  C13_16 
REMARK    8  A    between atoms: N2_15  and  C15_19 
REMARK    9  A    between atoms: C13_16  and  C14_17 
REMARK   10  A    between atoms: C15_19  and  C16_20 
ROOT
HETATM    1  C4  UNL     1      25.138   4.296  49.911  1.00  0.00     0.004 C 
HETATM    2  C5  UNL     1      25.719   3.439  50.760  1.00  0.00     0.007 C 
ENDROOT
BRANCH   1   3
HETATM    3  C3  UNL     1      26.020   5.272  49.219  1.00  0.00     0.056 C 
BRANCH   3   4
HETATM    4  C2  UNL     1      27.355   4.678  48.802  1.00  0.00     0.002 C 
HETATM    5  C1  UNL     1      28.264   5.785  48.312  1.00  0.00     0.005 C 
ENDBRANCH   3   4
ENDBRANCH   1   3
BRANCH   1   6
HETATM    6  N2  UNL     1      23.730   4.117  49.837  1.00  0.00    -0.382 N 
BRANCH   6   7
HETATM    7  C13 UNL     1      22.580   4.723  50.424  1.00  0.00     0.137 C 
BRANCH   7   8
HETATM    8  C14 UNL     1      22.463   4.866  51.868  1.00  0.00     0.134 C 
HETATM    9 CL1  UNL     1      21.164   3.708  52.370  1.00  0.00    -0.129 Cl
ENDBRANCH   7   8
ENDBRANCH   6   7
BRANCH   6  10
HETATM   10  C15 UNL     1      23.371   3.036  48.925  1.00  0.00     0.137 C 
BRANCH  10  11
HETATM   11  C16 UNL     1      21.882   2.799  48.856  1.00  0.00     0.134 C 
HETATM   12 CL2  UNL     1      21.638   1.071  49.296  1.00  0.00    -0.129 Cl
ENDBRANCH  10  11
ENDBRANCH   6  10
ENDBRANCH   1   6
BRANCH   2  13
HETATM   13  C6  UNL     1      25.152   2.374  51.585  1.00  0.00     0.132 C 
BRANCH  13  14
HETATM   14  C7  UNL     1      26.298   1.563  52.080  1.00  0.00     0.225 C 
HETATM   15  O1  UNL     1      27.002   1.701  51.056  1.00  0.00    -0.273 OA
HETATM   16  N1  UNL     1      26.562   0.857  53.280  1.00  0.00    -0.330 N 
HETATM   17  H11 UNL     1      25.711   0.985  53.898  1.00  0.00     0.168 HD
BRANCH  16  18
HETATM   18  C8  UNL     1      27.805   0.185  53.389  1.00  0.00     0.015 A 
HETATM   19  C9  UNL     1      29.008   0.644  53.749  1.00  0.00     0.025 A 
HETATM   20  C10 UNL     1      29.921  -0.512  53.677  1.00  0.00    -0.002 A 
HETATM   21  C11 UNL     1      29.288  -1.609  53.290  1.00  0.00    -0.021 A 
HETATM   22  C12 UNL     1      27.847  -1.263  53.065  1.00  0.00     0.084 A 
ENDBRANCH  16  18
ENDBRANCH  13  14
ENDBRANCH   2  13
TORSDOF 10
ENDMDL
MODEL 8
REMARK VINA RESULT:      -5.8      2.882      6.562
REMARK  10 active torsions:
REMARK  status: ('A' for Active; 'I' for Inactive)
REMARK    1  A    between atoms: C2_2  and  C3_3 
REMARK    2  A    between atoms: C3_3  and  C4_4 
REMARK    3  A    between atoms: C4_4  and  N2_15 
REMARK    4  A    between atoms: C5_5  and  C6_6 
REMARK    5  A    between atoms: C6_6  and  C7_7 
REMARK       I    between atoms: C7_7  and  N1_9 
REMARK    6  A    between atoms: N1_9  and  C8_10 
REMARK    7  A    between atoms: N2_15  and  C13_16 
REMARK    8  A    between atoms: N2_15  and  C15_19 
REMARK    9  A    between atoms: C13_16  and  C14_17 
REMARK   10  A    between atoms: C15_19  and  C16_20 
ROOT
HETATM    1  C4  UNL     1      25.207   0.320  53.161  1.00  0.00     0.004 C 
HETATM    2  C5  UNL     1      25.032   1.274  52.238  1.00  0.00     0.007 C 
ENDROOT
BRANCH   1   3
HETATM    3  C3  UNL     1      23.986  -0.320  53.717  1.00  0.00     0.056 C 
BRANCH   3   4
HETATM    4  C2  UNL     1      22.699   0.289  53.186  1.00  0.00     0.002 C 
HETATM    5  C1  UNL     1      21.579   0.029  54.172  1.00  0.00     0.005 C 
ENDBRANCH   3   4
ENDBRANCH   1   3
BRANCH   1   6
HETATM    6  N2  UNL     1      26.578   0.099  53.462  1.00  0.00    -0.382 N 
BRANCH   6   7
HETATM    7  C13 UNL     1      27.475   0.456  54.512  1.00  0.00     0.137 C 
BRANCH   7   8
HETATM    8  C14 UNL     1      28.844   0.859  54.223  1.00  0.00     0.134 C 
HETATM    9 CL1  UNL     1      28.743   2.588  53.693  1.00  0.00    -0.129 Cl
ENDBRANCH   7   8
ENDBRANCH   6   7
BRANCH   6  10
HETATM   10  C15 UNL     1      27.234  -0.700  52.433  1.00  0.00     0.137 C 
BRANCH  10  11
HETATM   11  C16 UNL     1      27.176  -2.182  52.715  1.00  0.00     0.134 C 
HETATM   12 CL2  UNL     1      28.856  -2.669  53.136  1.00  0.00    -0.129 Cl
ENDBRANCH  10  11
ENDBRANCH   6  10
ENDBRANCH   1   6
BRANCH   2  13
HETATM   13  C6  UNL     1      26.002   2.086  51.504  1.00  0.00     0.132 C 
BRANCH  13  14
HETATM   14  C7  UNL     1      25.296   3.336  51.108  1.00  0.00     0.225 C 
HETATM   15  O1  UNL     1      24.142   2.900  51.315  1.00  0.00    -0.273 OA
HETATM   16  N1  UNL     1      25.722   4.606  50.648  1.00  0.00    -0.330 N 
HETATM   17  H11 UNL     1      26.781   4.571  50.606  1.00  0.00     0.168 HD
BRANCH  16  18
HETATM   18  C8  UNL     1      24.725   5.573  50.365  1.00  0.00     0.015 A 
HETATM   19  C9  UNL     1      24.166   6.495  51.155  1.00  0.00     0.025 A 
HETATM   20  C10 UNL     1      23.191   7.213  50.314  1.00  0.00    -0.002 A 
HETATM   21  C11 UNL     1      23.172   6.738  49.077  1.00  0.00    -0.021 A 
HETATM   22  C12 UNL     1      24.170   5.622  48.990  1.00  0.00     0.084 A 
ENDBRANCH  16  18
ENDBRANCH  13  14
ENDBRANCH   2  13
TORSDOF 10
ENDMDL
MODEL 9
REMARK VINA RESULT:      -5.7      3.234      7.086
REMARK  10 active torsions:
REMARK  status: ('A' for Active; 'I' for Inactive)
REMARK    1  A    between atoms: C2_2  and  C3_3 
REMARK    2  A    between atoms: C3_3  and  C4_4 
REMARK    3  A    between atoms: C4_4  and  N2_15 
REMARK    4  A    between atoms: C5_5  and  C6_6 
REMARK    5  A    between atoms: C6_6  and  C7_7 
REMARK       I    between atoms: C7_7  and  N1_9 
REMARK    6  A    between atoms: N1_9  and  C8_10 
REMARK    7  A    between atoms: N2_15  and  C13_16 
REMARK    8  A    between atoms: N2_15  and  C15_19 
REMARK    9  A    between atoms: C13_16  and  C14_17 
REMARK   10  A    between atoms: C15_19  and  C16_20 
ROOT
HETATM    1  C4  UNL     1      25.988   2.554  51.213  1.00  0.00     0.004 C 
HETATM    2  C5  UNL     1      24.749   2.923  51.557  1.00  0.00     0.007 C 
ENDROOT
BRANCH   1   3
HETATM    3  C3  UNL     1      26.490   3.006  49.889  1.00  0.00     0.056 C 
BRANCH   3   4
HETATM    4  C2  UNL     1      26.201   4.472  49.611  1.00  0.00     0.002 C 
HETATM    5  C1  UNL     1      27.288   5.036  48.720  1.00  0.00     0.005 C 
ENDBRANCH   3   4
ENDBRANCH   1   3
BRANCH   1   6
HETATM    6  N2  UNL     1      26.614   1.754  52.208  1.00  0.00    -0.382 N 
BRANCH   6   7
HETATM    7  C13 UNL     1      27.222   1.977  53.479  1.00  0.00     0.137 C 
BRANCH   7   8
HETATM    8  C14 UNL     1      28.629   2.336  53.584  1.00  0.00     0.134 C 
HETATM    9 CL1  UNL     1      29.491   0.809  54.039  1.00  0.00    -0.129 Cl
ENDBRANCH   7   8
ENDBRANCH   6   7
BRANCH   6  10
HETATM   10  C15 UNL     1      26.638   0.346  51.832  1.00  0.00     0.137 C 
BRANCH  10  11
HETATM   11  C16 UNL     1      26.226  -0.570  52.959  1.00  0.00     0.134 C 
HETATM   12 CL2  UNL     1      27.059  -2.134  52.653  1.00  0.00    -0.129 Cl
ENDBRANCH  10  11
ENDBRANCH   6  10
ENDBRANCH   1   6
BRANCH   2  13
HETATM   13  C6  UNL     1      23.969   2.654  52.764  1.00  0.00     0.132 C 
BRANCH  13  14
HETATM   14  C7  UNL     1      22.674   2.074  52.313  1.00  0.00     0.225 C 
HETATM   15  O1  UNL     1      23.172   1.077  51.746  1.00  0.00    -0.273 OA
HETATM   16  N1  UNL     1      21.318   2.463  52.445  1.00  0.00    -0.330 N 
HETATM   17  H11 UNL     1      21.318   3.371  52.994  1.00  0.00     0.168 HD
BRANCH  16  18
HETATM   18  C8  UNL     1      20.332   1.628  51.864  1.00  0.00     0.015 A 
HETATM   19  C9  UNL     1      19.632   0.619  52.393  1.00  0.00     0.025 A 
HETATM   20  C10 UNL     1      18.756   0.124  51.315  1.00  0.00    -0.002 A 
HETATM   21  C11 UNL     1      18.930   0.808  50.194  1.00  0.00    -0.021 A 
HETATM   22  C12 UNL     1      19.974   1.856  50.442  1.00  0.00     0.084 A 
ENDBRANCH  16  18
ENDBRANCH  13  14
ENDBRANCH   2  13
TORSDOF 10
ENDMDL
