MODEL 1
REMARK VINA RESULT:      -7.2      0.000      0.000
REMARK  4 active torsions:
REMARK  status: ('A' for Active; 'I' for Inactive)
REMARK    1  A    between atoms: O1_2  and  C2_3 
REMARK    2  A    between atoms: N1_7  and  C6_8 
REMARK    3  A    between atoms: C7_9  and  C8_10 
REMARK    4  A    between atoms: C9_11  and  N2_12 
ROOT
HETATM    1  C2  UNL     1      23.760  -0.358  53.526  1.00  0.00     0.068 C 
HETATM    2  C3  UNL     1      23.195   0.837  53.263  1.00  0.00     0.038 C 
HETATM    3  C4  UNL     1      23.373   2.174  52.696  1.00  0.00     0.022 C 
HETATM    4  C5  UNL     1      24.411   2.823  52.134  1.00  0.00     0.118 C 
HETATM    5  N1  UNL     1      25.800   2.710  51.759  1.00  0.00    -0.257 N 
HETATM    6  N3  UNL     1      27.032   2.505  52.455  1.00  0.00    -0.185 NA
HETATM    7  C14 UNL     1      27.425   1.277  52.609  1.00  0.00     0.116 C 
HETATM    8  C15 UNL     1      26.434   0.432  51.989  1.00  0.00     0.075 C 
HETATM    9  C16 UNL     1      26.275  -0.857  52.708  1.00  0.00    -0.019 C 
HETATM   10  C17 UNL     1      25.054  -0.947  53.264  1.00  0.00     0.033 C 
ENDROOT
BRANCH   5  11
HETATM   11  C6  UNL     1      26.257   2.804  50.426  1.00  0.00     0.118 C 
HETATM   12  C7  UNL     1      26.745   3.946  50.031  1.00  0.00     0.021 C 
BRANCH  12  13
HETATM   13  C8  UNL     1      27.327   4.635  48.899  1.00  0.00     0.018 C 
HETATM   14  C9  UNL     1      27.492   5.794  48.305  1.00  0.00     0.085 C 
BRANCH  14  15
HETATM   15  N2  UNL     1      27.110   7.131  48.549  1.00  0.00    -0.386 N 
HETATM   16  C10 UNL     1      26.409   7.748  49.666  1.00  0.00     0.148 C 
HETATM   17  C11 UNL     1      27.178   8.944  50.134  1.00  0.00     0.187 C 
HETATM   18  O2  UNL     1      28.428   9.094  49.583  1.00  0.00    -0.388 OA
HETATM   19  C12 UNL     1      28.427   9.114  48.203  1.00  0.00     0.187 C 
HETATM   20  C13 UNL     1      27.407   8.192  47.601  1.00  0.00     0.148 C 
ENDBRANCH  14  15
ENDBRANCH  12  13
ENDBRANCH   5  11
BRANCH   1  21
HETATM   21  O1  UNL     1      22.940  -1.308  54.189  1.00  0.00    -0.356 OA
HETATM   22  C1  UNL     1      21.662  -0.925  54.610  1.00  0.00     0.210 C 
ENDBRANCH   1  21
TORSDOF 4
ENDMDL
MODEL 2
REMARK VINA RESULT:      -7.1      2.014      3.447
REMARK  4 active torsions:
REMARK  status: ('A' for Active; 'I' for Inactive)
REMARK    1  A    between atoms: O1_2  and  C2_3 
REMARK    2  A    between atoms: N1_7  and  C6_8 
REMARK    3  A    between atoms: C7_9  and  C8_10 
REMARK    4  A    between atoms: C9_11  and  N2_12 
ROOT
HETATM    1  C2  UNL     1      26.187  -0.237  52.987  1.00  0.00     0.068 C 
HETATM    2  C3  UNL     1      26.840   0.647  52.206  1.00  0.00     0.038 C 
HETATM    3  C4  UNL     1      26.737   1.833  51.356  1.00  0.00     0.022 C 
HETATM    4  C5  UNL     1      25.714   2.612  50.953  1.00  0.00     0.118 C 
HETATM    5  N1  UNL     1      24.287   2.811  51.040  1.00  0.00    -0.257 N 
HETATM    6  N3  UNL     1      23.127   2.064  50.666  1.00  0.00    -0.185 NA
HETATM    7  C14 UNL     1      22.630   1.261  51.558  1.00  0.00     0.116 C 
HETATM    8  C15 UNL     1      23.453   1.374  52.737  1.00  0.00     0.075 C 
HETATM    9  C16 UNL     1      23.559   0.084  53.465  1.00  0.00    -0.019 C 
HETATM   10  C17 UNL     1      24.819  -0.384  53.429  1.00  0.00     0.033 C 
ENDROOT
BRANCH   5  11
HETATM   11  C6  UNL     1      23.695   3.968  51.593  1.00  0.00     0.118 C 
HETATM   12  C7  UNL     1      23.997   5.118  51.059  1.00  0.00     0.021 C 
BRANCH  12  13
HETATM   13  C8  UNL     1      23.754   6.542  51.147  1.00  0.00     0.018 C 
HETATM   14  C9  UNL     1      24.095   7.728  50.699  1.00  0.00     0.085 C 
BRANCH  14  15
HETATM   15  N2  UNL     1      25.017   8.240  49.759  1.00  0.00    -0.386 N 
HETATM   16  C10 UNL     1      24.847   9.143  48.630  1.00  0.00     0.148 C 
HETATM   17  C11 UNL     1      25.864  10.238  48.714  1.00  0.00     0.187 C 
HETATM   18  O2  UNL     1      26.583  10.287  49.884  1.00  0.00    -0.388 OA
HETATM   19  C12 UNL     1      27.220   9.103  50.195  1.00  0.00     0.187 C 
HETATM   20  C13 UNL     1      26.427   7.888  49.809  1.00  0.00     0.148 C 
ENDBRANCH  14  15
ENDBRANCH  12  13
ENDBRANCH   5  11
BRANCH   1  21
HETATM   21  O1  UNL     1      26.975  -1.271  53.558  1.00  0.00    -0.356 OA
HETATM   22  C1  UNL     1      28.350  -1.299  53.298  1.00  0.00     0.210 C 
ENDBRANCH   1  21
TORSDOF 4
ENDMDL
MODEL 3
REMARK VINA RESULT:      -7.1      3.913      7.190
REMARK  4 active torsions:
REMARK  status: ('A' for Active; 'I' for Inactive)
REMARK    1  A    between atoms: O1_2  and  C2_3 
REMARK    2  A    between atoms: N1_7  and  C6_8 
REMARK    3  A    between atoms: C7_9  and  C8_10 
REMARK    4  A    between atoms: C9_11  and  N2_12 
ROOT
HETATM    1  C2  UNL     1      22.658   3.829  48.903  1.00  0.00     0.068 C 
HETATM    2  C3  UNL     1      22.972   4.219  50.155  1.00  0.00     0.038 C 
HETATM    3  C4  UNL     1      22.935   3.891  51.580  1.00  0.00     0.022 C 
HETATM    4  C5  UNL     1      22.441   2.861  52.293  1.00  0.00     0.118 C 
HETATM    5  N1  UNL     1      21.741   1.602  52.202  1.00  0.00    -0.257 N 
HETATM    6  N3  UNL     1      20.448   1.182  51.759  1.00  0.00    -0.185 NA
HETATM    7  C14 UNL     1      20.338   0.834  50.512  1.00  0.00     0.116 C 
HETATM    8  C15 UNL     1      21.640   0.987  49.911  1.00  0.00     0.075 C 
HETATM    9  C16 UNL     1      21.550   1.412  48.491  1.00  0.00    -0.019 C 
HETATM   10  C17 UNL     1      22.054   2.648  48.330  1.00  0.00     0.033 C 
ENDROOT
BRANCH   5  11
HETATM   11  C6  UNL     1      22.298   0.370  52.610  1.00  0.00     0.118 C 
HETATM   12  C7  UNL     1      23.562   0.351  52.928  1.00  0.00     0.021 C 
BRANCH  12  13
HETATM   13  C8  UNL     1      24.635  -0.507  53.383  1.00  0.00     0.018 C 
HETATM   14  C9  UNL     1      25.936  -0.646  53.495  1.00  0.00     0.085 C 
BRANCH  14  15
HETATM   15  N2  UNL     1      27.078   0.117  53.165  1.00  0.00    -0.386 N 
HETATM   16  C10 UNL     1      27.220   1.437  52.569  1.00  0.00     0.148 C 
HETATM   17  C11 UNL     1      28.156   2.259  53.400  1.00  0.00     0.187 C 
HETATM   18  O2  UNL     1      28.513   1.705  54.606  1.00  0.00    -0.388 OA
HETATM   19  C12 UNL     1      29.055   0.440  54.497  1.00  0.00     0.187 C 
HETATM   20  C13 UNL     1      28.422  -0.381  53.411  1.00  0.00     0.148 C 
ENDBRANCH  14  15
ENDBRANCH  12  13
ENDBRANCH   5  11
BRANCH   1  21
HETATM   21  O1  UNL     1      22.998   4.732  47.861  1.00  0.00    -0.356 OA
HETATM   22  C1  UNL     1      23.640   5.932  48.186  1.00  0.00     0.210 C 
ENDBRANCH   1  21
TORSDOF 4
ENDMDL
MODEL 4
REMARK VINA RESULT:      -7.0      2.195      7.908
REMARK  4 active torsions:
REMARK  status: ('A' for Active; 'I' for Inactive)
REMARK    1  A    between atoms: O1_2  and  C2_3 
REMARK    2  A    between atoms: N1_7  and  C6_8 
REMARK    3  A    between atoms: C7_9  and  C8_10 
REMARK    4  A    between atoms: C9_11  and  N2_12 
ROOT
HETATM    1  C2  UNL     1      26.220   7.153  49.582  1.00  0.00     0.068 C 
HETATM    2  C3  UNL     1      25.220   7.381  50.456  1.00  0.00     0.038 C 
HETATM    3  C4  UNL     1      24.179   6.795  51.300  1.00  0.00     0.022 C 
HETATM    4  C5  UNL     1      23.752   5.537  51.526  1.00  0.00     0.118 C 
HETATM    5  N1  UNL     1      23.958   4.151  51.182  1.00  0.00    -0.257 N 
HETATM    6  N3  UNL     1      23.860   3.369  49.989  1.00  0.00    -0.185 NA
HETATM    7  C14 UNL     1      24.937   3.254  49.270  1.00  0.00     0.116 C 
HETATM    8  C15 UNL     1      25.975   3.999  49.938  1.00  0.00     0.075 C 
HETATM    9  C16 UNL     1      26.916   4.625  48.975  1.00  0.00    -0.019 C 
HETATM   10  C17 UNL     1      26.829   5.966  49.025  1.00  0.00     0.033 C 
ENDROOT
BRANCH   5  11
HETATM   11  C6  UNL     1      24.345   3.166  52.117  1.00  0.00     0.118 C 
HETATM   12  C7  UNL     1      23.562   2.136  52.273  1.00  0.00     0.021 C 
BRANCH  12  13
HETATM   13  C8  UNL     1      23.402   0.895  53.001  1.00  0.00     0.018 C 
HETATM   14  C9  UNL     1      24.021  -0.118  53.563  1.00  0.00     0.085 C 
BRANCH  14  15
HETATM   15  N2  UNL     1      25.361  -0.522  53.748  1.00  0.00    -0.386 N 
HETATM   16  C10 UNL     1      26.243  -1.347  52.934  1.00  0.00     0.148 C 
HETATM   17  C11 UNL     1      27.544  -0.635  52.735  1.00  0.00     0.187 C 
HETATM   18  O2  UNL     1      27.573   0.671  53.161  1.00  0.00    -0.388 OA
HETATM   19  C12 UNL     1      27.209   0.832  54.483  1.00  0.00     0.187 C 
HETATM   20  C13 UNL     1      26.125  -0.113  54.914  1.00  0.00     0.148 C 
ENDBRANCH  14  15
ENDBRANCH  12  13
ENDBRANCH   5  11
BRANCH   1  21
HETATM   21  O1  UNL     1      26.884   8.301  49.073  1.00  0.00    -0.356 OA
HETATM   22  C1  UNL     1      27.447   9.212  49.973  1.00  0.00     0.210 C 
ENDBRANCH   1  21
TORSDOF 4
ENDMDL
MODEL 5
REMARK VINA RESULT:      -6.9      5.726      8.704
REMARK  4 active torsions:
REMARK  status: ('A' for Active; 'I' for Inactive)
REMARK    1  A    between atoms: O1_2  and  C2_3 
REMARK    2  A    between atoms: N1_7  and  C6_8 
REMARK    3  A    between atoms: C7_9  and  C8_10 
REMARK    4  A    between atoms: C9_11  and  N2_12 
ROOT
HETATM    1  C2  UNL     1      24.484  -0.476  54.031  1.00  0.00     0.068 C 
HETATM    2  C3  UNL     1      23.426  -1.002  54.681  1.00  0.00     0.038 C 
HETATM    3  C4  UNL     1      21.969  -1.053  54.800  1.00  0.00     0.022 C 
HETATM    4  C5  UNL     1      20.954  -0.432  54.168  1.00  0.00     0.118 C 
HETATM    5  N1  UNL     1      20.625   0.528  53.141  1.00  0.00    -0.257 N 
HETATM    6  N3  UNL     1      20.866   1.921  52.930  1.00  0.00    -0.185 NA
HETATM    7  C14 UNL     1      21.940   2.240  52.273  1.00  0.00     0.116 C 
HETATM    8  C15 UNL     1      22.610   1.010  51.930  1.00  0.00     0.075 C 
HETATM    9  C16 UNL     1      24.087   1.163  51.934  1.00  0.00    -0.019 C 
HETATM   10  C17 UNL     1      24.641   0.427  52.914  1.00  0.00     0.033 C 
ENDROOT
BRANCH   5  11
HETATM   11  C6  UNL     1      19.881   0.206  51.985  1.00  0.00     0.118 C 
HETATM   12  C7  UNL     1      18.592   0.392  52.021  1.00  0.00     0.021 C 
BRANCH  12  13
HETATM   13  C8  UNL     1      17.376   0.274  51.245  1.00  0.00     0.018 C 
HETATM   14  C9  UNL     1      16.248   0.854  50.905  1.00  0.00     0.085 C 
BRANCH  14  15
HETATM   15  N2  UNL     1      15.599   2.075  51.193  1.00  0.00    -0.386 N 
HETATM   16  C10 UNL     1      14.642   2.441  52.227  1.00  0.00     0.148 C 
HETATM   17  C11 UNL     1      15.106   3.689  52.912  1.00  0.00     0.187 C 
HETATM   18  O2  UNL     1      16.375   4.104  52.587  1.00  0.00    -0.388 OA
HETATM   19  C12 UNL     1      16.573   4.275  51.231  1.00  0.00     0.187 C 
HETATM   20  C13 UNL     1      15.835   3.268  50.396  1.00  0.00     0.148 C 
ENDBRANCH  14  15
ENDBRANCH  12  13
ENDBRANCH   5  11
BRANCH   1  21
HETATM   21  O1  UNL     1      25.766  -0.884  54.486  1.00  0.00    -0.356 OA
HETATM   22  C1  UNL     1      26.778   0.074  54.610  1.00  0.00     0.210 C 
ENDBRANCH   1  21
TORSDOF 4
ENDMDL
MODEL 6
REMARK VINA RESULT:      -6.8      3.216      7.300
REMARK  4 active torsions:
REMARK  status: ('A' for Active; 'I' for Inactive)
REMARK    1  A    between atoms: O1_2  and  C2_3 
REMARK    2  A    between atoms: N1_7  and  C6_8 
REMARK    3  A    between atoms: C7_9  and  C8_10 
REMARK    4  A    between atoms: C9_11  and  N2_12 
ROOT
HETATM    1  C2  UNL     1      23.748   5.160  49.290  1.00  0.00     0.068 C 
HETATM    2  C3  UNL     1      23.823   5.297  50.629  1.00  0.00     0.038 C 
HETATM    3  C4  UNL     1      23.490   4.729  51.935  1.00  0.00     0.022 C 
HETATM    4  C5  UNL     1      22.819   3.631  52.337  1.00  0.00     0.118 C 
HETATM    5  N1  UNL     1      22.096   2.468  51.881  1.00  0.00    -0.257 N 
HETATM    6  N3  UNL     1      20.901   2.237  51.132  1.00  0.00    -0.185 NA
HETATM    7  C14 UNL     1      21.025   2.123  49.844  1.00  0.00     0.116 C 
HETATM    8  C15 UNL     1      22.426   2.275  49.537  1.00  0.00     0.075 C 
HETATM    9  C16 UNL     1      22.639   2.949  48.232  1.00  0.00    -0.019 C 
HETATM   10  C17 UNL     1      23.219   4.150  48.403  1.00  0.00     0.033 C 
ENDROOT
BRANCH   5  11
HETATM   11  C6  UNL     1      22.507   1.143  52.147  1.00  0.00     0.118 C 
HETATM   12  C7  UNL     1      23.647   0.971  52.755  1.00  0.00     0.021 C 
BRANCH  12  13
HETATM   13  C8  UNL     1      24.551  -0.034  53.271  1.00  0.00     0.018 C 
HETATM   14  C9  UNL     1      25.808  -0.362  53.466  1.00  0.00     0.085 C 
BRANCH  14  15
HETATM   15  N2  UNL     1      27.068   0.225  53.217  1.00  0.00    -0.386 N 
HETATM   16  C10 UNL     1      27.441   1.556  52.759  1.00  0.00     0.148 C 
HETATM   17  C11 UNL     1      28.485   2.120  53.672  1.00  0.00     0.187 C 
HETATM   18  O2  UNL     1      28.721   1.396  54.816  1.00  0.00    -0.388 OA
HETATM   19  C12 UNL     1      29.044   0.075  54.581  1.00  0.00     0.187 C 
HETATM   20  C13 UNL     1      28.303  -0.514  53.416  1.00  0.00     0.148 C 
ENDBRANCH  14  15
ENDBRANCH  12  13
ENDBRANCH   5  11
BRANCH   1  21
HETATM   21  O1  UNL     1      24.327   6.202  48.519  1.00  0.00    -0.356 OA
HETATM   22  C1  UNL     1      25.554   6.743  48.921  1.00  0.00     0.210 C 
ENDBRANCH   1  21
TORSDOF 4
ENDMDL
MODEL 7
REMARK VINA RESULT:      -6.8      3.805      7.204
REMARK  4 active torsions:
REMARK  status: ('A' for Active; 'I' for Inactive)
REMARK    1  A    between atoms: O1_2  and  C2_3 
REMARK    2  A    between atoms: N1_7  and  C6_8 
REMARK    3  A    between atoms: C7_9  and  C8_10 
REMARK    4  A    between atoms: C9_11  and  N2_12 
ROOT
HETATM    1  C2  UNL     1      22.649   5.029  50.197  1.00  0.00     0.068 C 
HETATM    2  C3  UNL     1      22.061   4.873  51.400  1.00  0.00     0.038 C 
HETATM    3  C4  UNL     1      21.417   3.949  52.333  1.00  0.00     0.022 C 
HETATM    4  C5  UNL     1      21.100   2.640  52.288  1.00  0.00     0.118 C 
HETATM    5  N1  UNL     1      21.148   1.450  51.473  1.00  0.00    -0.257 N 
HETATM    6  N3  UNL     1      20.596   1.050  50.216  1.00  0.00    -0.185 NA
HETATM    7  C14 UNL     1      21.315   1.276  49.158  1.00  0.00     0.116 C 
HETATM    8  C15 UNL     1      22.536   1.904  49.600  1.00  0.00     0.075 C 
HETATM    9  C16 UNL     1      23.042   2.890  48.612  1.00  0.00    -0.019 C 
HETATM   10  C17 UNL     1      22.991   4.138  49.112  1.00  0.00     0.033 C 
ENDROOT
BRANCH   5  11
HETATM   11  C6  UNL     1      21.856   0.284  51.839  1.00  0.00     0.118 C 
HETATM   12  C7  UNL     1      22.806   0.403  52.722  1.00  0.00     0.021 C 
BRANCH  12  13
HETATM   13  C8  UNL     1      23.812  -0.334  53.458  1.00  0.00     0.018 C 
HETATM   14  C9  UNL     1      25.098  -0.502  53.661  1.00  0.00     0.085 C 
BRANCH  14  15
HETATM   15  N2  UNL     1      26.294   0.065  53.169  1.00  0.00    -0.386 N 
HETATM   16  C10 UNL     1      26.535   1.195  52.282  1.00  0.00     0.148 C 
HETATM   17  C11 UNL     1      27.546   2.107  52.904  1.00  0.00     0.187 C 
HETATM   18  O2  UNL     1      27.874   1.822  54.207  1.00  0.00    -0.388 OA
HETATM   19  C12 UNL     1      28.309   0.526  54.400  1.00  0.00     0.187 C 
HETATM   20  C13 UNL     1      27.595  -0.470  53.532  1.00  0.00     0.148 C 
ENDBRANCH  14  15
ENDBRANCH  12  13
ENDBRANCH   5  11
BRANCH   1  21
HETATM   21  O1  UNL     1      23.077   6.344  49.873  1.00  0.00    -0.356 OA
HETATM   22  C1  UNL     1      23.851   7.052  50.799  1.00  0.00     0.210 C 
ENDBRANCH   1  21
TORSDOF 4
ENDMDL
MODEL 8
REMARK VINA RESULT:      -6.7      4.854      9.112
REMARK  4 active torsions:
REMARK  status: ('A' for Active; 'I' for Inactive)
REMARK    1  A    between atoms: O1_2  and  C2_3 
REMARK    2  A    between atoms: N1_7  and  C6_8 
REMARK    3  A    between atoms: C7_9  and  C8_10 
REMARK    4  A    between atoms: C9_11  and  N2_12 
ROOT
HETATM    1  C2  UNL     1      26.513  -0.342  53.688  1.00  0.00     0.068 C 
HETATM    2  C3  UNL     1      25.400  -0.816  54.283  1.00  0.00     0.038 C 
HETATM    3  C4  UNL     1      23.941  -0.757  54.366  1.00  0.00     0.022 C 
HETATM    4  C5  UNL     1      22.995  -0.024  53.747  1.00  0.00     0.118 C 
HETATM    5  N1  UNL     1      22.771   1.013  52.768  1.00  0.00    -0.257 N 
HETATM    6  N3  UNL     1      23.125   2.392  52.640  1.00  0.00    -0.185 NA
HETATM    7  C14 UNL     1      24.239   2.659  52.026  1.00  0.00     0.116 C 
HETATM    8  C15 UNL     1      24.820   1.399  51.631  1.00  0.00     0.075 C 
HETATM    9  C16 UNL     1      26.303   1.433  51.677  1.00  0.00    -0.019 C 
HETATM   10  C17 UNL     1      26.771   0.604  52.627  1.00  0.00     0.033 C 
ENDROOT
BRANCH   5  11
HETATM   11  C6  UNL     1      22.035   0.814  51.578  1.00  0.00     0.118 C 
HETATM   12  C7  UNL     1      20.742   0.686  51.679  1.00  0.00     0.021 C 
BRANCH  12  13
HETATM   13  C8  UNL     1      19.530   0.481  50.915  1.00  0.00     0.018 C 
HETATM   14  C9  UNL     1      18.258   0.160  50.969  1.00  0.00     0.085 C 
BRANCH  14  15
HETATM   15  N2  UNL     1      17.333  -0.189  51.978  1.00  0.00    -0.386 N 
HETATM   16  C10 UNL     1      15.918   0.110  52.138  1.00  0.00     0.148 C 
HETATM   17  C11 UNL     1      15.172  -1.157  52.425  1.00  0.00     0.187 C 
HETATM   18  O2  UNL     1      15.900  -2.314  52.283  1.00  0.00    -0.388 OA
HETATM   19  C12 UNL     1      17.060  -2.336  53.031  1.00  0.00     0.187 C 
HETATM   20  C13 UNL     1      17.726  -0.993  53.124  1.00  0.00     0.148 C 
ENDBRANCH  14  15
ENDBRANCH  12  13
ENDBRANCH   5  11
BRANCH   1  21
HETATM   21  O1  UNL     1      27.746  -0.875  54.149  1.00  0.00    -0.356 OA
HETATM   22  C1  UNL     1      28.912  -0.615  53.420  1.00  0.00     0.210 C 
ENDBRANCH   1  21
TORSDOF 4
ENDMDL
MODEL 9
REMARK VINA RESULT:      -6.6      5.198      7.327
REMARK  4 active torsions:
REMARK  status: ('A' for Active; 'I' for Inactive)
REMARK    1  A    between atoms: O1_2  and  C2_3 
REMARK    2  A    between atoms: N1_7  and  C6_8 
REMARK    3  A    between atoms: C7_9  and  C8_10 
REMARK    4  A    between atoms: C9_11  and  N2_12 
ROOT
HETATM    1  C2  UNL     1      18.081   2.157  51.393  1.00  0.00     0.068 C 
HETATM    2  C3  UNL     1      18.981   3.150  51.541  1.00  0.00     0.038 C 
HETATM    3  C4  UNL     1      20.332   3.520  51.961  1.00  0.00     0.022 C 
HETATM    4  C5  UNL     1      21.371   2.840  52.485  1.00  0.00     0.118 C 
HETATM    5  N1  UNL     1      21.819   1.539  52.922  1.00  0.00    -0.257 N 
HETATM    6  N3  UNL     1      21.426   0.611  53.936  1.00  0.00    -0.185 NA
HETATM    7  C14 UNL     1      20.547  -0.286  53.606  1.00  0.00     0.116 C 
HETATM    8  C15 UNL     1      20.209  -0.061  52.222  1.00  0.00     0.075 C 
HETATM    9  C16 UNL     1      18.787  -0.382  51.938  1.00  0.00    -0.019 C 
HETATM   10  C17 UNL     1      18.104   0.727  51.605  1.00  0.00     0.033 C 
ENDROOT
BRANCH   5  11
HETATM   11  C6  UNL     1      22.903   0.851  52.333  1.00  0.00     0.118 C 
HETATM   12  C7  UNL     1      24.034   1.487  52.216  1.00  0.00     0.021 C 
BRANCH  12  13
HETATM   13  C8  UNL     1      25.398   1.360  51.749  1.00  0.00     0.018 C 
HETATM   14  C9  UNL     1      26.571   0.812  51.968  1.00  0.00     0.085 C 
BRANCH  14  15
HETATM   15  N2  UNL     1      27.128  -0.060  52.929  1.00  0.00    -0.386 N 
HETATM   16  C10 UNL     1      27.684  -1.400  52.811  1.00  0.00     0.148 C 
HETATM   17  C11 UNL     1      29.026  -1.440  53.474  1.00  0.00     0.187 C 
HETATM   18  O2  UNL     1      29.530  -0.222  53.859  1.00  0.00    -0.388 OA
HETATM   19  C12 UNL     1      28.682   0.496  54.679  1.00  0.00     0.187 C 
HETATM   20  C13 UNL     1      27.234   0.319  54.328  1.00  0.00     0.148 C 
ENDBRANCH  14  15
ENDBRANCH  12  13
ENDBRANCH   5  11
BRANCH   1  21
HETATM   21  O1  UNL     1      16.806   2.535  50.895  1.00  0.00    -0.356 OA
HETATM   22  C1  UNL     1      15.658   2.081  51.554  1.00  0.00     0.210 C 
ENDBRANCH   1  21
TORSDOF 4
ENDMDL
