MODEL 1
REMARK VINA RESULT:      -8.5      0.000      0.000
REMARK  4 active torsions:
REMARK  status: ('A' for Active; 'I' for Inactive)
REMARK    1  A    between atoms: C2_2  and  C3_3 
REMARK       I    between atoms: C3_3  and  N1_5 
REMARK    2  A    between atoms: N1_5  and  C4_6 
REMARK    3  A    between atoms: C7_10  and  N3_11 
REMARK    4  A    between atoms: C7_10  and  C8_12 
ROOT
HETATM    1  C4  UNL     1      21.748   0.880  51.278  1.00  0.00     0.175 C 
HETATM    2  N2  UNL     1      22.677   1.512  51.704  1.00  0.00    -0.425 NA
HETATM    3  C5  UNL     1      23.600   2.061  52.523  1.00  0.00     0.279 C 
HETATM    4  C6  UNL     1      24.881   2.622  51.825  1.00  0.00     0.057 C 
HETATM    5  C7  UNL     1      26.136   2.918  51.400  1.00  0.00     0.041 C 
HETATM    6  N4  UNL     1      24.282   3.430  50.868  1.00  0.00    -0.389 N 
HETATM    7  C14 UNL     1      23.808   4.148  49.701  1.00  0.00     0.129 C 
HETATM    8  C15 UNL     1      23.143   3.087  48.803  1.00  0.00     0.035 C 
HETATM    9  C16 UNL     1      22.658   2.284  47.899  1.00  0.00    -0.020 C 
HETATM   10  C17 UNL     1      21.886   1.205  48.609  1.00  0.00     0.001 C 
HETATM   11  C18 UNL     1      21.639   0.819  49.839  1.00  0.00     0.063 C 
HETATM   12  H13 UNL     1      23.721   4.085  51.508  1.00  0.00     0.159 HD
ENDROOT
BRANCH   5  13
HETATM   13  N3  UNL     1      26.777   3.821  50.417  1.00  0.00    -0.300 NA
HETATM   14  H7  UNL     1      27.460   4.066  51.199  1.00  0.00     0.124 HD
HETATM   15  H8  UNL     1      25.952   3.349  49.927  1.00  0.00     0.124 HD
ENDBRANCH   5  13
BRANCH   5  16
HETATM   16  C8  UNL     1      26.991   2.017  52.217  1.00  0.00    -0.012 A 
HETATM   17  C9  UNL     1      27.985   2.231  53.145  1.00  0.00     0.013 A 
HETATM   18  C10 UNL     1      28.531   1.080  53.719  1.00  0.00     0.002 A 
HETATM   19  C11 UNL     1      28.175  -0.197  53.451  1.00  0.00     0.019 A 
HETATM   20  C12 UNL     1      27.179  -0.429  52.521  1.00  0.00     0.011 A 
HETATM   21 BR1  UNL     1      26.694  -2.217  52.159  1.00  0.00    -0.051 Br
HETATM   22  C13 UNL     1      26.608   0.690  51.923  1.00  0.00     0.032 A 
ENDBRANCH   5  16
BRANCH   1  23
HETATM   23  N1  UNL     1      20.921   0.079  52.106  1.00  0.00    -0.302 N 
HETATM   24  C3  UNL     1      19.567   0.244  52.431  1.00  0.00     0.224 C 
HETATM   25  O1  UNL     1      19.123   1.248  51.859  1.00  0.00    -0.273 OA
HETATM   26  H4  UNL     1      21.435  -0.766  52.524  1.00  0.00     0.171 HD
BRANCH  24  27
HETATM   27  C2  UNL     1      18.930  -0.749  53.348  1.00  0.00     0.062 C 
HETATM   28  C1  UNL     1      18.005  -1.659  53.337  1.00  0.00     0.051 C 
ENDBRANCH  24  27
ENDBRANCH   1  23
TORSDOF 4
ENDMDL
MODEL 2
REMARK VINA RESULT:      -8.3      1.320      1.628
REMARK  4 active torsions:
REMARK  status: ('A' for Active; 'I' for Inactive)
REMARK    1  A    between atoms: C2_2  and  C3_3 
REMARK       I    between atoms: C3_3  and  N1_5 
REMARK    2  A    between atoms: N1_5  and  C4_6 
REMARK    3  A    between atoms: C7_10  and  N3_11 
REMARK    4  A    between atoms: C7_10  and  C8_12 
ROOT
HETATM    1  C4  UNL     1      21.540   0.738  51.121  1.00  0.00     0.175 C 
HETATM    2  N2  UNL     1      22.514   1.239  51.615  1.00  0.00    -0.425 NA
HETATM    3  C5  UNL     1      23.474   1.612  52.490  1.00  0.00     0.279 C 
HETATM    4  C6  UNL     1      24.801   2.144  51.858  1.00  0.00     0.057 C 
HETATM    5  C7  UNL     1      26.078   2.385  51.467  1.00  0.00     0.041 C 
HETATM    6  N4  UNL     1      24.275   3.104  51.004  1.00  0.00    -0.389 N 
HETATM    7  C14 UNL     1      23.868   3.990  49.931  1.00  0.00     0.129 C 
HETATM    8  C15 UNL     1      23.125   3.099  48.917  1.00  0.00     0.035 C 
HETATM    9  C16 UNL     1      22.583   2.449  47.927  1.00  0.00    -0.020 C 
HETATM   10  C17 UNL     1      21.721   1.361  48.508  1.00  0.00     0.001 C 
HETATM   11  C18 UNL     1      21.435   0.855  49.685  1.00  0.00     0.063 C 
HETATM   12  H13 UNL     1      23.765   3.724  51.719  1.00  0.00     0.159 HD
ENDROOT
BRANCH   5  13
HETATM   13  N3  UNL     1      26.797   3.342  50.594  1.00  0.00    -0.300 NA
HETATM   14  H7  UNL     1      26.955   2.513  49.942  1.00  0.00     0.124 HD
HETATM   15  H8  UNL     1      26.455   3.884  51.452  1.00  0.00     0.124 HD
ENDBRANCH   5  13
BRANCH   5  16
HETATM   16  C8  UNL     1      26.852   1.329  52.170  1.00  0.00    -0.012 A 
HETATM   17  C9  UNL     1      26.819  -0.048  52.151  1.00  0.00     0.013 A 
HETATM   18  C10 UNL     1      27.763  -0.684  52.962  1.00  0.00     0.002 A 
HETATM   19  C11 UNL     1      28.686  -0.080  53.744  1.00  0.00     0.019 A 
HETATM   20  C12 UNL     1      28.732   1.301  53.774  1.00  0.00     0.011 A 
HETATM   21 BR1  UNL     1      30.028   2.128  54.870  1.00  0.00    -0.051 Br
HETATM   22  C13 UNL     1      27.809   1.976  52.983  1.00  0.00     0.032 A 
ENDBRANCH   5  16
BRANCH   1  23
HETATM   23  N1  UNL     1      20.645  -0.084  51.853  1.00  0.00    -0.302 N 
HETATM   24  C3  UNL     1      19.367   0.217  52.344  1.00  0.00     0.224 C 
HETATM   25  O1  UNL     1      19.067   1.377  52.036  1.00  0.00    -0.273 OA
HETATM   26  H4  UNL     1      21.031  -1.068  52.036  1.00  0.00     0.171 HD
BRANCH  24  27
HETATM   27  C2  UNL     1      18.632  -0.840  53.103  1.00  0.00     0.062 C 
HETATM   28  C1  UNL     1      17.486  -1.450  53.098  1.00  0.00     0.051 C 
ENDBRANCH  24  27
ENDBRANCH   1  23
TORSDOF 4
ENDMDL
MODEL 3
REMARK VINA RESULT:      -8.3      3.091      7.370
REMARK  4 active torsions:
REMARK  status: ('A' for Active; 'I' for Inactive)
REMARK    1  A    between atoms: C2_2  and  C3_3 
REMARK       I    between atoms: C3_3  and  N1_5 
REMARK    2  A    between atoms: N1_5  and  C4_6 
REMARK    3  A    between atoms: C7_10  and  N3_11 
REMARK    4  A    between atoms: C7_10  and  C8_12 
ROOT
HETATM    1  C4  UNL     1      25.787   2.256  51.645  1.00  0.00     0.175 C 
HETATM    2  N2  UNL     1      24.698   2.066  52.117  1.00  0.00    -0.425 NA
HETATM    3  C5  UNL     1      23.417   2.221  52.516  1.00  0.00     0.279 C 
HETATM    4  C6  UNL     1      22.639   0.903  52.833  1.00  0.00     0.057 C 
HETATM    5  C7  UNL     1      21.774  -0.141  52.901  1.00  0.00     0.041 C 
HETATM    6  N4  UNL     1      23.539   0.315  53.712  1.00  0.00    -0.389 N 
HETATM    7  C14 UNL     1      24.458  -0.506  54.477  1.00  0.00     0.129 C 
HETATM    8  C15 UNL     1      25.634  -0.807  53.527  1.00  0.00     0.035 C 
HETATM    9  C16 UNL     1      26.627  -1.233  52.801  1.00  0.00    -0.020 C 
HETATM   10  C17 UNL     1      27.043  -0.113  51.886  1.00  0.00     0.001 C 
HETATM   11  C18 UNL     1      26.650   1.099  51.574  1.00  0.00     0.063 C 
HETATM   12  H13 UNL     1      23.581   1.078  54.468  1.00  0.00     0.159 HD
ENDROOT
BRANCH   5  13
HETATM   13  N3  UNL     1      21.637  -1.406  53.659  1.00  0.00    -0.300 NA
HETATM   14  H7  UNL     1      21.475  -1.869  52.712  1.00  0.00     0.124 HD
HETATM   15  H8  UNL     1      21.827  -0.626  54.367  1.00  0.00     0.124 HD
ENDBRANCH   5  13
BRANCH   5  16
HETATM   16  C8  UNL     1      20.747   0.205  51.884  1.00  0.00    -0.012 A 
HETATM   17  C9  UNL     1      20.802   0.761  50.626  1.00  0.00     0.013 A 
HETATM   18  C10 UNL     1      19.575   0.895  49.972  1.00  0.00     0.002 A 
HETATM   19  C11 UNL     1      18.365   0.531  50.454  1.00  0.00     0.019 A 
HETATM   20  C12 UNL     1      18.292  -0.029  51.716  1.00  0.00     0.011 A 
HETATM   21 BR1  UNL     1      16.595  -0.532  52.373  1.00  0.00    -0.051 Br
HETATM   22  C13 UNL     1      19.491  -0.180  52.403  1.00  0.00     0.032 A 
ENDBRANCH   5  16
BRANCH   1  23
HETATM   23  N1  UNL     1      26.148   3.475  51.016  1.00  0.00    -0.302 N 
HETATM   24  C3  UNL     1      25.704   4.007  49.798  1.00  0.00     0.224 C 
HETATM   25  O1  UNL     1      24.882   3.239  49.284  1.00  0.00    -0.273 OA
HETATM   26  H4  UNL     1      26.858   4.047  51.582  1.00  0.00     0.171 HD
BRANCH  24  27
HETATM   27  C2  UNL     1      26.258   5.322  49.354  1.00  0.00     0.062 C 
HETATM   28  C1  UNL     1      27.194   5.799  48.591  1.00  0.00     0.051 C 
ENDBRANCH  24  27
ENDBRANCH   1  23
TORSDOF 4
ENDMDL
MODEL 4
REMARK VINA RESULT:      -7.6      3.024      5.895
REMARK  4 active torsions:
REMARK  status: ('A' for Active; 'I' for Inactive)
REMARK    1  A    between atoms: C2_2  and  C3_3 
REMARK       I    between atoms: C3_3  and  N1_5 
REMARK    2  A    between atoms: N1_5  and  C4_6 
REMARK    3  A    between atoms: C7_10  and  N3_11 
REMARK    4  A    between atoms: C7_10  and  C8_12 
ROOT
HETATM    1  C4  UNL     1      23.896   5.197  51.064  1.00  0.00     0.175 C 
HETATM    2  N2  UNL     1      23.862   4.350  51.916  1.00  0.00    -0.425 NA
HETATM    3  C5  UNL     1      23.537   3.632  53.013  1.00  0.00     0.279 C 
HETATM    4  C6  UNL     1      23.998   2.138  53.010  1.00  0.00     0.057 C 
HETATM    5  C7  UNL     1      24.106   0.786  53.044  1.00  0.00     0.041 C 
HETATM    6  N4  UNL     1      25.341   2.316  52.709  1.00  0.00    -0.389 N 
HETATM    7  C14 UNL     1      26.702   2.329  52.209  1.00  0.00     0.129 C 
HETATM    8  C15 UNL     1      26.607   2.851  50.762  1.00  0.00     0.035 C 
HETATM    9  C16 UNL     1      26.660   3.166  49.500  1.00  0.00    -0.020 C 
HETATM   10  C17 UNL     1      25.651   4.254  49.253  1.00  0.00     0.001 C 
HETATM   11  C18 UNL     1      24.716   4.896  49.913  1.00  0.00     0.063 C 
HETATM   12  H13 UNL     1      25.632   2.939  53.536  1.00  0.00     0.159 HD
ENDROOT
BRANCH   5  13
HETATM   13  N3  UNL     1      25.178  -0.233  52.953  1.00  0.00    -0.300 NA
HETATM   14  H7  UNL     1      24.472  -0.906  53.384  1.00  0.00     0.124 HD
HETATM   15  H8  UNL     1      25.571   0.683  52.564  1.00  0.00     0.124 HD
ENDBRANCH   5  13
BRANCH   5  16
HETATM   16  C8  UNL     1      22.699   0.338  53.214  1.00  0.00    -0.012 A 
HETATM   17  C9  UNL     1      22.017  -0.296  54.228  1.00  0.00     0.013 A 
HETATM   18  C10 UNL     1      20.657  -0.515  53.994  1.00  0.00     0.002 A 
HETATM   19  C11 UNL     1      19.966  -0.165  52.885  1.00  0.00     0.019 A 
HETATM   20  C12 UNL     1      20.636   0.472  51.857  1.00  0.00     0.011 A 
HETATM   21 BR1  UNL     1      19.658   0.955  50.318  1.00  0.00    -0.051 Br
HETATM   22  C13 UNL     1      21.993   0.710  52.048  1.00  0.00     0.032 A 
ENDBRANCH   5  16
BRANCH   1  23
HETATM   23  N1  UNL     1      23.046   6.332  51.077  1.00  0.00    -0.302 N 
HETATM   24  C3  UNL     1      21.746   6.470  50.571  1.00  0.00     0.224 C 
HETATM   25  O1  UNL     1      21.379   5.399  50.073  1.00  0.00    -0.273 OA
HETATM   26  H4  UNL     1      23.490   7.186  51.553  1.00  0.00     0.171 HD
BRANCH  24  27
HETATM   27  C2  UNL     1      21.068   7.795  50.707  1.00  0.00     0.062 C 
HETATM   28  C1  UNL     1      20.376   8.633  49.998  1.00  0.00     0.051 C 
ENDBRANCH  24  27
ENDBRANCH   1  23
TORSDOF 4
ENDMDL
MODEL 5
REMARK VINA RESULT:      -7.5      9.299     12.494
REMARK  4 active torsions:
REMARK  status: ('A' for Active; 'I' for Inactive)
REMARK    1  A    between atoms: C2_2  and  C3_3 
REMARK       I    between atoms: C3_3  and  N1_5 
REMARK    2  A    between atoms: N1_5  and  C4_6 
REMARK    3  A    between atoms: C7_10  and  N3_11 
REMARK    4  A    between atoms: C7_10  and  C8_12 
ROOT
HETATM    1  C4  UNL     1      33.254   4.678  45.112  1.00  0.00     0.175 C 
HETATM    2  N2  UNL     1      32.679   5.573  45.671  1.00  0.00    -0.425 NA
HETATM    3  C5  UNL     1      31.856   6.609  45.946  1.00  0.00     0.279 C 
HETATM    4  C6  UNL     1      31.605   6.894  47.462  1.00  0.00     0.057 C 
HETATM    5  C7  UNL     1      31.100   7.102  48.704  1.00  0.00     0.041 C 
HETATM    6  N4  UNL     1      32.920   6.959  47.901  1.00  0.00    -0.389 N 
HETATM    7  C14 UNL     1      34.219   6.855  48.538  1.00  0.00     0.129 C 
HETATM    8  C15 UNL     1      34.660   5.391  48.346  1.00  0.00     0.035 C 
HETATM    9  C16 UNL     1      35.102   4.166  48.358  1.00  0.00    -0.020 C 
HETATM   10  C17 UNL     1      34.745   3.535  47.039  1.00  0.00     0.001 C 
HETATM   11  C18 UNL     1      34.074   3.838  45.954  1.00  0.00     0.063 C 
HETATM   12  H13 UNL     1      33.280   7.761  47.283  1.00  0.00     0.159 HD
ENDROOT
BRANCH   5  13
HETATM   13  N3  UNL     1      31.610   7.421  50.058  1.00  0.00    -0.300 NA
HETATM   14  H7  UNL     1      31.422   8.440  49.807  1.00  0.00     0.124 HD
HETATM   15  H8  UNL     1      31.657   6.358  49.939  1.00  0.00     0.124 HD
ENDBRANCH   5  13
BRANCH   5  16
HETATM   16  C8  UNL     1      29.637   6.924  48.509  1.00  0.00    -0.012 A 
HETATM   17  C9  UNL     1      28.832   5.828  48.293  1.00  0.00     0.013 A 
HETATM   18  C10 UNL     1      27.465   6.096  48.189  1.00  0.00     0.002 A 
HETATM   19  C11 UNL     1      26.876   7.310  48.282  1.00  0.00     0.019 A 
HETATM   20  C12 UNL     1      27.670   8.421  48.498  1.00  0.00     0.011 A 
HETATM   21 BR1  UNL     1      26.832  10.107  48.627  1.00  0.00    -0.051 Br
HETATM   22  C13 UNL     1      29.039   8.199  48.607  1.00  0.00     0.032 A 
ENDBRANCH   5  16
BRANCH   1  23
HETATM   23  N1  UNL     1      33.005   4.333  43.759  1.00  0.00    -0.302 N 
HETATM   24  C3  UNL     1      33.708   4.709  42.605  1.00  0.00     0.224 C 
HETATM   25  O1  UNL     1      34.663   5.431  42.918  1.00  0.00    -0.273 OA
HETATM   26  H4  UNL     1      32.154   3.690  43.637  1.00  0.00     0.171 HD
BRANCH  24  27
HETATM   27  C2  UNL     1      33.222   4.209  41.284  1.00  0.00     0.062 C 
HETATM   28  C1  UNL     1      33.409   3.218  40.467  1.00  0.00     0.051 C 
ENDBRANCH  24  27
ENDBRANCH   1  23
TORSDOF 4
ENDMDL
MODEL 6
REMARK VINA RESULT:      -7.5      3.879      8.069
REMARK  4 active torsions:
REMARK  status: ('A' for Active; 'I' for Inactive)
REMARK    1  A    between atoms: C2_2  and  C3_3 
REMARK       I    between atoms: C3_3  and  N1_5 
REMARK    2  A    between atoms: N1_5  and  C4_6 
REMARK    3  A    between atoms: C7_10  and  N3_11 
REMARK    4  A    between atoms: C7_10  and  C8_12 
ROOT
HETATM    1  C4  UNL     1      22.852   2.539  52.145  1.00  0.00     0.175 C 
HETATM    2  N2  UNL     1      21.771   2.164  52.516  1.00  0.00    -0.425 NA
HETATM    3  C5  UNL     1      20.449   2.091  52.782  1.00  0.00     0.279 C 
HETATM    4  C6  UNL     1      19.890   0.660  53.069  1.00  0.00     0.057 C 
HETATM    5  C7  UNL     1      19.223  -0.522  53.089  1.00  0.00     0.041 C 
HETATM    6  N4  UNL     1      20.786   0.261  54.052  1.00  0.00    -0.389 N 
HETATM    7  C14 UNL     1      21.753  -0.366  54.932  1.00  0.00     0.129 C 
HETATM    8  C15 UNL     1      23.055  -0.466  54.113  1.00  0.00     0.035 C 
HETATM    9  C16 UNL     1      24.177  -0.718  53.504  1.00  0.00    -0.020 C 
HETATM   10  C17 UNL     1      24.478   0.442  52.593  1.00  0.00     0.001 C 
HETATM   11  C18 UNL     1      23.909   1.557  52.201  1.00  0.00     0.063 C 
HETATM   12  H13 UNL     1      20.613   1.032  54.780  1.00  0.00     0.159 HD
ENDROOT
BRANCH   5  13
HETATM   13  N3  UNL     1      19.237  -1.777  53.876  1.00  0.00    -0.300 NA
HETATM   14  H7  UNL     1      20.018  -1.325  54.444  1.00  0.00     0.124 HD
HETATM   15  H8  UNL     1      18.484  -1.879  53.122  1.00  0.00     0.124 HD
ENDBRANCH   5  13
BRANCH   5  16
HETATM   16  C8  UNL     1      18.261  -0.387  51.964  1.00  0.00    -0.012 A 
HETATM   17  C9  UNL     1      18.334   0.180  50.712  1.00  0.00     0.013 A 
HETATM   18  C10 UNL     1      17.182   0.063  49.930  1.00  0.00     0.002 A 
HETATM   19  C11 UNL     1      16.028  -0.546  50.287  1.00  0.00     0.019 A 
HETATM   20  C12 UNL     1      15.938  -1.120  51.541  1.00  0.00     0.011 A 
HETATM   21 BR1  UNL     1      14.322  -1.967  52.022  1.00  0.00    -0.051 Br
HETATM   22  C13 UNL     1      17.063  -1.026  52.354  1.00  0.00     0.032 A 
ENDBRANCH   5  16
BRANCH   1  23
HETATM   23  N1  UNL     1      23.051   3.792  51.511  1.00  0.00    -0.302 N 
HETATM   24  C3  UNL     1      23.431   5.019  52.073  1.00  0.00     0.224 C 
HETATM   25  O1  UNL     1      23.599   4.882  53.291  1.00  0.00    -0.273 OA
HETATM   26  H4  UNL     1      22.884   3.759  50.451  1.00  0.00     0.171 HD
BRANCH  24  27
HETATM   27  C2  UNL     1      23.561   6.203  51.172  1.00  0.00     0.062 C 
HETATM   28  C1  UNL     1      24.466   6.842  50.496  1.00  0.00     0.051 C 
ENDBRANCH  24  27
ENDBRANCH   1  23
TORSDOF 4
ENDMDL
MODEL 7
REMARK VINA RESULT:      -7.4      3.245      5.955
REMARK  4 active torsions:
REMARK  status: ('A' for Active; 'I' for Inactive)
REMARK    1  A    between atoms: C2_2  and  C3_3 
REMARK       I    between atoms: C3_3  and  N1_5 
REMARK    2  A    between atoms: N1_5  and  C4_6 
REMARK    3  A    between atoms: C7_10  and  N3_11 
REMARK    4  A    between atoms: C7_10  and  C8_12 
ROOT
HETATM    1  C4  UNL     1      24.113   1.519  52.985  1.00  0.00     0.175 C 
HETATM    2  N2  UNL     1      23.848   2.691  52.952  1.00  0.00    -0.425 NA
HETATM    3  C5  UNL     1      23.890   4.032  53.116  1.00  0.00     0.279 C 
HETATM    4  C6  UNL     1      22.984   4.864  52.152  1.00  0.00     0.057 C 
HETATM    5  C7  UNL     1      22.455   5.719  51.240  1.00  0.00     0.041 C 
HETATM    6  N4  UNL     1      21.777   4.210  52.356  1.00  0.00    -0.389 N 
HETATM    7  C14 UNL     1      20.508   3.509  52.311  1.00  0.00     0.129 C 
HETATM    8  C15 UNL     1      20.815   2.135  51.685  1.00  0.00     0.035 C 
HETATM    9  C16 UNL     1      20.910   0.993  51.067  1.00  0.00    -0.020 C 
HETATM   10  C17 UNL     1      22.219   0.363  51.461  1.00  0.00     0.001 C 
HETATM   11  C18 UNL     1      23.283   0.666  52.166  1.00  0.00     0.063 C 
HETATM   12  H13 UNL     1      21.666   4.357  53.415  1.00  0.00     0.159 HD
ENDROOT
BRANCH   5  13
HETATM   13  N3  UNL     1      21.122   6.040  50.681  1.00  0.00    -0.300 NA
HETATM   14  H7  UNL     1      20.755   5.898  51.672  1.00  0.00     0.124 HD
HETATM   15  H8  UNL     1      21.827   6.090  49.878  1.00  0.00     0.124 HD
ENDBRANCH   5  13
BRANCH   5  16
HETATM   16  C8  UNL     1      23.643   6.462  50.744  1.00  0.00    -0.012 A 
HETATM   17  C9  UNL     1      23.993   7.793  50.723  1.00  0.00     0.013 A 
HETATM   18  C10 UNL     1      25.247   8.078  50.178  1.00  0.00     0.002 A 
HETATM   19  C11 UNL     1      26.130   7.180  49.684  1.00  0.00     0.019 A 
HETATM   20  C12 UNL     1      25.794   5.839  49.698  1.00  0.00     0.011 A 
HETATM   21 BR1  UNL     1      27.038   4.600  49.005  1.00  0.00    -0.051 Br
HETATM   22  C13 UNL     1      24.553   5.511  50.231  1.00  0.00     0.032 A 
ENDBRANCH   5  16
BRANCH   1  23
HETATM   23  N1  UNL     1      25.276   1.014  53.620  1.00  0.00    -0.302 N 
HETATM   24  C3  UNL     1      26.561   0.824  53.093  1.00  0.00     0.224 C 
HETATM   25  O1  UNL     1      26.581   1.185  51.910  1.00  0.00    -0.273 OA
HETATM   26  H4  UNL     1      25.115   0.755  54.649  1.00  0.00     0.171 HD
BRANCH  24  27
HETATM   27  C2  UNL     1      27.618   0.258  53.985  1.00  0.00     0.062 C 
HETATM   28  C1  UNL     1      28.887  -0.012  53.974  1.00  0.00     0.051 C 
ENDBRANCH  24  27
ENDBRANCH   1  23
TORSDOF 4
ENDMDL
MODEL 8
REMARK VINA RESULT:      -7.3      3.395      7.089
REMARK  4 active torsions:
REMARK  status: ('A' for Active; 'I' for Inactive)
REMARK    1  A    between atoms: C2_2  and  C3_3 
REMARK       I    between atoms: C3_3  and  N1_5 
REMARK    2  A    between atoms: N1_5  and  C4_6 
REMARK    3  A    between atoms: C7_10  and  N3_11 
REMARK    4  A    between atoms: C7_10  and  C8_12 
ROOT
HETATM    1  C4  UNL     1      24.010   1.709  51.880  1.00  0.00     0.175 C 
HETATM    2  N2  UNL     1      22.934   1.339  51.494  1.00  0.00    -0.425 NA
HETATM    3  C5  UNL     1      21.921   0.584  51.014  1.00  0.00     0.279 C 
HETATM    4  C6  UNL     1      20.481   1.131  51.276  1.00  0.00     0.057 C 
HETATM    5  C7  UNL     1      19.190   1.342  51.639  1.00  0.00     0.041 C 
HETATM    6  N4  UNL     1      20.636   2.420  50.784  1.00  0.00    -0.389 N 
HETATM    7  C14 UNL     1      20.700   3.840  50.497  1.00  0.00     0.129 C 
HETATM    8  C15 UNL     1      21.680   4.428  51.531  1.00  0.00     0.035 C 
HETATM    9  C16 UNL     1      22.391   5.072  52.411  1.00  0.00    -0.020 C 
HETATM   10  C17 UNL     1      23.581   4.216  52.758  1.00  0.00     0.001 C 
HETATM   11  C18 UNL     1      24.042   3.018  52.488  1.00  0.00     0.063 C 
HETATM   12  H13 UNL     1      20.921   2.196  49.772  1.00  0.00     0.159 HD
ENDROOT
BRANCH   5  13
HETATM   13  N3  UNL     1      18.174   2.413  51.508  1.00  0.00    -0.300 NA
HETATM   14  H7  UNL     1      18.710   2.912  52.284  1.00  0.00     0.124 HD
HETATM   15  H8  UNL     1      17.929   1.649  50.799  1.00  0.00     0.124 HD
ENDBRANCH   5  13
BRANCH   5  16
HETATM   16  C8  UNL     1      18.831   0.091  52.356  1.00  0.00    -0.012 A 
HETATM   17  C9  UNL     1      19.472  -0.685  53.295  1.00  0.00     0.013 A 
HETATM   18  C10 UNL     1      18.756  -1.796  53.748  1.00  0.00     0.002 A 
HETATM   19  C11 UNL     1      17.516  -2.167  53.355  1.00  0.00     0.019 A 
HETATM   20  C12 UNL     1      16.859  -1.399  52.412  1.00  0.00     0.011 A 
HETATM   21 BR1  UNL     1      15.129  -1.929  51.875  1.00  0.00    -0.051 Br
HETATM   22  C13 UNL     1      17.536  -0.282  51.933  1.00  0.00     0.032 A 
ENDBRANCH   5  16
BRANCH   1  23
HETATM   23  N1  UNL     1      25.143   0.856  51.923  1.00  0.00    -0.302 N 
HETATM   24  C3  UNL     1      25.450  -0.163  52.835  1.00  0.00     0.224 C 
HETATM   25  O1  UNL     1      24.542  -0.258  53.671  1.00  0.00    -0.273 OA
HETATM   26  H4  UNL     1      25.841   1.042  51.129  1.00  0.00     0.171 HD
BRANCH  24  27
HETATM   27  C2  UNL     1      26.731  -0.912  52.659  1.00  0.00     0.062 C 
HETATM   28  C1  UNL     1      27.167  -2.133  52.598  1.00  0.00     0.051 C 
ENDBRANCH  24  27
ENDBRANCH   1  23
TORSDOF 4
ENDMDL
MODEL 9
REMARK VINA RESULT:      -7.2      9.767     13.040
REMARK  4 active torsions:
REMARK  status: ('A' for Active; 'I' for Inactive)
REMARK    1  A    between atoms: C2_2  and  C3_3 
REMARK       I    between atoms: C3_3  and  N1_5 
REMARK    2  A    between atoms: N1_5  and  C4_6 
REMARK    3  A    between atoms: C7_10  and  N3_11 
REMARK    4  A    between atoms: C7_10  and  C8_12 
ROOT
HETATM    1  C4  UNL     1      33.749   5.929  44.687  1.00  0.00     0.175 C 
HETATM    2  N2  UNL     1      33.212   6.429  45.640  1.00  0.00    -0.425 NA
HETATM    3  C5  UNL     1      32.487   7.246  46.434  1.00  0.00     0.279 C 
HETATM    4  C6  UNL     1      32.072   6.655  47.820  1.00  0.00     0.057 C 
HETATM    5  C7  UNL     1      31.434   6.202  48.929  1.00  0.00     0.041 C 
HETATM    6  N4  UNL     1      33.316   6.231  48.267  1.00  0.00    -0.389 N 
HETATM    7  C14 UNL     1      34.498   5.563  48.776  1.00  0.00     0.129 C 
HETATM    8  C15 UNL     1      34.787   4.420  47.783  1.00  0.00     0.035 C 
HETATM    9  C16 UNL     1      35.077   3.352  47.097  1.00  0.00    -0.020 C 
HETATM   10  C17 UNL     1      34.828   3.657  45.644  1.00  0.00     0.001 C 
HETATM   11  C18 UNL     1      34.346   4.634  44.913  1.00  0.00     0.063 C 
HETATM   12  H13 UNL     1      33.845   7.167  48.248  1.00  0.00     0.159 HD
ENDROOT
BRANCH   5  13
HETATM   13  N3  UNL     1      31.794   5.599  50.234  1.00  0.00    -0.300 NA
HETATM   14  H7  UNL     1      30.744   5.510  50.398  1.00  0.00     0.124 HD
HETATM   15  H8  UNL     1      32.706   5.845  49.731  1.00  0.00     0.124 HD
ENDBRANCH   5  13
BRANCH   5  16
HETATM   16  C8  UNL     1      29.999   6.421  48.608  1.00  0.00    -0.012 A 
HETATM   17  C9  UNL     1      28.962   5.584  48.263  1.00  0.00     0.013 A 
HETATM   18  C10 UNL     1      27.726   6.205  48.067  1.00  0.00     0.002 A 
HETATM   19  C11 UNL     1      27.464   7.526  48.186  1.00  0.00     0.019 A 
HETATM   20  C12 UNL     1      28.495   8.381  48.531  1.00  0.00     0.011 A 
HETATM   21 BR1  UNL     1      28.112  10.222  48.694  1.00  0.00    -0.051 Br
HETATM   22  C13 UNL     1      29.744   7.804  48.735  1.00  0.00     0.032 A 
ENDBRANCH   5  16
BRANCH   1  23
HETATM   23  N1  UNL     1      33.642   6.465  43.379  1.00  0.00    -0.302 N 
HETATM   24  C3  UNL     1      34.269   7.593  42.830  1.00  0.00     0.224 C 
HETATM   25  O1  UNL     1      35.000   8.116  43.681  1.00  0.00    -0.273 OA
HETATM   26  H4  UNL     1      32.985   5.902  42.744  1.00  0.00     0.171 HD
BRANCH  24  27
HETATM   27  C2  UNL     1      33.971   7.951  41.410  1.00  0.00     0.062 C 
HETATM   28  C1  UNL     1      33.604   7.387  40.301  1.00  0.00     0.051 C 
ENDBRANCH  24  27
ENDBRANCH   1  23
TORSDOF 4
ENDMDL
