MODEL 1
REMARK VINA RESULT:      -8.9      0.000      0.000
REMARK  7 active torsions:
REMARK  status: ('A' for Active; 'I' for Inactive)
REMARK    1  A    between atoms: O1_1  and  C1_2 
REMARK    2  A    between atoms: C1_2  and  C2_3 
REMARK    3  A    between atoms: C2_3  and  O2_4 
REMARK    4  A    between atoms: O2_4  and  C3_5 
REMARK    5  A    between atoms: C7_9  and  C8_10 
REMARK    6  A    between atoms: C8_10  and  C9_11 
REMARK    7  A    between atoms: N2_13  and  C10_14 
ROOT
HETATM    1  C9  UNL     1      26.067   3.196  50.095  1.00  0.00     0.059 C 
HETATM    2  N1  UNL     1      26.672   2.156  50.580  1.00  0.00    -0.176 NA
HETATM    3  N2  UNL     1      26.245   1.457  51.736  1.00  0.00    -0.266 N 
HETATM    4  C16 UNL     1      24.952   1.035  51.828  1.00  0.00     0.178 C 
HETATM    5  C17 UNL     1      24.104   0.530  52.837  1.00  0.00    -0.005 C 
HETATM    6  C18 UNL     1      23.017   1.313  53.132  1.00  0.00    -0.001 C 
HETATM    7  C19 UNL     1      22.911   2.552  52.359  1.00  0.00     0.023 C 
HETATM    8  C20 UNL     1      22.707   3.707  51.717  1.00  0.00     0.034 C 
HETATM    9 CL1  UNL     1      21.329   4.841  51.945  1.00  0.00    -0.084 Cl
HETATM   10  C21 UNL     1      23.679   4.244  50.759  1.00  0.00     0.026 C 
HETATM   11  C22 UNL     1      24.877   4.088  50.157  1.00  0.00     0.031 C 
ENDROOT
BRANCH   1  12
HETATM   12  C8  UNL     1      26.899   3.557  48.909  1.00  0.00     0.099 C 
BRANCH  12  13
HETATM   13  C7  UNL     1      27.239   4.953  48.763  1.00  0.00    -0.050 A 
HETATM   14  C6  UNL     1      26.393   6.063  48.834  1.00  0.00     0.007 A 
HETATM   15  C5  UNL     1      26.826   7.363  48.679  1.00  0.00     0.003 A 
HETATM   16  C4  UNL     1      28.185   7.567  48.438  1.00  0.00     0.037 A 
HETATM   17  C3  UNL     1      29.068   6.491  48.359  1.00  0.00     0.069 A 
HETATM   18  C23 UNL     1      28.558   5.223  48.525  1.00  0.00     0.044 A 
BRANCH  17  19
HETATM   19  O2  UNL     1      30.343   6.923  48.119  1.00  0.00    -0.349 OA
BRANCH  19  20
HETATM   20  C2  UNL     1      31.323   7.216  49.074  1.00  0.00     0.201 C 
BRANCH  20  21
HETATM   21  C1  UNL     1      32.085   5.953  49.492  1.00  0.00     0.190 C 
BRANCH  21  22
HETATM   22  O1  UNL     1      31.466   5.487  50.665  1.00  0.00    -0.399 OA
HETATM   23  H1  UNL     1      30.611   6.012  50.741  1.00  0.00     0.209 HD
ENDBRANCH  21  22
ENDBRANCH  20  21
ENDBRANCH  19  20
ENDBRANCH  17  19
ENDBRANCH  12  13
ENDBRANCH   1  12
BRANCH   3  24
HETATM   24  C10 UNL     1      27.309   1.325  52.663  1.00  0.00     0.053 A 
HETATM   25  C11 UNL     1      27.748   0.115  53.205  1.00  0.00     0.031 A 
HETATM   26  C12 UNL     1      28.758  -0.032  54.106  1.00  0.00     0.002 A 
HETATM   27  C13 UNL     1      29.435   1.065  54.552  1.00  0.00     0.000 A 
HETATM   28  C14 UNL     1      29.080   2.288  54.082  1.00  0.00     0.002 A 
HETATM   29  C15 UNL     1      28.060   2.387  53.179  1.00  0.00     0.031 A 
ENDBRANCH   3  24
TORSDOF 7
ENDMDL
MODEL 2
REMARK VINA RESULT:      -8.8      3.195      6.684
REMARK  7 active torsions:
REMARK  status: ('A' for Active; 'I' for Inactive)
REMARK    1  A    between atoms: O1_1  and  C1_2 
REMARK    2  A    between atoms: C1_2  and  C2_3 
REMARK    3  A    between atoms: C2_3  and  O2_4 
REMARK    4  A    between atoms: O2_4  and  C3_5 
REMARK    5  A    between atoms: C7_9  and  C8_10 
REMARK    6  A    between atoms: C8_10  and  C9_11 
REMARK    7  A    between atoms: N2_13  and  C10_14 
ROOT
HETATM    1  C9  UNL     1      22.910   5.585  51.475  1.00  0.00     0.059 C 
HETATM    2  N1  UNL     1      24.134   6.001  51.362  1.00  0.00    -0.176 NA
HETATM    3  N2  UNL     1      24.595   6.833  50.312  1.00  0.00    -0.266 N 
HETATM    4  C16 UNL     1      23.931   7.991  50.029  1.00  0.00     0.178 C 
HETATM    5  C17 UNL     1      23.921   8.942  48.987  1.00  0.00    -0.005 C 
HETATM    6  C18 UNL     1      22.736   9.047  48.305  1.00  0.00    -0.001 C 
HETATM    7  C19 UNL     1      21.670   8.153  48.760  1.00  0.00     0.023 C 
HETATM    8  C20 UNL     1      20.623   7.388  49.087  1.00  0.00     0.034 C 
HETATM    9 CL1  UNL     1      18.991   7.410  48.332  1.00  0.00    -0.084 Cl
HETATM   10  C21 UNL     1      20.720   6.332  50.101  1.00  0.00     0.026 C 
HETATM   11  C22 UNL     1      21.513   5.669  50.970  1.00  0.00     0.031 C 
ENDROOT
BRANCH   1  12
HETATM   12  C8  UNL     1      22.943   4.750  52.713  1.00  0.00     0.099 C 
BRANCH  12  13
HETATM   13  C7  UNL     1      23.605   3.471  52.608  1.00  0.00    -0.050 A 
HETATM   14  C6  UNL     1      23.321   2.419  51.733  1.00  0.00     0.007 A 
HETATM   15  C5  UNL     1      24.022   1.231  51.717  1.00  0.00     0.003 A 
HETATM   16  C4  UNL     1      25.068   1.084  52.629  1.00  0.00     0.037 A 
HETATM   17  C3  UNL     1      25.388   2.107  53.521  1.00  0.00     0.069 A 
HETATM   18  C23 UNL     1      24.641   3.263  53.475  1.00  0.00     0.044 A 
BRANCH  17  19
HETATM   19  O2  UNL     1      26.441   1.748  54.316  1.00  0.00    -0.349 OA
BRANCH  19  20
HETATM   20  C2  UNL     1      27.684   1.263  53.894  1.00  0.00     0.201 C 
BRANCH  20  21
HETATM   21  C1  UNL     1      28.657   2.410  53.601  1.00  0.00     0.190 C 
BRANCH  21  22
HETATM   22  O1  UNL     1      29.595   2.411  54.649  1.00  0.00    -0.399 OA
HETATM   23  H1  UNL     1      29.773   1.441  54.846  1.00  0.00     0.209 HD
ENDBRANCH  21  22
ENDBRANCH  20  21
ENDBRANCH  19  20
ENDBRANCH  17  19
ENDBRANCH  12  13
ENDBRANCH   1  12
BRANCH   3  24
HETATM   24  C10 UNL     1      25.735   6.268  49.689  1.00  0.00     0.053 A 
HETATM   25  C11 UNL     1      26.729   6.998  49.033  1.00  0.00     0.031 A 
HETATM   26  C12 UNL     1      27.824   6.474  48.417  1.00  0.00     0.002 A 
HETATM   27  C13 UNL     1      28.018   5.123  48.410  1.00  0.00     0.000 A 
HETATM   28  C14 UNL     1      27.104   4.329  49.023  1.00  0.00     0.002 A 
HETATM   29  C15 UNL     1      26.021   4.900  49.628  1.00  0.00     0.031 A 
ENDBRANCH   3  24
TORSDOF 7
ENDMDL
MODEL 3
REMARK VINA RESULT:      -8.8      3.853      6.592
REMARK  7 active torsions:
REMARK  status: ('A' for Active; 'I' for Inactive)
REMARK    1  A    between atoms: O1_1  and  C1_2 
REMARK    2  A    between atoms: C1_2  and  C2_3 
REMARK    3  A    between atoms: C2_3  and  O2_4 
REMARK    4  A    between atoms: O2_4  and  C3_5 
REMARK    5  A    between atoms: C7_9  and  C8_10 
REMARK    6  A    between atoms: C8_10  and  C9_11 
REMARK    7  A    between atoms: N2_13  and  C10_14 
ROOT
HETATM    1  C9  UNL     1      22.157   2.837  52.349  1.00  0.00     0.059 C 
HETATM    2  N1  UNL     1      20.908   2.536  52.533  1.00  0.00    -0.176 NA
HETATM    3  N2  UNL     1      20.444   1.233  52.838  1.00  0.00    -0.266 N 
HETATM    4  C16 UNL     1      21.001   0.544  53.874  1.00  0.00     0.178 C 
HETATM    5  C17 UNL     1      20.991  -0.784  54.350  1.00  0.00    -0.005 C 
HETATM    6  C18 UNL     1      22.206  -1.419  54.337  1.00  0.00    -0.001 C 
HETATM    7  C19 UNL     1      23.322  -0.622  53.825  1.00  0.00     0.023 C 
HETATM    8  C20 UNL     1      24.416   0.006  53.380  1.00  0.00     0.034 C 
HETATM    9 CL1  UNL     1      26.090  -0.652  53.319  1.00  0.00    -0.084 Cl
HETATM   10  C21 UNL     1      24.354   1.345  52.786  1.00  0.00     0.026 C 
HETATM   11  C22 UNL     1      23.572   2.379  52.409  1.00  0.00     0.031 C 
ENDROOT
BRANCH   1  12
HETATM   12  C8  UNL     1      22.118   4.299  52.050  1.00  0.00     0.099 C 
BRANCH  12  13
HETATM   13  C7  UNL     1      22.957   4.757  50.968  1.00  0.00    -0.050 A 
HETATM   14  C6  UNL     1      22.945   4.352  49.631  1.00  0.00     0.007 A 
HETATM   15  C5  UNL     1      23.797   4.859  48.672  1.00  0.00     0.003 A 
HETATM   16  C4  UNL     1      24.717   5.830  49.073  1.00  0.00     0.037 A 
HETATM   17  C3  UNL     1      24.766   6.266  50.396  1.00  0.00     0.069 A 
HETATM   18  C23 UNL     1      23.881   5.711  51.293  1.00  0.00     0.044 A 
BRANCH  17  19
HETATM   19  O2  UNL     1      25.736   7.215  50.560  1.00  0.00    -0.349 OA
BRANCH  19  20
HETATM   20  C2  UNL     1      25.774   8.486  49.975  1.00  0.00     0.201 C 
BRANCH  20  21
HETATM   21  C1  UNL     1      27.207   9.028  49.915  1.00  0.00     0.190 C 
BRANCH  21  22
HETATM   22  O1  UNL     1      27.531   9.434  51.222  1.00  0.00    -0.399 OA
HETATM   23  H1  UNL     1      28.412   8.994  51.426  1.00  0.00     0.209 HD
ENDBRANCH  21  22
ENDBRANCH  20  21
ENDBRANCH  19  20
ENDBRANCH  17  19
ENDBRANCH  12  13
ENDBRANCH   1  12
BRANCH   3  24
HETATM   24  C10 UNL     1      19.419   0.843  51.939  1.00  0.00     0.053 A 
HETATM   25  C11 UNL     1      19.238   1.373  50.659  1.00  0.00     0.031 A 
HETATM   26  C12 UNL     1      18.254   1.023  49.786  1.00  0.00     0.002 A 
HETATM   27  C13 UNL     1      17.337   0.076  50.141  1.00  0.00     0.000 A 
HETATM   28  C14 UNL     1      17.431  -0.497  51.367  1.00  0.00     0.002 A 
HETATM   29  C15 UNL     1      18.435  -0.114  52.210  1.00  0.00     0.031 A 
ENDBRANCH   3  24
TORSDOF 7
ENDMDL
MODEL 4
REMARK VINA RESULT:      -8.5      2.897      6.613
REMARK  7 active torsions:
REMARK  status: ('A' for Active; 'I' for Inactive)
REMARK    1  A    between atoms: O1_1  and  C1_2 
REMARK    2  A    between atoms: C1_2  and  C2_3 
REMARK    3  A    between atoms: C2_3  and  O2_4 
REMARK    4  A    between atoms: O2_4  and  C3_5 
REMARK    5  A    between atoms: C7_9  and  C8_10 
REMARK    6  A    between atoms: C8_10  and  C9_11 
REMARK    7  A    between atoms: N2_13  and  C10_14 
ROOT
HETATM    1  C9  UNL     1      23.203   4.278  51.198  1.00  0.00     0.059 C 
HETATM    2  N1  UNL     1      24.083   5.194  50.933  1.00  0.00    -0.176 NA
HETATM    3  N2  UNL     1      24.237   5.802  49.663  1.00  0.00    -0.266 N 
HETATM    4  C16 UNL     1      23.152   6.338  49.036  1.00  0.00     0.178 C 
HETATM    5  C17 UNL     1      22.839   6.811  47.745  1.00  0.00    -0.005 C 
HETATM    6  C18 UNL     1      21.858   6.113  47.088  1.00  0.00    -0.001 C 
HETATM    7  C19 UNL     1      21.294   4.982  47.827  1.00  0.00     0.023 C 
HETATM    8  C20 UNL     1      20.704   3.930  48.403  1.00  0.00     0.034 C 
HETATM    9 CL1  UNL     1      19.385   2.919  47.713  1.00  0.00    -0.084 Cl
HETATM   10  C21 UNL     1      21.145   3.406  49.700  1.00  0.00     0.026 C 
HETATM   11  C22 UNL     1      22.024   3.507  50.720  1.00  0.00     0.031 C 
ENDROOT
BRANCH   1  12
HETATM   12  C8  UNL     1      23.452   3.968  52.637  1.00  0.00     0.099 C 
BRANCH  12  13
HETATM   13  C7  UNL     1      24.048   2.684  52.924  1.00  0.00    -0.050 A 
HETATM   14  C6  UNL     1      23.519   1.411  52.691  1.00  0.00     0.007 A 
HETATM   15  C5  UNL     1      24.178   0.242  53.006  1.00  0.00     0.003 A 
HETATM   16  C4  UNL     1      25.441   0.349  53.589  1.00  0.00     0.037 A 
HETATM   17  C3  UNL     1      26.010   1.596  53.841  1.00  0.00     0.069 A 
HETATM   18  C23 UNL     1      25.288   2.717  53.498  1.00  0.00     0.044 A 
BRANCH  17  19
HETATM   19  O2  UNL     1      27.245   1.462  54.412  1.00  0.00    -0.349 OA
BRANCH  19  20
HETATM   20  C2  UNL     1      28.030   0.304  54.453  1.00  0.00     0.201 C 
BRANCH  20  21
HETATM   21  C1  UNL     1      29.402   0.540  53.811  1.00  0.00     0.190 C 
BRANCH  21  22
HETATM   22  O1  UNL     1      29.334   1.795  53.181  1.00  0.00    -0.399 OA
HETATM   23  H1  UNL     1      29.249   1.595  52.198  1.00  0.00     0.209 HD
ENDBRANCH  21  22
ENDBRANCH  20  21
ENDBRANCH  19  20
ENDBRANCH  17  19
ENDBRANCH  12  13
ENDBRANCH   1  12
BRANCH   3  24
HETATM   24  C10 UNL     1      25.586   5.726  49.231  1.00  0.00     0.053 A 
HETATM   25  C11 UNL     1      26.326   6.803  48.739  1.00  0.00     0.031 A 
HETATM   26  C12 UNL     1      27.616   6.749  48.308  1.00  0.00     0.002 A 
HETATM   27  C13 UNL     1      28.293   5.564  48.338  1.00  0.00     0.000 A 
HETATM   28  C14 UNL     1      27.656   4.459  48.801  1.00  0.00     0.002 A 
HETATM   29  C15 UNL     1      26.361   4.561  49.224  1.00  0.00     0.031 A 
ENDBRANCH   3  24
TORSDOF 7
ENDMDL
MODEL 5
REMARK VINA RESULT:      -8.5      4.029      7.615
REMARK  7 active torsions:
REMARK  status: ('A' for Active; 'I' for Inactive)
REMARK    1  A    between atoms: O1_1  and  C1_2 
REMARK    2  A    between atoms: C1_2  and  C2_3 
REMARK    3  A    between atoms: C2_3  and  O2_4 
REMARK    4  A    between atoms: O2_4  and  C3_5 
REMARK    5  A    between atoms: C7_9  and  C8_10 
REMARK    6  A    between atoms: C8_10  and  C9_11 
REMARK    7  A    between atoms: N2_13  and  C10_14 
ROOT
HETATM    1  C9  UNL     1      23.910   4.085  50.734  1.00  0.00     0.059 C 
HETATM    2  N1  UNL     1      24.715   5.088  50.565  1.00  0.00    -0.176 NA
HETATM    3  N2  UNL     1      24.799   5.846  49.371  1.00  0.00    -0.266 N 
HETATM    4  C16 UNL     1      23.664   6.368  48.823  1.00  0.00     0.178 C 
HETATM    5  C17 UNL     1      23.292   6.960  47.599  1.00  0.00    -0.005 C 
HETATM    6  C18 UNL     1      22.352   6.269  46.878  1.00  0.00    -0.001 C 
HETATM    7  C19 UNL     1      21.887   5.023  47.489  1.00  0.00     0.023 C 
HETATM    8  C20 UNL     1      21.386   3.871  47.947  1.00  0.00     0.034 C 
HETATM    9 CL1  UNL     1      20.130   2.850  47.161  1.00  0.00    -0.084 Cl
HETATM   10  C21 UNL     1      21.890   3.237  49.170  1.00  0.00     0.026 C 
HETATM   11  C22 UNL     1      22.780   3.287  50.184  1.00  0.00     0.031 C 
ENDROOT
BRANCH   1  12
HETATM   12  C8  UNL     1      24.210   3.632  52.125  1.00  0.00     0.099 C 
BRANCH  12  13
HETATM   13  C7  UNL     1      24.854   2.347  52.258  1.00  0.00    -0.050 A 
HETATM   14  C6  UNL     1      26.071   1.927  51.713  1.00  0.00     0.007 A 
HETATM   15  C5  UNL     1      26.598   0.667  51.905  1.00  0.00     0.003 A 
HETATM   16  C4  UNL     1      25.867  -0.227  52.688  1.00  0.00     0.037 A 
HETATM   17  C3  UNL     1      24.648   0.146  53.253  1.00  0.00     0.069 A 
HETATM   18  C23 UNL     1      24.189   1.423  53.014  1.00  0.00     0.044 A 
BRANCH  17  19
HETATM   19  O2  UNL     1      24.111  -0.881  53.977  1.00  0.00    -0.349 OA
BRANCH  19  20
HETATM   20  C2  UNL     1      22.942  -0.845  54.745  1.00  0.00     0.201 C 
BRANCH  20  21
HETATM   21  C1  UNL     1      21.714  -1.221  53.907  1.00  0.00     0.190 C 
BRANCH  21  22
HETATM   22  O1  UNL     1      20.783  -1.782  54.798  1.00  0.00    -0.399 OA
HETATM   23  H1  UNL     1      21.266  -2.546  55.241  1.00  0.00     0.209 HD
ENDBRANCH  21  22
ENDBRANCH  20  21
ENDBRANCH  19  20
ENDBRANCH  17  19
ENDBRANCH  12  13
ENDBRANCH   1  12
BRANCH   3  24
HETATM   24  C10 UNL     1      26.140   5.920  48.918  1.00  0.00     0.053 A 
HETATM   25  C11 UNL     1      27.027   4.842  48.875  1.00  0.00     0.031 A 
HETATM   26  C12 UNL     1      28.321   4.895  48.456  1.00  0.00     0.002 A 
HETATM   27  C13 UNL     1      28.850   6.079  48.031  1.00  0.00     0.000 A 
HETATM   28  C14 UNL     1      28.063   7.186  48.037  1.00  0.00     0.002 A 
HETATM   29  C15 UNL     1      26.771   7.084  48.466  1.00  0.00     0.031 A 
ENDBRANCH   3  24
TORSDOF 7
ENDMDL
MODEL 6
REMARK VINA RESULT:      -8.2      4.611      7.716
REMARK  7 active torsions:
REMARK  status: ('A' for Active; 'I' for Inactive)
REMARK    1  A    between atoms: O1_1  and  C1_2 
REMARK    2  A    between atoms: C1_2  and  C2_3 
REMARK    3  A    between atoms: C2_3  and  O2_4 
REMARK    4  A    between atoms: O2_4  and  C3_5 
REMARK    5  A    between atoms: C7_9  and  C8_10 
REMARK    6  A    between atoms: C8_10  and  C9_11 
REMARK    7  A    between atoms: N2_13  and  C10_14 
ROOT
HETATM    1  C9  UNL     1      30.753   7.204  48.881  1.00  0.00     0.059 C 
HETATM    2  N1  UNL     1      29.862   6.438  48.332  1.00  0.00    -0.176 NA
HETATM    3  N2  UNL     1      28.588   6.884  47.902  1.00  0.00    -0.266 N 
HETATM    4  C16 UNL     1      28.496   7.969  47.081  1.00  0.00     0.178 C 
HETATM    5  C17 UNL     1      27.476   8.829  46.624  1.00  0.00    -0.005 C 
HETATM    6  C18 UNL     1      27.606  10.141  47.001  1.00  0.00    -0.001 C 
HETATM    7  C19 UNL     1      28.779  10.442  47.824  1.00  0.00     0.023 C 
HETATM    8  C20 UNL     1      29.811  10.838  48.576  1.00  0.00     0.034 C 
HETATM    9 CL1  UNL     1      30.162  12.511  49.136  1.00  0.00    -0.084 Cl
HETATM   10  C21 UNL     1      30.783   9.884  49.123  1.00  0.00     0.026 C 
HETATM   11  C22 UNL     1      31.150   8.591  49.247  1.00  0.00     0.031 C 
ENDROOT
BRANCH   1  12
HETATM   12  C8  UNL     1      31.888   6.273  49.154  1.00  0.00     0.099 C 
BRANCH  12  13
HETATM   13  C7  UNL     1      32.535   5.693  48.000  1.00  0.00    -0.050 A 
HETATM   14  C6  UNL     1      33.377   6.316  47.075  1.00  0.00     0.007 A 
HETATM   15  C5  UNL     1      33.946   5.664  46.001  1.00  0.00     0.003 A 
HETATM   16  C4  UNL     1      33.657   4.308  45.842  1.00  0.00     0.037 A 
HETATM   17  C3  UNL     1      32.823   3.644  46.739  1.00  0.00     0.069 A 
HETATM   18  C23 UNL     1      32.293   4.365  47.785  1.00  0.00     0.044 A 
BRANCH  17  19
HETATM   19  O2  UNL     1      32.681   2.329  46.391  1.00  0.00    -0.349 OA
BRANCH  19  20
HETATM   20  C2  UNL     1      32.660   1.229  47.257  1.00  0.00     0.201 C 
BRANCH  20  21
HETATM   21  C1  UNL     1      31.801   0.093  46.690  1.00  0.00     0.190 C 
BRANCH  21  22
HETATM   22  O1  UNL     1      30.864   0.695  45.832  1.00  0.00    -0.399 OA
HETATM   23  H1  UNL     1      29.986   0.648  46.322  1.00  0.00     0.209 HD
ENDBRANCH  21  22
ENDBRANCH  20  21
ENDBRANCH  19  20
ENDBRANCH  17  19
ENDBRANCH  12  13
ENDBRANCH   1  12
BRANCH   3  24
HETATM   24  C10 UNL     1      27.562   6.076  48.453  1.00  0.00     0.053 A 
HETATM   25  C11 UNL     1      27.687   4.714  48.736  1.00  0.00     0.031 A 
HETATM   26  C12 UNL     1      26.711   3.918  49.252  1.00  0.00     0.002 A 
HETATM   27  C13 UNL     1      25.484   4.444  49.536  1.00  0.00     0.000 A 
HETATM   28  C14 UNL     1      25.267   5.762  49.295  1.00  0.00     0.002 A 
HETATM   29  C15 UNL     1      26.276   6.522  48.776  1.00  0.00     0.031 A 
ENDBRANCH   3  24
TORSDOF 7
ENDMDL
MODEL 7
REMARK VINA RESULT:      -8.0      3.814      7.117
REMARK  7 active torsions:
REMARK  status: ('A' for Active; 'I' for Inactive)
REMARK    1  A    between atoms: O1_1  and  C1_2 
REMARK    2  A    between atoms: C1_2  and  C2_3 
REMARK    3  A    between atoms: C2_3  and  O2_4 
REMARK    4  A    between atoms: O2_4  and  C3_5 
REMARK    5  A    between atoms: C7_9  and  C8_10 
REMARK    6  A    between atoms: C8_10  and  C9_11 
REMARK    7  A    between atoms: N2_13  and  C10_14 
ROOT
HETATM    1  C9  UNL     1      23.123   2.937  51.654  1.00  0.00     0.059 C 
HETATM    2  N1  UNL     1      22.538   1.804  51.415  1.00  0.00    -0.176 NA
HETATM    3  N2  UNL     1      21.782   1.532  50.248  1.00  0.00    -0.266 N 
HETATM    4  C16 UNL     1      22.327   1.772  49.021  1.00  0.00     0.178 C 
HETATM    5  C17 UNL     1      21.869   1.847  47.689  1.00  0.00    -0.005 C 
HETATM    6  C18 UNL     1      22.007   3.074  47.093  1.00  0.00    -0.001 C 
HETATM    7  C19 UNL     1      22.601   4.115  47.933  1.00  0.00     0.023 C 
HETATM    8  C20 UNL     1      23.133   5.144  48.602  1.00  0.00     0.034 C 
HETATM    9 CL1  UNL     1      23.421   6.806  47.977  1.00  0.00    -0.084 Cl
HETATM   10  C21 UNL     1      23.487   5.046  50.022  1.00  0.00     0.026 C 
HETATM   11  C22 UNL     1      23.501   4.279  51.133  1.00  0.00     0.031 C 
ENDROOT
BRANCH   1  12
HETATM   12  C8  UNL     1      23.761   2.721  52.986  1.00  0.00     0.099 C 
BRANCH  12  13
HETATM   13  C7  UNL     1      24.520   1.503  53.145  1.00  0.00    -0.050 A 
HETATM   14  C6  UNL     1      24.065   0.245  53.549  1.00  0.00     0.007 A 
HETATM   15  C5  UNL     1      24.882  -0.860  53.668  1.00  0.00     0.003 A 
HETATM   16  C4  UNL     1      26.235  -0.699  53.366  1.00  0.00     0.037 A 
HETATM   17  C3  UNL     1      26.735   0.537  52.959  1.00  0.00     0.069 A 
HETATM   18  C23 UNL     1      25.855   1.592  52.865  1.00  0.00     0.044 A 
BRANCH  17  19
HETATM   19  O2  UNL     1      28.079   0.463  52.716  1.00  0.00    -0.349 OA
BRANCH  19  20
HETATM   20  C2  UNL     1      29.106   0.497  53.666  1.00  0.00     0.201 C 
BRANCH  20  21
HETATM   21  C1  UNL     1      29.216   1.882  54.316  1.00  0.00     0.190 C 
BRANCH  21  22
HETATM   22  O1  UNL     1      29.317   2.807  53.261  1.00  0.00    -0.399 OA
HETATM   23  H1  UNL     1      30.030   3.457  53.546  1.00  0.00     0.209 HD
ENDBRANCH  21  22
ENDBRANCH  20  21
ENDBRANCH  19  20
ENDBRANCH  17  19
ENDBRANCH  12  13
ENDBRANCH   1  12
BRANCH   3  24
HETATM   24  C10 UNL     1      20.497   1.037  50.587  1.00  0.00     0.053 A 
HETATM   25  C11 UNL     1      19.351   1.197  49.805  1.00  0.00     0.031 A 
HETATM   26  C12 UNL     1      18.107   0.742  50.118  1.00  0.00     0.002 A 
HETATM   27  C13 UNL     1      17.905   0.064  51.286  1.00  0.00     0.000 A 
HETATM   28  C14 UNL     1      18.962  -0.142  52.113  1.00  0.00     0.002 A 
HETATM   29  C15 UNL     1      20.192   0.333  51.757  1.00  0.00     0.031 A 
ENDBRANCH   3  24
TORSDOF 7
ENDMDL
MODEL 8
REMARK VINA RESULT:      -8.0      4.925      7.726
REMARK  7 active torsions:
REMARK  status: ('A' for Active; 'I' for Inactive)
REMARK    1  A    between atoms: O1_1  and  C1_2 
REMARK    2  A    between atoms: C1_2  and  C2_3 
REMARK    3  A    between atoms: C2_3  and  O2_4 
REMARK    4  A    between atoms: O2_4  and  C3_5 
REMARK    5  A    between atoms: C7_9  and  C8_10 
REMARK    6  A    between atoms: C8_10  and  C9_11 
REMARK    7  A    between atoms: N2_13  and  C10_14 
ROOT
HETATM    1  C9  UNL     1      21.962   2.665  52.331  1.00  0.00     0.059 C 
HETATM    2  N1  UNL     1      20.736   2.332  52.596  1.00  0.00    -0.176 NA
HETATM    3  N2  UNL     1      20.334   1.030  52.984  1.00  0.00    -0.266 N 
HETATM    4  C16 UNL     1      20.970   0.408  54.017  1.00  0.00     0.178 C 
HETATM    5  C17 UNL     1      21.032  -0.896  54.552  1.00  0.00    -0.005 C 
HETATM    6  C18 UNL     1      22.266  -1.491  54.500  1.00  0.00    -0.001 C 
HETATM    7  C19 UNL     1      23.325  -0.682  53.893  1.00  0.00     0.023 C 
HETATM    8  C20 UNL     1      24.370  -0.040  53.362  1.00  0.00     0.034 C 
HETATM    9 CL1  UNL     1      26.061  -0.644  53.239  1.00  0.00    -0.084 Cl
HETATM   10  C21 UNL     1      24.230   1.268  52.714  1.00  0.00     0.026 C 
HETATM   11  C22 UNL     1      23.393   2.258  52.335  1.00  0.00     0.031 C 
ENDROOT
BRANCH   1  12
HETATM   12  C8  UNL     1      21.855   4.110  51.971  1.00  0.00     0.099 C 
BRANCH  12  13
HETATM   13  C7  UNL     1      22.456   4.507  50.719  1.00  0.00    -0.050 A 
HETATM   14  C6  UNL     1      23.498   5.414  50.507  1.00  0.00     0.007 A 
HETATM   15  C5  UNL     1      23.998   5.721  49.259  1.00  0.00     0.003 A 
HETATM   16  C4  UNL     1      23.425   5.085  48.157  1.00  0.00     0.037 A 
HETATM   17  C3  UNL     1      22.384   4.172  48.320  1.00  0.00     0.069 A 
HETATM   18  C23 UNL     1      21.939   3.919  49.598  1.00  0.00     0.044 A 
BRANCH  17  19
HETATM   19  O2  UNL     1      21.979   3.674  47.113  1.00  0.00    -0.349 OA
BRANCH  19  20
HETATM   20  C2  UNL     1      21.895   4.372  45.902  1.00  0.00     0.201 C 
BRANCH  20  21
HETATM   21  C1  UNL     1      20.640   3.972  45.118  1.00  0.00     0.190 C 
BRANCH  21  22
HETATM   22  O1  UNL     1      21.079   3.583  43.840  1.00  0.00    -0.399 OA
HETATM   23  H1  UNL     1      21.667   2.781  43.994  1.00  0.00     0.209 HD
ENDBRANCH  21  22
ENDBRANCH  20  21
ENDBRANCH  19  20
ENDBRANCH  17  19
ENDBRANCH  12  13
ENDBRANCH   1  12
BRANCH   3  24
HETATM   24  C10 UNL     1      19.278   0.566  52.160  1.00  0.00     0.053 A 
HETATM   25  C11 UNL     1      19.038   0.998  50.854  1.00  0.00     0.031 A 
HETATM   26  C12 UNL     1      18.023   0.576  50.051  1.00  0.00     0.002 A 
HETATM   27  C13 UNL     1      17.132  -0.350  50.513  1.00  0.00     0.000 A 
HETATM   28  C14 UNL     1      17.284  -0.831  51.773  1.00  0.00     0.002 A 
HETATM   29  C15 UNL     1      18.318  -0.377  52.542  1.00  0.00     0.031 A 
ENDBRANCH   3  24
TORSDOF 7
ENDMDL
MODEL 9
REMARK VINA RESULT:      -7.9      3.483      7.193
REMARK  7 active torsions:
REMARK  status: ('A' for Active; 'I' for Inactive)
REMARK    1  A    between atoms: O1_1  and  C1_2 
REMARK    2  A    between atoms: C1_2  and  C2_3 
REMARK    3  A    between atoms: C2_3  and  O2_4 
REMARK    4  A    between atoms: O2_4  and  C3_5 
REMARK    5  A    between atoms: C7_9  and  C8_10 
REMARK    6  A    between atoms: C8_10  and  C9_11 
REMARK    7  A    between atoms: N2_13  and  C10_14 
ROOT
HETATM    1  C9  UNL     1      22.425   3.209  49.731  1.00  0.00     0.059 C 
HETATM    2  N1  UNL     1      23.548   3.667  50.192  1.00  0.00    -0.176 NA
HETATM    3  N2  UNL     1      23.908   5.037  50.186  1.00  0.00    -0.266 N 
HETATM    4  C16 UNL     1      23.051   5.961  50.706  1.00  0.00     0.178 C 
HETATM    5  C17 UNL     1      22.926   7.366  50.700  1.00  0.00    -0.005 C 
HETATM    6  C18 UNL     1      21.794   7.849  50.096  1.00  0.00    -0.001 C 
HETATM    7  C19 UNL     1      20.896   6.832  49.547  1.00  0.00     0.023 C 
HETATM    8  C20 UNL     1      20.000   5.998  49.009  1.00  0.00     0.034 C 
HETATM    9 CL1  UNL     1      18.451   6.444  48.210  1.00  0.00    -0.084 Cl
HETATM   10  C21 UNL     1      20.232   4.551  48.938  1.00  0.00     0.026 C 
HETATM   11  C22 UNL     1      21.077   3.529  49.188  1.00  0.00     0.031 C 
ENDROOT
BRANCH   1  12
HETATM   12  C8  UNL     1      22.536   1.737  49.956  1.00  0.00     0.099 C 
BRANCH  12  13
HETATM   13  C7  UNL     1      22.296   1.272  51.302  1.00  0.00    -0.050 A 
HETATM   14  C6  UNL     1      21.136   1.402  52.070  1.00  0.00     0.007 A 
HETATM   15  C5  UNL     1      21.014   0.917  53.356  1.00  0.00     0.003 A 
HETATM   16  C4  UNL     1      22.116   0.262  53.907  1.00  0.00     0.037 A 
HETATM   17  C3  UNL     1      23.295   0.107  53.178  1.00  0.00     0.069 A 
HETATM   18  C23 UNL     1      23.338   0.620  51.901  1.00  0.00     0.044 A 
BRANCH  17  19
HETATM   19  O2  UNL     1      24.236  -0.562  53.911  1.00  0.00    -0.349 OA
BRANCH  19  20
HETATM   20  C2  UNL     1      25.624  -0.507  53.743  1.00  0.00     0.201 C 
BRANCH  20  21
HETATM   21  C1  UNL     1      26.298   0.209  54.919  1.00  0.00     0.190 C 
BRANCH  21  22
HETATM   22  O1  UNL     1      26.479   1.545  54.518  1.00  0.00    -0.399 OA
HETATM   23  H1  UNL     1      27.319   1.849  54.981  1.00  0.00     0.209 HD
ENDBRANCH  21  22
ENDBRANCH  20  21
ENDBRANCH  19  20
ENDBRANCH  17  19
ENDBRANCH  12  13
ENDBRANCH   1  12
BRANCH   3  24
HETATM   24  C10 UNL     1      25.178   5.218  49.582  1.00  0.00     0.053 A 
HETATM   25  C11 UNL     1      26.168   4.237  49.501  1.00  0.00     0.031 A 
HETATM   26  C12 UNL     1      27.398   4.394  48.938  1.00  0.00     0.002 A 
HETATM   27  C13 UNL     1      27.746   5.595  48.391  1.00  0.00     0.000 A 
HETATM   28  C14 UNL     1      26.847   6.612  48.421  1.00  0.00     0.002 A 
HETATM   29  C15 UNL     1      25.626   6.407  48.997  1.00  0.00     0.031 A 
ENDBRANCH   3  24
TORSDOF 7
ENDMDL
