MODEL 1
REMARK VINA RESULT:      -9.7      0.000      0.000
REMARK  2 active torsions:
REMARK  status: ('A' for Active; 'I' for Inactive)
REMARK    1  A    between atoms: C6_6  and  N1_8 
REMARK    2  A    between atoms: N1_8  and  C8_9 
ROOT
HETATM    1  C8  UNL     1      23.789   0.860  52.948  1.00  0.00     0.058 C 
HETATM    2  C9  UNL     1      23.602   0.024  53.937  1.00  0.00     0.031 C 
HETATM    3  C10 UNL     1      23.195  -0.963  54.916  1.00  0.00    -0.000 C 
HETATM    4  C11 UNL     1      22.150  -1.767  54.959  1.00  0.00    -0.007 C 
HETATM    5  C12 UNL     1      21.180  -1.737  53.861  1.00  0.00     0.165 C 
HETATM    6  N2  UNL     1      19.870  -1.236  54.213  1.00  0.00    -0.219 N 
HETATM    7  C13 UNL     1      18.983  -0.781  53.211  1.00  0.00     0.722 A 
HETATM    8  N3  UNL     1      17.729  -0.685  52.794  1.00  0.00    -0.075 NA
HETATM    9  C14 UNL     1      17.442  -0.046  51.635  1.00  0.00     0.138 A 
HETATM   10  C15 UNL     1      18.419   0.523  50.849  1.00  0.00     0.048 A 
HETATM   11  C16 UNL     1      19.709   0.401  51.314  1.00  0.00     0.068 A 
HETATM   12  N4  UNL     1      19.880  -0.235  52.448  1.00  0.00    -0.067 NA
HETATM   13  C17 UNL     1      21.114   0.671  51.060  1.00  0.00     0.104 C 
HETATM   14  C18 UNL     1      21.499   1.725  50.133  1.00  0.00     0.105 C 
HETATM   15  N5  UNL     1      22.767   1.489  50.415  1.00  0.00    -0.262 NA
HETATM   16  C19 UNL     1      22.984   1.201  51.778  1.00  0.00     0.079 C 
HETATM   17  C20 UNL     1      21.766   1.281  52.283  1.00  0.00     0.023 C 
HETATM   18  H16 UNL     1      19.239  -1.051  55.009  1.00  0.00     0.178 HD
ENDROOT
BRANCH   1  19
HETATM   19  N1  UNL     1      24.857   1.787  52.715  1.00  0.00    -0.369 N 
HETATM   20  H10 UNL     1      24.617   2.807  52.862  1.00  0.00     0.161 HD
BRANCH  19  21
HETATM   21  C6  UNL     1      26.201   1.478  52.295  1.00  0.00     0.110 A 
HETATM   22  C5  UNL     1      26.179   0.166  51.605  1.00  0.00     0.012 A 
HETATM   23  C4  UNL     1      26.881  -0.901  52.022  1.00  0.00    -0.001 A 
HETATM   24  C3  UNL     1      27.730  -0.813  53.220  1.00  0.00     0.010 A 
HETATM   25  C2  UNL     1      27.857   0.288  53.945  1.00  0.00    -0.013 A 
HETATM   26  C1  UNL     1      28.723   0.336  55.148  1.00  0.00     0.052 C 
HETATM   27  C21 UNL     1      27.098   1.438  53.477  1.00  0.00     0.186 A 
HETATM   28  O1  UNL     1      27.209   2.511  54.138  1.00  0.00    -0.290 OA
HETATM   29  C7  UNL     1      26.760   2.552  51.378  1.00  0.00     0.052 C 
ENDBRANCH  19  21
ENDBRANCH   1  19
TORSDOF 2
ENDMDL
MODEL 2
REMARK VINA RESULT:      -9.4      1.466      2.917
REMARK  2 active torsions:
REMARK  status: ('A' for Active; 'I' for Inactive)
REMARK    1  A    between atoms: C6_6  and  N1_8 
REMARK    2  A    between atoms: N1_8  and  C8_9 
ROOT
HETATM    1  C8  UNL     1      23.814   0.930  53.330  1.00  0.00     0.058 C 
HETATM    2  C9  UNL     1      23.564   2.085  52.766  1.00  0.00     0.031 C 
HETATM    3  C10 UNL     1      23.057   3.309  52.181  1.00  0.00    -0.000 C 
HETATM    4  C11 UNL     1      21.827   3.761  52.036  1.00  0.00    -0.007 C 
HETATM    5  C12 UNL     1      20.708   2.957  52.536  1.00  0.00     0.165 C 
HETATM    6  N2  UNL     1      19.833   2.422  51.517  1.00  0.00    -0.219 N 
HETATM    7  C13 UNL     1      18.979   1.331  51.804  1.00  0.00     0.722 A 
HETATM    8  N3  UNL     1      17.804   0.755  51.601  1.00  0.00    -0.075 NA
HETATM    9  C14 UNL     1      17.515  -0.430  52.190  1.00  0.00     0.138 A 
HETATM   10  C15 UNL     1      18.409  -1.079  53.011  1.00  0.00     0.048 A 
HETATM   11  C16 UNL     1      19.618  -0.448  53.200  1.00  0.00     0.068 A 
HETATM   12  N4  UNL     1      19.799   0.696  52.584  1.00  0.00    -0.067 NA
HETATM   13  C17 UNL     1      20.905  -0.481  53.874  1.00  0.00     0.104 C 
HETATM   14  C18 UNL     1      21.431  -1.740  54.381  1.00  0.00     0.105 C 
HETATM   15  N5  UNL     1      22.530  -1.111  54.756  1.00  0.00    -0.262 NA
HETATM   16  C19 UNL     1      22.946  -0.130  53.833  1.00  0.00     0.079 C 
HETATM   17  C20 UNL     1      22.025  -0.218  52.890  1.00  0.00     0.023 C 
HETATM   18  H16 UNL     1      19.545   2.528  50.531  1.00  0.00     0.178 HD
ENDROOT
BRANCH   1  19
HETATM   19  N1  UNL     1      25.067   0.285  53.591  1.00  0.00    -0.369 N 
HETATM   20  H10 UNL     1      25.093  -0.334  54.449  1.00  0.00     0.161 HD
BRANCH  19  21
HETATM   21  C6  UNL     1      26.282   0.401  52.823  1.00  0.00     0.110 A 
HETATM   22  C5  UNL     1      26.815  -0.963  52.593  1.00  0.00     0.012 A 
HETATM   23  C4  UNL     1      28.024  -1.366  53.015  1.00  0.00    -0.001 A 
HETATM   24  C3  UNL     1      28.903  -0.442  53.750  1.00  0.00     0.010 A 
HETATM   25  C2  UNL     1      28.573   0.808  54.032  1.00  0.00    -0.013 A 
HETATM   26  C1  UNL     1      29.488   1.709  54.776  1.00  0.00     0.052 C 
HETATM   27  C21 UNL     1      27.263   1.233  53.561  1.00  0.00     0.186 A 
HETATM   28  O1  UNL     1      26.923   2.428  53.802  1.00  0.00    -0.290 OA
HETATM   29  C7  UNL     1      26.040   1.107  51.501  1.00  0.00     0.052 C 
ENDBRANCH  19  21
ENDBRANCH   1  19
TORSDOF 2
ENDMDL
MODEL 3
REMARK VINA RESULT:      -9.2      2.448      7.504
REMARK  2 active torsions:
REMARK  status: ('A' for Active; 'I' for Inactive)
REMARK    1  A    between atoms: C6_6  and  N1_8 
REMARK    2  A    between atoms: N1_8  and  C8_9 
ROOT
HETATM    1  C8  UNL     1      22.935   1.444  52.044  1.00  0.00     0.058 C 
HETATM    2  C9  UNL     1      23.470   2.311  51.222  1.00  0.00     0.031 C 
HETATM    3  C10 UNL     1      24.271   3.175  50.380  1.00  0.00    -0.000 C 
HETATM    4  C11 UNL     1      25.575   3.243  50.191  1.00  0.00    -0.007 C 
HETATM    5  C12 UNL     1      26.449   2.309  50.908  1.00  0.00     0.165 C 
HETATM    6  N2  UNL     1      27.314   2.915  51.896  1.00  0.00    -0.219 N 
HETATM    7  C13 UNL     1      27.899   2.128  52.916  1.00  0.00     0.722 A 
HETATM    8  N3  UNL     1      28.954   1.912  53.688  1.00  0.00    -0.075 NA
HETATM    9  C14 UNL     1      28.934   0.915  54.604  1.00  0.00     0.138 A 
HETATM   10  C15 UNL     1      27.841   0.096  54.776  1.00  0.00     0.048 A 
HETATM   11  C16 UNL     1      26.766   0.351  53.955  1.00  0.00     0.068 A 
HETATM   12  N4  UNL     1      26.885   1.338  53.101  1.00  0.00    -0.067 NA
HETATM   13  C17 UNL     1      25.429  -0.055  53.557  1.00  0.00     0.104 C 
HETATM   14  C18 UNL     1      24.611  -0.855  54.457  1.00  0.00     0.105 C 
HETATM   15  N5  UNL     1      23.620  -0.794  53.585  1.00  0.00    -0.262 NA
HETATM   16  C19 UNL     1      23.515   0.465  52.959  1.00  0.00     0.079 C 
HETATM   17  C20 UNL     1      24.503   1.143  53.515  1.00  0.00     0.023 C 
HETATM   18  H16 UNL     1      27.730   3.810  52.198  1.00  0.00     0.178 HD
ENDROOT
BRANCH   1  19
HETATM   19  N1  UNL     1      21.559   1.207  52.364  1.00  0.00    -0.369 N 
HETATM   20  H10 UNL     1      21.355   0.996  53.381  1.00  0.00     0.161 HD
BRANCH  19  21
HETATM   21  C6  UNL     1      20.440   1.215  51.455  1.00  0.00     0.110 A 
HETATM   22  C5  UNL     1      20.889   0.636  50.166  1.00  0.00     0.012 A 
HETATM   23  C4  UNL     1      20.858   1.306  49.002  1.00  0.00    -0.001 A 
HETATM   24  C3  UNL     1      20.362   2.691  48.953  1.00  0.00     0.010 A 
HETATM   25  C2  UNL     1      19.925   3.347  50.016  1.00  0.00    -0.013 A 
HETATM   26  C1  UNL     1      19.433   4.743  49.925  1.00  0.00     0.052 C 
HETATM   27  C21 UNL     1      19.956   2.605  51.268  1.00  0.00     0.186 A 
HETATM   28  O1  UNL     1      19.531   3.199  52.302  1.00  0.00    -0.290 OA
HETATM   29  C7  UNL     1      19.265   0.430  52.010  1.00  0.00     0.052 C 
ENDBRANCH  19  21
ENDBRANCH   1  19
TORSDOF 2
ENDMDL
MODEL 4
REMARK VINA RESULT:      -9.2      3.135      5.268
REMARK  2 active torsions:
REMARK  status: ('A' for Active; 'I' for Inactive)
REMARK    1  A    between atoms: C6_6  and  N1_8 
REMARK    2  A    between atoms: N1_8  and  C8_9 
ROOT
HETATM    1  C8  UNL     1      25.234   3.163  51.478  1.00  0.00     0.058 C 
HETATM    2  C9  UNL     1      26.236   2.361  51.732  1.00  0.00     0.031 C 
HETATM    3  C10 UNL     1      27.176   1.312  52.073  1.00  0.00    -0.000 C 
HETATM    4  C11 UNL     1      26.988   0.075  52.488  1.00  0.00    -0.007 C 
HETATM    5  C12 UNL     1      25.618  -0.422  52.653  1.00  0.00     0.165 C 
HETATM    6  N2  UNL     1      25.226  -0.697  54.018  1.00  0.00    -0.219 N 
HETATM    7  C13 UNL     1      23.859  -0.790  54.366  1.00  0.00     0.722 A 
HETATM    8  N3  UNL     1      22.938  -1.380  55.114  1.00  0.00    -0.075 NA
HETATM    9  C14 UNL     1      21.642  -0.998  55.028  1.00  0.00     0.138 A 
HETATM   10  C15 UNL     1      21.226   0.003  54.179  1.00  0.00     0.048 A 
HETATM   11  C16 UNL     1      22.211   0.590  53.417  1.00  0.00     0.068 A 
HETATM   12  N4  UNL     1      23.435   0.148  53.575  1.00  0.00    -0.067 NA
HETATM   13  C17 UNL     1      22.518   1.568  52.387  1.00  0.00     0.104 C 
HETATM   14  C18 UNL     1      21.594   2.661  52.120  1.00  0.00     0.105 C 
HETATM   15  N5  UNL     1      22.443   3.140  51.229  1.00  0.00    -0.262 NA
HETATM   16  C19 UNL     1      23.790   3.017  51.629  1.00  0.00     0.079 C 
HETATM   17  C20 UNL     1      23.683   2.436  52.811  1.00  0.00     0.023 C 
HETATM   18  H16 UNL     1      25.592  -0.875  54.967  1.00  0.00     0.178 HD
ENDROOT
BRANCH   1  19
HETATM   19  N1  UNL     1      25.236   4.517  51.006  1.00  0.00    -0.369 N 
HETATM   20  H10 UNL     1      25.090   5.259  51.745  1.00  0.00     0.161 HD
BRANCH  19  21
HETATM   21  C6  UNL     1      25.402   4.963  49.645  1.00  0.00     0.110 A 
HETATM   22  C5  UNL     1      26.566   4.252  49.064  1.00  0.00     0.012 A 
HETATM   23  C4  UNL     1      27.658   4.878  48.597  1.00  0.00    -0.001 A 
HETATM   24  C3  UNL     1      27.751   6.346  48.641  1.00  0.00     0.010 A 
HETATM   25  C2  UNL     1      26.796   7.123  49.126  1.00  0.00    -0.013 A 
HETATM   26  C1  UNL     1      26.929   8.600  49.154  1.00  0.00     0.052 C 
HETATM   27  C21 UNL     1      25.616   6.431  49.622  1.00  0.00     0.186 A 
HETATM   28  O1  UNL     1      24.677   7.146  50.080  1.00  0.00    -0.290 OA
HETATM   29  C7  UNL     1      24.155   4.705  48.818  1.00  0.00     0.052 C 
ENDBRANCH  19  21
ENDBRANCH   1  19
TORSDOF 2
ENDMDL
MODEL 5
REMARK VINA RESULT:      -9.1      2.125      2.970
REMARK  2 active torsions:
REMARK  status: ('A' for Active; 'I' for Inactive)
REMARK    1  A    between atoms: C6_6  and  N1_8 
REMARK    2  A    between atoms: N1_8  and  C8_9 
ROOT
HETATM    1  C8  UNL     1      24.691   0.807  52.469  1.00  0.00     0.058 C 
HETATM    2  C9  UNL     1      23.869  -0.015  53.072  1.00  0.00     0.031 C 
HETATM    3  C10 UNL     1      22.789  -0.810  53.615  1.00  0.00    -0.000 C 
HETATM    4  C11 UNL     1      21.489  -0.788  53.387  1.00  0.00    -0.007 C 
HETATM    5  C12 UNL     1      20.952   0.173  52.418  1.00  0.00     0.165 C 
HETATM    6  N2  UNL     1      20.116   1.209  52.982  1.00  0.00    -0.219 N 
HETATM    7  C13 UNL     1      19.866   2.400  52.260  1.00  0.00     0.722 A 
HETATM    8  N3  UNL     1      19.001   3.356  51.957  1.00  0.00    -0.075 NA
HETATM    9  C14 UNL     1      19.367   4.371  51.138  1.00  0.00     0.138 A 
HETATM   10  C15 UNL     1      20.628   4.458  50.594  1.00  0.00     0.048 A 
HETATM   11  C16 UNL     1      21.497   3.445  50.931  1.00  0.00     0.068 A 
HETATM   12  N4  UNL     1      21.046   2.509  51.730  1.00  0.00    -0.067 NA
HETATM   13  C17 UNL     1      22.825   2.883  50.749  1.00  0.00     0.104 C 
HETATM   14  C18 UNL     1      23.916   3.726  50.279  1.00  0.00     0.105 C 
HETATM   15  N5  UNL     1      24.740   2.701  50.404  1.00  0.00    -0.262 NA
HETATM   16  C19 UNL     1      24.475   1.918  51.546  1.00  0.00     0.079 C 
HETATM   17  C20 UNL     1      23.445   2.543  52.088  1.00  0.00     0.023 C 
HETATM   18  H16 UNL     1      19.555   1.464  53.810  1.00  0.00     0.178 HD
ENDROOT
BRANCH   1  19
HETATM   19  N1  UNL     1      26.116   0.921  52.568  1.00  0.00    -0.369 N 
HETATM   20  H10 UNL     1      26.614   1.225  51.685  1.00  0.00     0.161 HD
BRANCH  19  21
HETATM   21  C6  UNL     1      26.931   0.657  53.728  1.00  0.00     0.110 A 
HETATM   22  C5  UNL     1      27.910   1.762  53.866  1.00  0.00     0.012 A 
HETATM   23  C4  UNL     1      29.241   1.579  53.836  1.00  0.00    -0.001 A 
HETATM   24  C3  UNL     1      29.804   0.231  53.660  1.00  0.00     0.010 A 
HETATM   25  C2  UNL     1      29.063  -0.857  53.526  1.00  0.00    -0.013 A 
HETATM   26  C1  UNL     1      29.670  -2.199  53.350  1.00  0.00     0.052 C 
HETATM   27  C21 UNL     1      27.624  -0.645  53.567  1.00  0.00     0.186 A 
HETATM   28  O1  UNL     1      26.886  -1.667  53.457  1.00  0.00    -0.290 OA
HETATM   29  C7  UNL     1      26.088   0.535  54.985  1.00  0.00     0.052 C 
ENDBRANCH  19  21
ENDBRANCH   1  19
TORSDOF 2
ENDMDL
MODEL 6
REMARK VINA RESULT:      -9.1      2.832      4.940
REMARK  2 active torsions:
REMARK  status: ('A' for Active; 'I' for Inactive)
REMARK    1  A    between atoms: C6_6  and  N1_8 
REMARK    2  A    between atoms: N1_8  and  C8_9 
ROOT
HETATM    1  C8  UNL     1      25.403   1.685  51.600  1.00  0.00     0.058 C 
HETATM    2  C9  UNL     1      26.088   2.476  50.814  1.00  0.00     0.031 C 
HETATM    3  C10 UNL     1      26.644   3.481  49.931  1.00  0.00    -0.000 C 
HETATM    4  C11 UNL     1      26.116   4.571  49.409  1.00  0.00    -0.007 C 
HETATM    5  C12 UNL     1      24.728   4.916  49.732  1.00  0.00     0.165 C 
HETATM    6  N2  UNL     1      23.803   4.837  48.623  1.00  0.00    -0.219 N 
HETATM    7  C13 UNL     1      22.411   4.747  48.856  1.00  0.00     0.722 A 
HETATM    8  N3  UNL     1      21.192   5.080  48.456  1.00  0.00    -0.075 NA
HETATM    9  C14 UNL     1      20.108   4.636  49.135  1.00  0.00     0.138 A 
HETATM   10  C15 UNL     1      20.216   3.834  50.249  1.00  0.00     0.048 A 
HETATM   11  C16 UNL     1      21.498   3.512  50.634  1.00  0.00     0.068 A 
HETATM   12  N4  UNL     1      22.479   3.992  49.909  1.00  0.00    -0.067 NA
HETATM   13  C17 UNL     1      22.329   2.826  51.608  1.00  0.00     0.104 C 
HETATM   14  C18 UNL     1      21.766   1.762  52.427  1.00  0.00     0.105 C 
HETATM   15  N5  UNL     1      22.957   1.566  52.963  1.00  0.00    -0.262 NA
HETATM   16  C19 UNL     1      24.008   1.688  52.030  1.00  0.00     0.079 C 
HETATM   17  C20 UNL     1      23.364   1.968  50.911  1.00  0.00     0.023 C 
HETATM   18  H16 UNL     1      23.743   4.814  47.593  1.00  0.00     0.178 HD
ENDROOT
BRANCH   1  19
HETATM   19  N1  UNL     1      25.802   0.483  52.270  1.00  0.00    -0.369 N 
HETATM   20  H10 UNL     1      25.504  -0.420  51.806  1.00  0.00     0.161 HD
BRANCH  19  21
HETATM   21  C6  UNL     1      26.547   0.379  53.500  1.00  0.00     0.110 A 
HETATM   22  C5  UNL     1      27.212   1.680  53.749  1.00  0.00     0.012 A 
HETATM   23  C4  UNL     1      28.544   1.824  53.847  1.00  0.00    -0.001 A 
HETATM   24  C3  UNL     1      29.431   0.658  53.708  1.00  0.00     0.010 A 
HETATM   25  C2  UNL     1      28.992  -0.570  53.486  1.00  0.00    -0.013 A 
HETATM   26  C1  UNL     1      29.920  -1.720  53.350  1.00  0.00     0.052 C 
HETATM   27  C21 UNL     1      27.547  -0.712  53.390  1.00  0.00     0.186 A 
HETATM   28  O1  UNL     1      27.092  -1.877  53.193  1.00  0.00    -0.290 OA
HETATM   29  C7  UNL     1      25.648   0.010  54.667  1.00  0.00     0.052 C 
ENDBRANCH  19  21
ENDBRANCH   1  19
TORSDOF 2
ENDMDL
MODEL 7
REMARK VINA RESULT:      -9.0      2.950      4.850
REMARK  2 active torsions:
REMARK  status: ('A' for Active; 'I' for Inactive)
REMARK    1  A    between atoms: C6_6  and  N1_8 
REMARK    2  A    between atoms: N1_8  and  C8_9 
ROOT
HETATM    1  C8  UNL     1      24.735   1.269  51.926  1.00  0.00     0.058 C 
HETATM    2  C9  UNL     1      23.506   1.077  52.334  1.00  0.00     0.031 C 
HETATM    3  C10 UNL     1      22.095   1.062  52.657  1.00  0.00    -0.000 C 
HETATM    4  C11 UNL     1      21.108   1.858  52.293  1.00  0.00    -0.007 C 
HETATM    5  C12 UNL     1      21.392   2.980  51.392  1.00  0.00     0.165 C 
HETATM    6  N2  UNL     1      21.240   4.292  51.979  1.00  0.00    -0.219 N 
HETATM    7  C13 UNL     1      21.848   5.420  51.381  1.00  0.00     0.722 A 
HETATM    8  N3  UNL     1      21.763   6.712  51.101  1.00  0.00    -0.075 NA
HETATM    9  C14 UNL     1      22.776   7.337  50.454  1.00  0.00     0.138 A 
HETATM   10  C15 UNL     1      23.919   6.675  50.065  1.00  0.00     0.048 A 
HETATM   11  C16 UNL     1      23.968   5.334  50.372  1.00  0.00     0.068 A 
HETATM   12  N4  UNL     1      22.937   4.824  51.000  1.00  0.00    -0.067 NA
HETATM   13  C17 UNL     1      24.729   4.100  50.271  1.00  0.00     0.104 C 
HETATM   14  C18 UNL     1      26.163   4.144  50.027  1.00  0.00     0.105 C 
HETATM   15  N5  UNL     1      26.204   2.828  50.119  1.00  0.00    -0.262 NA
HETATM   16  C19 UNL     1      25.356   2.319  51.124  1.00  0.00     0.079 C 
HETATM   17  C20 UNL     1      24.812   3.417  51.620  1.00  0.00     0.023 C 
HETATM   18  H16 UNL     1      20.810   4.804  52.766  1.00  0.00     0.178 HD
ENDROOT
BRANCH   1  19
HETATM   19  N1  UNL     1      25.922   0.512  52.193  1.00  0.00    -0.369 N 
HETATM   20  H10 UNL     1      26.298  -0.052  51.381  1.00  0.00     0.161 HD
BRANCH  19  21
HETATM   21  C6  UNL     1      26.640   0.433  53.441  1.00  0.00     0.110 A 
HETATM   22  C5  UNL     1      27.336   1.725  53.657  1.00  0.00     0.012 A 
HETATM   23  C4  UNL     1      28.669   1.836  53.777  1.00  0.00    -0.001 A 
HETATM   24  C3  UNL     1      29.527   0.643  53.697  1.00  0.00     0.010 A 
HETATM   25  C2  UNL     1      29.059  -0.580  53.510  1.00  0.00    -0.013 A 
HETATM   26  C1  UNL     1      29.957  -1.758  53.434  1.00  0.00     0.052 C 
HETATM   27  C21 UNL     1      27.612  -0.687  53.390  1.00  0.00     0.186 A 
HETATM   28  O1  UNL     1      27.131  -1.846  53.225  1.00  0.00    -0.290 OA
HETATM   29  C7  UNL     1      25.709   0.130  54.602  1.00  0.00     0.052 C 
ENDBRANCH  19  21
ENDBRANCH   1  19
TORSDOF 2
ENDMDL
MODEL 8
REMARK VINA RESULT:      -8.6      2.951      7.370
REMARK  2 active torsions:
REMARK  status: ('A' for Active; 'I' for Inactive)
REMARK    1  A    between atoms: C6_6  and  N1_8 
REMARK    2  A    between atoms: N1_8  and  C8_9 
ROOT
HETATM    1  C8  UNL     1      22.886   2.677  50.649  1.00  0.00     0.058 C 
HETATM    2  C9  UNL     1      23.902   3.351  50.173  1.00  0.00     0.031 C 
HETATM    3  C10 UNL     1      25.161   3.941  49.769  1.00  0.00    -0.000 C 
HETATM    4  C11 UNL     1      26.408   3.606  50.042  1.00  0.00    -0.007 C 
HETATM    5  C12 UNL     1      26.663   2.435  50.887  1.00  0.00     0.165 C 
HETATM    6  N2  UNL     1      27.246   2.726  52.177  1.00  0.00    -0.219 N 
HETATM    7  C13 UNL     1      27.177   1.779  53.225  1.00  0.00     0.722 A 
HETATM    8  N3  UNL     1      27.776   1.234  54.274  1.00  0.00    -0.075 NA
HETATM    9  C14 UNL     1      27.147   0.275  54.995  1.00  0.00     0.138 A 
HETATM   10  C15 UNL     1      25.882  -0.169  54.682  1.00  0.00     0.048 A 
HETATM   11  C16 UNL     1      25.295   0.419  53.585  1.00  0.00     0.068 A 
HETATM   12  N4  UNL     1      25.986   1.338  52.955  1.00  0.00    -0.067 NA
HETATM   13  C17 UNL     1      24.134   0.455  52.711  1.00  0.00     0.104 C 
HETATM   14  C18 UNL     1      22.857  -0.070  53.172  1.00  0.00     0.105 C 
HETATM   15  N5  UNL     1      22.308   0.310  52.032  1.00  0.00    -0.262 NA
HETATM   16  C19 UNL     1      22.795   1.551  51.573  1.00  0.00     0.079 C 
HETATM   17  C20 UNL     1      23.665   1.880  52.512  1.00  0.00     0.023 C 
HETATM   18  H16 UNL     1      27.760   3.444  52.713  1.00  0.00     0.178 HD
ENDROOT
BRANCH   1  19
HETATM   19  N1  UNL     1      21.479   2.871  50.453  1.00  0.00    -0.369 N 
HETATM   20  H10 UNL     1      20.882   2.802  51.323  1.00  0.00     0.161 HD
BRANCH  19  21
HETATM   21  C6  UNL     1      20.803   3.136  49.207  1.00  0.00     0.110 A 
HETATM   22  C5  UNL     1      21.378   2.245  48.170  1.00  0.00     0.012 A 
HETATM   23  C4  UNL     1      21.981   2.697  47.058  1.00  0.00    -0.001 A 
HETATM   24  C3  UNL     1      22.101   4.142  46.810  1.00  0.00     0.010 A 
HETATM   25  C2  UNL     1      21.637   5.065  47.637  1.00  0.00    -0.013 A 
HETATM   26  C1  UNL     1      21.779   6.514  47.351  1.00  0.00     0.052 C 
HETATM   27  C21 UNL     1      20.980   4.561  48.834  1.00  0.00     0.186 A 
HETATM   28  O1  UNL     1      20.511   5.418  49.639  1.00  0.00    -0.290 OA
HETATM   29  C7  UNL     1      19.306   2.914  49.327  1.00  0.00     0.052 C 
ENDBRANCH  19  21
ENDBRANCH   1  19
TORSDOF 2
ENDMDL
MODEL 9
REMARK VINA RESULT:      -8.5      2.332      7.075
REMARK  2 active torsions:
REMARK  status: ('A' for Active; 'I' for Inactive)
REMARK    1  A    between atoms: C6_6  and  N1_8 
REMARK    2  A    between atoms: N1_8  and  C8_9 
ROOT
HETATM    1  C8  UNL     1      22.507   0.591  52.487  1.00  0.00     0.058 C 
HETATM    2  C9  UNL     1      22.527  -0.332  53.415  1.00  0.00     0.031 C 
HETATM    3  C10 UNL     1      22.754  -1.250  54.511  1.00  0.00    -0.000 C 
HETATM    4  C11 UNL     1      23.719  -1.314  55.409  1.00  0.00    -0.007 C 
HETATM    5  C12 UNL     1      24.789  -0.312  55.378  1.00  0.00     0.165 C 
HETATM    6  N2  UNL     1      26.096  -0.823  55.031  1.00  0.00    -0.219 N 
HETATM    7  C13 UNL     1      27.111   0.053  54.578  1.00  0.00     0.722 A 
HETATM    8  N3  UNL     1      28.403   0.346  54.564  1.00  0.00    -0.075 NA
HETATM    9  C14 UNL     1      28.851   1.414  53.862  1.00  0.00     0.138 A 
HETATM   10  C15 UNL     1      28.006   2.228  53.143  1.00  0.00     0.048 A 
HETATM   11  C16 UNL     1      26.671   1.892  53.184  1.00  0.00     0.068 A 
HETATM   12  N4  UNL     1      26.340   0.840  53.892  1.00  0.00    -0.067 NA
HETATM   13  C17 UNL     1      25.325   2.244  52.766  1.00  0.00     0.104 C 
HETATM   14  C18 UNL     1      25.121   3.103  51.609  1.00  0.00     0.105 C 
HETATM   15  N5  UNL     1      23.816   2.956  51.750  1.00  0.00    -0.262 NA
HETATM   16  C19 UNL     1      23.446   1.649  52.128  1.00  0.00     0.079 C 
HETATM   17  C20 UNL     1      24.613   1.033  52.201  1.00  0.00     0.023 C 
HETATM   18  H16 UNL     1      26.662  -1.685  54.970  1.00  0.00     0.178 HD
ENDROOT
BRANCH   1  19
HETATM   19  N1  UNL     1      21.548   0.833  51.450  1.00  0.00    -0.369 N 
HETATM   20  H10 UNL     1      21.839   0.533  50.478  1.00  0.00     0.161 HD
BRANCH  19  21
HETATM   21  C6  UNL     1      20.250   1.444  51.591  1.00  0.00     0.110 A 
HETATM   22  C5  UNL     1      19.250   0.367  51.786  1.00  0.00     0.012 A 
HETATM   23  C4  UNL     1      18.215   0.158  50.955  1.00  0.00    -0.001 A 
HETATM   24  C3  UNL     1      18.021   1.017  49.776  1.00  0.00     0.010 A 
HETATM   25  C2  UNL     1      18.825   2.021  49.465  1.00  0.00    -0.013 A 
HETATM   26  C1  UNL     1      18.596   2.864  48.267  1.00  0.00     0.052 C 
HETATM   27  C21 UNL     1      19.937   2.240  50.379  1.00  0.00     0.186 A 
HETATM   28  O1  UNL     1      20.716   3.203  50.119  1.00  0.00    -0.290 OA
HETATM   29  C7  UNL     1      20.216   2.418  52.755  1.00  0.00     0.052 C 
ENDBRANCH  19  21
ENDBRANCH   1  19
TORSDOF 2
ENDMDL
