MODEL 1
REMARK VINA RESULT:      -7.8      0.000      0.000
REMARK  6 active torsions:
REMARK  status: ('A' for Active; 'I' for Inactive)
REMARK    1  A    between atoms: C2_2  and  C3_3 
REMARK    2  A    between atoms: C5_5  and  N1_6 
REMARK    3  A    between atoms: N1_6  and  C6_7 
REMARK    4  A    between atoms: C14_19  and  O1_20 
REMARK    5  A    between atoms: C14_19  and  C15_21 
REMARK    6  A    between atoms: C15_21  and  O2_22 
ROOT
HETATM    1  C3  UNL     1      27.621  -0.477  53.092  1.00  0.00    -0.019 C 
HETATM    2  C4  UNL     1      26.565  -0.534  52.282  1.00  0.00     0.044 C 
HETATM    3  C5  UNL     1      26.028   0.824  52.466  1.00  0.00     0.184 A 
HETATM    4  N2  UNL     1      25.264   1.261  51.313  1.00  0.00    -0.275 N 
HETATM    5  N3  UNL     1      25.488   2.386  50.479  1.00  0.00    -0.170 NA
HETATM    6  C12 UNL     1      26.543   3.117  50.741  1.00  0.00     0.254 A 
HETATM    7  N4  UNL     1      27.437   2.798  51.831  1.00  0.00    -0.241 NA
HETATM    8  C13 UNL     1      27.173   1.753  52.580  1.00  0.00     0.108 A 
HETATM    9  C14 UNL     1      27.705   0.909  53.691  1.00  0.00     0.150 C 
HETATM   10  H10 UNL     1      24.454   0.643  51.100  1.00  0.00     0.186 HD
ENDROOT
BRANCH   3  11
HETATM   11  N1  UNL     1      25.180   0.778  53.646  1.00  0.00    -0.354 N 
HETATM   12  H5  UNL     1      25.507   1.345  54.484  1.00  0.00     0.163 HD
BRANCH  11  13
HETATM   13  C6  UNL     1      23.957   0.088  53.888  1.00  0.00     0.031 A 
HETATM   14  C7  UNL     1      23.785  -0.918  54.812  1.00  0.00     0.029 A 
HETATM   15  C8  UNL     1      22.607  -1.591  55.055  1.00  0.00     0.004 A 
HETATM   16  C9  UNL     1      21.492  -1.244  54.321  1.00  0.00     0.019 A 
HETATM   17  C10 UNL     1      21.623  -0.241  53.386  1.00  0.00     0.013 A 
HETATM   18 BR1  UNL     1      20.106   0.267  52.351  1.00  0.00    -0.051 Br
HETATM   19  C11 UNL     1      22.819   0.402  53.178  1.00  0.00     0.048 A 
ENDBRANCH  11  13
ENDBRANCH   3  11
BRANCH   1  20
HETATM   20  C2  UNL     1      28.522  -1.576  53.295  1.00  0.00    -0.016 C 
HETATM   21  C1  UNL     1      28.749  -2.846  53.046  1.00  0.00     0.031 C 
ENDBRANCH   1  20
BRANCH   9  22
HETATM   22  O1  UNL     1      26.964   1.052  54.809  1.00  0.00    -0.376 OA
HETATM   23  H12 UNL     1      26.089   1.514  54.692  1.00  0.00     0.211 HD
ENDBRANCH   9  22
BRANCH   9  24
HETATM   24  C15 UNL     1      29.183   1.176  53.905  1.00  0.00     0.213 C 
BRANCH  24  25
HETATM   25  O2  UNL     1      29.291   2.527  54.290  1.00  0.00    -0.397 OA
HETATM   26  H15 UNL     1      29.764   3.030  53.581  1.00  0.00     0.209 HD
ENDBRANCH  24  25
ENDBRANCH   9  24
TORSDOF 6
ENDMDL
MODEL 2
REMARK VINA RESULT:      -7.4      2.314      3.987
REMARK  6 active torsions:
REMARK  status: ('A' for Active; 'I' for Inactive)
REMARK    1  A    between atoms: C2_2  and  C3_3 
REMARK    2  A    between atoms: C5_5  and  N1_6 
REMARK    3  A    between atoms: N1_6  and  C6_7 
REMARK    4  A    between atoms: C14_19  and  O1_20 
REMARK    5  A    between atoms: C14_19  and  C15_21 
REMARK    6  A    between atoms: C15_21  and  O2_22 
ROOT
HETATM    1  C3  UNL     1      24.492   3.394  52.481  1.00  0.00    -0.019 C 
HETATM    2  C4  UNL     1      24.681   2.839  53.677  1.00  0.00     0.044 C 
HETATM    3  C5  UNL     1      25.629   1.772  53.317  1.00  0.00     0.184 A 
HETATM    4  N2  UNL     1      26.461   1.389  54.443  1.00  0.00    -0.275 N 
HETATM    5  N3  UNL     1      27.873   1.433  54.553  1.00  0.00    -0.170 NA
HETATM    6  C12 UNL     1      28.533   1.921  53.532  1.00  0.00     0.254 A 
HETATM    7  N4  UNL     1      27.856   2.388  52.343  1.00  0.00    -0.241 NA
HETATM    8  C13 UNL     1      26.547   2.310  52.289  1.00  0.00     0.108 A 
HETATM    9  C14 UNL     1      25.357   2.680  51.467  1.00  0.00     0.150 C 
HETATM   10  H10 UNL     1      25.913   1.043  55.257  1.00  0.00     0.186 HD
ENDROOT
BRANCH   3  11
HETATM   11  N1  UNL     1      24.832   0.642  52.869  1.00  0.00    -0.354 N 
HETATM   12  H5  UNL     1      25.127   0.192  51.952  1.00  0.00     0.163 HD
BRANCH  11  13
HETATM   13  C6  UNL     1      23.694   0.015  53.455  1.00  0.00     0.031 A 
HETATM   14  C7  UNL     1      23.723  -0.804  54.561  1.00  0.00     0.029 A 
HETATM   15  C8  UNL     1      22.629  -1.413  55.136  1.00  0.00     0.004 A 
HETATM   16  C9  UNL     1      21.389  -1.199  54.572  1.00  0.00     0.019 A 
HETATM   17  C10 UNL     1      21.318  -0.386  53.463  1.00  0.00     0.013 A 
HETATM   18 BR1  UNL     1      19.623  -0.065  52.653  1.00  0.00    -0.051 Br
HETATM   19  C11 UNL     1      22.437   0.201  52.923  1.00  0.00     0.048 A 
ENDBRANCH  11  13
ENDBRANCH   3  11
BRANCH   1  20
HETATM   20  C2  UNL     1      23.622   4.515  52.258  1.00  0.00    -0.016 C 
HETATM   21  C1  UNL     1      22.383   4.893  52.042  1.00  0.00     0.031 C 
ENDBRANCH   1  20
BRANCH   9  22
HETATM   22  O1  UNL     1      24.768   1.585  50.942  1.00  0.00    -0.376 OA
HETATM   23  H12 UNL     1      23.974   1.243  51.435  1.00  0.00     0.211 HD
ENDBRANCH   9  22
BRANCH   9  24
HETATM   24  C15 UNL     1      25.726   3.726  50.431  1.00  0.00     0.213 C 
BRANCH  24  25
HETATM   25  O2  UNL     1      26.847   3.224  49.741  1.00  0.00    -0.397 OA
HETATM   26  H15 UNL     1      27.539   2.957  50.396  1.00  0.00     0.209 HD
ENDBRANCH  24  25
ENDBRANCH   9  24
TORSDOF 6
ENDMDL
MODEL 3
REMARK VINA RESULT:      -7.2      3.691      5.655
REMARK  6 active torsions:
REMARK  status: ('A' for Active; 'I' for Inactive)
REMARK    1  A    between atoms: C2_2  and  C3_3 
REMARK    2  A    between atoms: C5_5  and  N1_6 
REMARK    3  A    between atoms: N1_6  and  C6_7 
REMARK    4  A    between atoms: C14_19  and  O1_20 
REMARK    5  A    between atoms: C14_19  and  C15_21 
REMARK    6  A    between atoms: C15_21  and  O2_22 
ROOT
HETATM    1  C3  UNL     1      24.227   3.720  50.764  1.00  0.00    -0.019 C 
HETATM    2  C4  UNL     1      23.861   2.439  50.773  1.00  0.00     0.044 C 
HETATM    3  C5  UNL     1      23.092   2.401  52.028  1.00  0.00     0.184 A 
HETATM    4  N2  UNL     1      22.096   1.346  52.016  1.00  0.00    -0.275 N 
HETATM    5  N3  UNL     1      20.690   1.456  52.157  1.00  0.00    -0.170 NA
HETATM    6  C12 UNL     1      20.198   2.665  52.269  1.00  0.00     0.254 A 
HETATM    7  N4  UNL     1      21.047   3.835  52.256  1.00  0.00    -0.241 NA
HETATM    8  C13 UNL     1      22.345   3.673  52.140  1.00  0.00     0.108 A 
HETATM    9  C14 UNL     1      23.634   4.407  51.974  1.00  0.00     0.150 C 
HETATM   10  H10 UNL     1      22.506   0.398  51.885  1.00  0.00     0.186 HD
ENDROOT
BRANCH   3  11
HETATM   11  N1  UNL     1      24.052   2.180  53.097  1.00  0.00    -0.354 N 
HETATM   12  H5  UNL     1      23.975   2.823  53.940  1.00  0.00     0.163 HD
BRANCH  11  13
HETATM   13  C6  UNL     1      25.108   1.231  53.218  1.00  0.00     0.031 A 
HETATM   14  C7  UNL     1      24.981  -0.125  53.018  1.00  0.00     0.029 A 
HETATM   15  C8  UNL     1      25.996  -1.051  53.129  1.00  0.00     0.004 A 
HETATM   16  C9  UNL     1      27.255  -0.603  53.472  1.00  0.00     0.019 A 
HETATM   17  C10 UNL     1      27.423   0.748  53.681  1.00  0.00     0.013 A 
HETATM   18 BR1  UNL     1      29.147   1.406  54.155  1.00  0.00    -0.051 Br
HETATM   19  C11 UNL     1      26.380   1.634  53.557  1.00  0.00     0.048 A 
ENDBRANCH  11  13
ENDBRANCH   3  11
BRANCH   1  20
HETATM   20  C2  UNL     1      25.026   4.308  49.726  1.00  0.00    -0.016 C 
HETATM   21  C1  UNL     1      26.248   4.516  49.292  1.00  0.00     0.031 C 
ENDBRANCH   1  20
BRANCH   9  22
HETATM   22  O1  UNL     1      24.402   4.298  53.078  1.00  0.00    -0.376 OA
HETATM   23  H12 UNL     1      25.385   4.348  52.928  1.00  0.00     0.211 HD
ENDBRANCH   9  22
BRANCH   9  24
HETATM   24  C15 UNL     1      23.383   5.842  51.550  1.00  0.00     0.213 C 
BRANCH  24  25
HETATM   25  O2  UNL     1      24.294   6.637  52.274  1.00  0.00    -0.397 OA
HETATM   26  H15 UNL     1      24.261   6.381  53.229  1.00  0.00     0.209 HD
ENDBRANCH  24  25
ENDBRANCH   9  24
TORSDOF 6
ENDMDL
MODEL 4
REMARK VINA RESULT:      -7.1      3.506      5.511
REMARK  6 active torsions:
REMARK  status: ('A' for Active; 'I' for Inactive)
REMARK    1  A    between atoms: C2_2  and  C3_3 
REMARK    2  A    between atoms: C5_5  and  N1_6 
REMARK    3  A    between atoms: N1_6  and  C6_7 
REMARK    4  A    between atoms: C14_19  and  O1_20 
REMARK    5  A    between atoms: C14_19  and  C15_21 
REMARK    6  A    between atoms: C15_21  and  O2_22 
ROOT
HETATM    1  C3  UNL     1      25.173   4.765  49.697  1.00  0.00    -0.019 C 
HETATM    2  C4  UNL     1      24.862   3.496  49.440  1.00  0.00     0.044 C 
HETATM    3  C5  UNL     1      23.684   3.339  50.308  1.00  0.00     0.184 A 
HETATM    4  N2  UNL     1      22.790   2.306  49.821  1.00  0.00    -0.275 N 
HETATM    5  N3  UNL     1      21.430   2.421  49.441  1.00  0.00    -0.170 NA
HETATM    6  C12 UNL     1      20.901   3.619  49.485  1.00  0.00     0.254 A 
HETATM    7  N4  UNL     1      21.665   4.771  49.908  1.00  0.00    -0.241 NA
HETATM    8  C13 UNL     1      22.917   4.603  50.265  1.00  0.00     0.108 A 
HETATM    9  C14 UNL     1      24.157   5.332  50.664  1.00  0.00     0.150 C 
HETATM   10  H10 UNL     1      23.243   1.371  49.756  1.00  0.00     0.186 HD
ENDROOT
BRANCH   3  11
HETATM   11  N1  UNL     1      24.185   2.994  51.629  1.00  0.00    -0.354 N 
HETATM   12  H5  UNL     1      24.341   3.803  52.300  1.00  0.00     0.163 HD
BRANCH  11  13
HETATM   13  C6  UNL     1      24.517   1.730  52.197  1.00  0.00     0.031 A 
HETATM   14  C7  UNL     1      25.722   1.084  52.041  1.00  0.00     0.029 A 
HETATM   15  C8  UNL     1      26.054  -0.137  52.589  1.00  0.00     0.004 A 
HETATM   16  C9  UNL     1      25.114  -0.785  53.361  1.00  0.00     0.019 A 
HETATM   17  C10 UNL     1      23.894  -0.171  53.540  1.00  0.00     0.013 A 
HETATM   18 BR1  UNL     1      22.567  -1.035  54.601  1.00  0.00    -0.051 Br
HETATM   19  C11 UNL     1      23.608   1.048  52.975  1.00  0.00     0.048 A 
ENDBRANCH  11  13
ENDBRANCH   3  11
BRANCH   1  20
HETATM   20  C2  UNL     1      26.284   5.446  49.095  1.00  0.00    -0.016 C 
HETATM   21  C1  UNL     1      27.495   5.310  48.603  1.00  0.00     0.031 C 
ENDBRANCH   1  20
BRANCH   9  22
HETATM   22  O1  UNL     1      24.465   5.097  51.957  1.00  0.00    -0.376 OA
HETATM   23  H12 UNL     1      24.894   5.852  52.443  1.00  0.00     0.211 HD
ENDBRANCH   9  22
BRANCH   9  24
HETATM   24  C15 UNL     1      24.045   6.807  50.327  1.00  0.00     0.213 C 
BRANCH  24  25
HETATM   25  O2  UNL     1      24.142   7.503  51.547  1.00  0.00    -0.397 OA
HETATM   26  H15 UNL     1      24.983   8.023  51.559  1.00  0.00     0.209 HD
ENDBRANCH  24  25
ENDBRANCH   9  24
TORSDOF 6
ENDMDL
MODEL 5
REMARK VINA RESULT:      -6.4      8.526     11.406
REMARK  6 active torsions:
REMARK  status: ('A' for Active; 'I' for Inactive)
REMARK    1  A    between atoms: C2_2  and  C3_3 
REMARK    2  A    between atoms: C5_5  and  N1_6 
REMARK    3  A    between atoms: N1_6  and  C6_7 
REMARK    4  A    between atoms: C14_19  and  O1_20 
REMARK    5  A    between atoms: C14_19  and  C15_21 
REMARK    6  A    between atoms: C15_21  and  O2_22 
ROOT
HETATM    1  C3  UNL     1      29.983   6.647  48.123  1.00  0.00    -0.019 C 
HETATM    2  C4  UNL     1      29.827   7.639  47.248  1.00  0.00     0.044 C 
HETATM    3  C5  UNL     1      30.978   8.482  47.609  1.00  0.00     0.184 A 
HETATM    4  N2  UNL     1      31.421   9.295  46.492  1.00  0.00    -0.275 N 
HETATM    5  N3  UNL     1      32.690   9.317  45.862  1.00  0.00    -0.170 NA
HETATM    6  C12 UNL     1      33.585   8.467  46.303  1.00  0.00     0.254 A 
HETATM    7  N4  UNL     1      33.297   7.553  47.384  1.00  0.00    -0.241 NA
HETATM    8  C13 UNL     1      32.109   7.587  47.941  1.00  0.00     0.108 A 
HETATM    9  C14 UNL     1      31.232   6.903  48.937  1.00  0.00     0.150 C 
HETATM   10  H10 UNL     1      30.681   9.933  46.133  1.00  0.00     0.186 HD
ENDROOT
BRANCH   3  11
HETATM   11  N1  UNL     1      30.546   9.327  48.710  1.00  0.00    -0.354 N 
HETATM   12  H5  UNL     1      30.754   8.968  49.689  1.00  0.00     0.163 HD
BRANCH  11  13
HETATM   13  C6  UNL     1      29.872  10.582  48.711  1.00  0.00     0.031 A 
HETATM   14  C7  UNL     1      30.464  11.798  48.964  1.00  0.00     0.029 A 
HETATM   15  C8  UNL     1      29.823  13.018  48.965  1.00  0.00     0.004 A 
HETATM   16  C9  UNL     1      28.471  13.046  48.694  1.00  0.00     0.019 A 
HETATM   17  C10 UNL     1      27.840  11.849  48.436  1.00  0.00     0.013 A 
HETATM   18 BR1  UNL     1      25.973  11.846  48.057  1.00  0.00    -0.051 Br
HETATM   19  C11 UNL     1      28.523  10.656  48.446  1.00  0.00     0.048 A 
ENDBRANCH  11  13
ENDBRANCH   3  11
BRANCH   1  20
HETATM   20  C2  UNL     1      29.096   5.521  48.209  1.00  0.00    -0.016 C 
HETATM   21  C1  UNL     1      27.905   5.111  48.581  1.00  0.00     0.031 C 
ENDBRANCH   1  20
BRANCH   9  22
HETATM   22  O1  UNL     1      31.014   7.686  50.014  1.00  0.00    -0.376 OA
HETATM   23  H12 UNL     1      30.529   8.538  49.838  1.00  0.00     0.211 HD
ENDBRANCH   9  22
BRANCH   9  24
HETATM   24  C15 UNL     1      31.784   5.533  49.286  1.00  0.00     0.213 C 
BRANCH  24  25
HETATM   25  O2  UNL     1      31.475   5.313  50.642  1.00  0.00    -0.397 OA
HETATM   26  H15 UNL     1      30.971   6.089  50.991  1.00  0.00     0.209 HD
ENDBRANCH  24  25
ENDBRANCH   9  24
TORSDOF 6
ENDMDL
MODEL 6
REMARK VINA RESULT:      -6.4      7.788     10.225
REMARK  6 active torsions:
REMARK  status: ('A' for Active; 'I' for Inactive)
REMARK    1  A    between atoms: C2_2  and  C3_3 
REMARK    2  A    between atoms: C5_5  and  N1_6 
REMARK    3  A    between atoms: N1_6  and  C6_7 
REMARK    4  A    between atoms: C14_19  and  O1_20 
REMARK    5  A    between atoms: C14_19  and  C15_21 
REMARK    6  A    between atoms: C15_21  and  O2_22 
ROOT
HETATM    1  C3  UNL     1      30.658   9.491  48.142  1.00  0.00    -0.019 C 
HETATM    2  C4  UNL     1      30.244   8.676  49.112  1.00  0.00     0.044 C 
HETATM    3  C5  UNL     1      30.505   7.373  48.480  1.00  0.00     0.184 A 
HETATM    4  N2  UNL     1      30.721   6.330  49.466  1.00  0.00    -0.275 N 
HETATM    5  N3  UNL     1      31.861   5.509  49.648  1.00  0.00    -0.170 NA
HETATM    6  C12 UNL     1      32.885   5.732  48.860  1.00  0.00     0.254 A 
HETATM    7  N4  UNL     1      32.854   6.763  47.849  1.00  0.00    -0.241 NA
HETATM    8  C13 UNL     1      31.766   7.484  47.714  1.00  0.00     0.108 A 
HETATM    9  C14 UNL     1      31.187   8.659  46.996  1.00  0.00     0.150 C 
HETATM   10  H10 UNL     1      29.911   6.199  50.105  1.00  0.00     0.186 HD
ENDROOT
BRANCH   3  11
HETATM   11  N1  UNL     1      29.340   7.066  47.666  1.00  0.00    -0.354 N 
HETATM   12  H5  UNL     1      29.464   7.156  46.613  1.00  0.00     0.163 HD
BRANCH  11  13
HETATM   13  C6  UNL     1      28.027   6.658  48.037  1.00  0.00     0.031 A 
HETATM   14  C7  UNL     1      26.889   7.418  47.885  1.00  0.00     0.029 A 
HETATM   15  C8  UNL     1      25.614   7.032  48.238  1.00  0.00     0.004 A 
HETATM   16  C9  UNL     1      25.439   5.782  48.794  1.00  0.00     0.019 A 
HETATM   17  C10 UNL     1      26.553   4.991  48.962  1.00  0.00     0.013 A 
HETATM   18 BR1  UNL     1      26.353   3.257  49.726  1.00  0.00    -0.051 Br
HETATM   19  C11 UNL     1      27.806   5.418  48.594  1.00  0.00     0.048 A 
ENDBRANCH  11  13
ENDBRANCH   3  11
BRANCH   1  20
HETATM   20  C2  UNL     1      30.618  10.923  48.241  1.00  0.00    -0.016 C 
HETATM   21  C1  UNL     1      30.727  11.952  49.051  1.00  0.00     0.031 C 
ENDBRANCH   1  20
BRANCH   9  22
HETATM   22  O1  UNL     1      30.227   8.275  46.129  1.00  0.00    -0.376 OA
HETATM   23  H12 UNL     1      29.289   8.404  46.437  1.00  0.00     0.211 HD
ENDBRANCH   9  22
BRANCH   9  24
HETATM   24  C15 UNL     1      32.284   9.489  46.356  1.00  0.00     0.213 C 
BRANCH  24  25
HETATM   25  O2  UNL     1      32.974   8.629  45.479  1.00  0.00    -0.397 OA
HETATM   26  H15 UNL     1      33.772   9.097  45.126  1.00  0.00     0.209 HD
ENDBRANCH  24  25
ENDBRANCH   9  24
TORSDOF 6
ENDMDL
MODEL 7
REMARK VINA RESULT:      -6.4      8.001     10.735
REMARK  6 active torsions:
REMARK  status: ('A' for Active; 'I' for Inactive)
REMARK    1  A    between atoms: C2_2  and  C3_3 
REMARK    2  A    between atoms: C5_5  and  N1_6 
REMARK    3  A    between atoms: N1_6  and  C6_7 
REMARK    4  A    between atoms: C14_19  and  O1_20 
REMARK    5  A    between atoms: C14_19  and  C15_21 
REMARK    6  A    between atoms: C15_21  and  O2_22 
ROOT
HETATM    1  C3  UNL     1      28.576   8.736  47.508  1.00  0.00    -0.019 C 
HETATM    2  C4  UNL     1      28.584   7.468  47.102  1.00  0.00     0.044 C 
HETATM    3  C5  UNL     1      28.429   6.784  48.395  1.00  0.00     0.184 A 
HETATM    4  N2  UNL     1      27.819   5.476  48.243  1.00  0.00    -0.275 N 
HETATM    5  N3  UNL     1      26.614   4.991  48.810  1.00  0.00    -0.170 NA
HETATM    6  C12 UNL     1      25.921   5.832  49.538  1.00  0.00     0.254 A 
HETATM    7  N4  UNL     1      26.364   7.190  49.758  1.00  0.00    -0.241 NA
HETATM    8  C13 UNL     1      27.496   7.581  49.221  1.00  0.00     0.108 A 
HETATM    9  C14 UNL     1      28.374   8.770  49.006  1.00  0.00     0.150 C 
HETATM   10  H10 UNL     1      28.366   4.839  47.628  1.00  0.00     0.186 HD
ENDROOT
BRANCH   3  11
HETATM   11  N1  UNL     1      29.762   6.656  48.960  1.00  0.00    -0.354 N 
HETATM   12  H5  UNL     1      29.900   7.054  49.937  1.00  0.00     0.163 HD
BRANCH  11  13
HETATM   13  C6  UNL     1      30.950   6.081  48.423  1.00  0.00     0.031 A 
HETATM   14  C7  UNL     1      31.006   4.912  47.700  1.00  0.00     0.029 A 
HETATM   15  C8  UNL     1      32.148   4.348  47.173  1.00  0.00     0.004 A 
HETATM   16  C9  UNL     1      33.350   4.992  47.378  1.00  0.00     0.019 A 
HETATM   17  C10 UNL     1      33.336   6.166  48.098  1.00  0.00     0.013 A 
HETATM   18 BR1  UNL     1      34.976   7.087  48.403  1.00  0.00    -0.051 Br
HETATM   19  C11 UNL     1      32.171   6.691  48.604  1.00  0.00     0.048 A 
ENDBRANCH  11  13
ENDBRANCH   3  11
BRANCH   1  20
HETATM   20  C2  UNL     1      28.706   9.854  46.616  1.00  0.00    -0.016 C 
HETATM   21  C1  UNL     1      29.532  10.742  46.111  1.00  0.00     0.031 C 
ENDBRANCH   1  20
BRANCH   9  22
HETATM   22  O1  UNL     1      29.524   8.657  49.702  1.00  0.00    -0.376 OA
HETATM   23  H12 UNL     1      30.210   9.355  49.519  1.00  0.00     0.211 HD
ENDBRANCH   9  22
BRANCH   9  24
HETATM   24  C15 UNL     1      27.616  10.053  49.291  1.00  0.00     0.213 C 
BRANCH  24  25
HETATM   25  O2  UNL     1      27.161   9.960  50.621  1.00  0.00    -0.397 OA
HETATM   26  H15 UNL     1      27.530  10.713  51.145  1.00  0.00     0.209 HD
ENDBRANCH  24  25
ENDBRANCH   9  24
TORSDOF 6
ENDMDL
MODEL 8
REMARK VINA RESULT:      -6.3      3.740      6.418
REMARK  6 active torsions:
REMARK  status: ('A' for Active; 'I' for Inactive)
REMARK    1  A    between atoms: C2_2  and  C3_3 
REMARK    2  A    between atoms: C5_5  and  N1_6 
REMARK    3  A    between atoms: N1_6  and  C6_7 
REMARK    4  A    between atoms: C14_19  and  O1_20 
REMARK    5  A    between atoms: C14_19  and  C15_21 
REMARK    6  A    between atoms: C15_21  and  O2_22 
ROOT
HETATM    1  C3  UNL     1      21.803   0.940  50.771  1.00  0.00    -0.019 C 
HETATM    2  C4  UNL     1      22.351  -0.128  51.348  1.00  0.00     0.044 C 
HETATM    3  C5  UNL     1      22.511   0.378  52.721  1.00  0.00     0.184 A 
HETATM    4  N2  UNL     1      22.518  -0.699  53.694  1.00  0.00    -0.275 N 
HETATM    5  N3  UNL     1      21.640  -0.910  54.786  1.00  0.00    -0.170 NA
HETATM    6  C12 UNL     1      20.658  -0.054  54.930  1.00  0.00     0.254 A 
HETATM    7  N4  UNL     1      20.478   1.056  54.023  1.00  0.00    -0.241 NA
HETATM    8  C13 UNL     1      21.331   1.212  53.038  1.00  0.00     0.108 A 
HETATM    9  C14 UNL     1      21.614   2.018  51.814  1.00  0.00     0.150 C 
HETATM   10  H10 UNL     1      23.282  -1.388  53.535  1.00  0.00     0.186 HD
ENDROOT
BRANCH   3  11
HETATM   11  N1  UNL     1      23.774   1.097  52.754  1.00  0.00    -0.354 N 
HETATM   12  H5  UNL     1      23.716   2.154  52.654  1.00  0.00     0.163 HD
BRANCH  11  13
HETATM   13  C6  UNL     1      25.111   0.626  52.898  1.00  0.00     0.031 A 
HETATM   14  C7  UNL     1      25.503  -0.688  52.781  1.00  0.00     0.029 A 
HETATM   15  C8  UNL     1      26.793  -1.155  52.915  1.00  0.00     0.004 A 
HETATM   16  C9  UNL     1      27.792  -0.245  53.191  1.00  0.00     0.019 A 
HETATM   17  C10 UNL     1      27.440   1.081  53.315  1.00  0.00     0.013 A 
HETATM   18 BR1  UNL     1      28.792   2.369  53.696  1.00  0.00    -0.051 Br
HETATM   19  C11 UNL     1      26.139   1.499  53.173  1.00  0.00     0.048 A 
ENDBRANCH  11  13
ENDBRANCH   3  11
BRANCH   1  20
HETATM   20  C2  UNL     1      21.437   0.988  49.383  1.00  0.00    -0.016 C 
HETATM   21  C1  UNL     1      21.729   1.495  48.207  1.00  0.00     0.031 C 
ENDBRANCH   1  20
BRANCH   9  22
HETATM   22  O1  UNL     1      22.706   2.793  51.983  1.00  0.00    -0.376 OA
HETATM   23  H12 UNL     1      22.920   3.039  52.924  1.00  0.00     0.211 HD
ENDBRANCH   9  22
BRANCH   9  24
HETATM   24  C15 UNL     1      20.382   2.794  51.386  1.00  0.00     0.213 C 
BRANCH  24  25
HETATM   25  O2  UNL     1      19.931   3.485  52.528  1.00  0.00    -0.397 OA
HETATM   26  H15 UNL     1      19.574   2.834  53.182  1.00  0.00     0.209 HD
ENDBRANCH  24  25
ENDBRANCH   9  24
TORSDOF 6
ENDMDL
MODEL 9
REMARK VINA RESULT:      -6.2      4.179      6.534
REMARK  6 active torsions:
REMARK  status: ('A' for Active; 'I' for Inactive)
REMARK    1  A    between atoms: C2_2  and  C3_3 
REMARK    2  A    between atoms: C5_5  and  N1_6 
REMARK    3  A    between atoms: N1_6  and  C6_7 
REMARK    4  A    between atoms: C14_19  and  O1_20 
REMARK    5  A    between atoms: C14_19  and  C15_21 
REMARK    6  A    between atoms: C15_21  and  O2_22 
ROOT
HETATM    1  C3  UNL     1      20.309   1.019  51.960  1.00  0.00    -0.019 C 
HETATM    2  C4  UNL     1      21.049   1.679  52.850  1.00  0.00     0.044 C 
HETATM    3  C5  UNL     1      21.957   2.400  51.943  1.00  0.00     0.184 A 
HETATM    4  N2  UNL     1      22.464   3.618  52.546  1.00  0.00    -0.275 N 
HETATM    5  N3  UNL     1      22.327   4.953  52.090  1.00  0.00    -0.170 NA
HETATM    6  C12 UNL     1      21.617   5.140  51.005  1.00  0.00     0.254 A 
HETATM    7  N4  UNL     1      21.003   4.037  50.300  1.00  0.00    -0.241 NA
HETATM    8  C13 UNL     1      21.176   2.820  50.759  1.00  0.00     0.108 A 
HETATM    9  C14 UNL     1      20.763   1.397  50.568  1.00  0.00     0.150 C 
HETATM   10  H10 UNL     1      22.990   3.450  53.428  1.00  0.00     0.186 HD
ENDROOT
BRANCH   3  11
HETATM   11  N1  UNL     1      23.051   1.491  51.642  1.00  0.00    -0.354 N 
HETATM   12  H5  UNL     1      23.097   1.124  50.645  1.00  0.00     0.163 HD
BRANCH  11  13
HETATM   13  C6  UNL     1      24.099   0.990  52.467  1.00  0.00     0.031 A 
HETATM   14  C7  UNL     1      24.023  -0.146  53.240  1.00  0.00     0.029 A 
HETATM   15  C8  UNL     1      25.030  -0.641  54.039  1.00  0.00     0.004 A 
HETATM   16  C9  UNL     1      26.226   0.045  54.085  1.00  0.00     0.019 A 
HETATM   17  C10 UNL     1      26.342   1.188  53.325  1.00  0.00     0.013 A 
HETATM   18 BR1  UNL     1      27.977   2.165  53.361  1.00  0.00    -0.051 Br
HETATM   19  C11 UNL     1      25.309   1.644  52.542  1.00  0.00     0.048 A 
ENDBRANCH  11  13
ENDBRANCH   3  11
BRANCH   1  20
HETATM   20  C2  UNL     1      19.240   0.132  52.323  1.00  0.00    -0.016 C 
HETATM   21  C1  UNL     1      18.862  -0.826  53.140  1.00  0.00     0.031 C 
ENDBRANCH   1  20
BRANCH   9  22
HETATM   22  O1  UNL     1      21.792   0.647  50.121  1.00  0.00    -0.376 OA
HETATM   23  H12 UNL     1      22.611   0.656  50.687  1.00  0.00     0.211 HD
ENDBRANCH   9  22
BRANCH   9  24
HETATM   24  C15 UNL     1      19.526   1.311  49.694  1.00  0.00     0.213 C 
BRANCH  24  25
HETATM   25  O2  UNL     1      19.899   1.798  48.426  1.00  0.00    -0.397 OA
HETATM   26  H15 UNL     1      20.070   1.034  47.822  1.00  0.00     0.209 HD
ENDBRANCH  24  25
ENDBRANCH   9  24
TORSDOF 6
ENDMDL
