MODEL 1
REMARK VINA RESULT:      -8.0      0.000      0.000
REMARK  4 active torsions:
REMARK  status: ('A' for Active; 'I' for Inactive)
REMARK    1  A    between atoms: C1_2  and  C2_3 
REMARK    2  A    between atoms: C2_3  and  N1_4 
REMARK    3  A    between atoms: N1_4  and  C3_5 
REMARK    4  A    between atoms: C9_12  and  N3_13 
ROOT
HETATM    1  C3  UNL     1      23.348   1.704  51.480  1.00  0.00     0.029 A 
HETATM    2  C4  UNL     1      22.037   1.479  51.846  1.00  0.00     0.031 A 
HETATM    3  C5  UNL     1      21.657   0.671  52.900  1.00  0.00     0.035 A 
HETATM    4  C6  UNL     1      22.640   0.034  53.654  1.00  0.00     0.069 A 
HETATM    5  N2  UNL     1      22.315  -0.761  54.687  1.00  0.00    -0.260 NA
HETATM    6  C7  UNL     1      23.306  -1.366  55.399  1.00  0.00     0.119 A 
HETATM    7  C8  UNL     1      24.632  -1.150  55.043  1.00  0.00     0.049 A 
HETATM    8  C9  UNL     1      24.984  -0.333  53.980  1.00  0.00     0.044 A 
HETATM    9  C15 UNL     1      23.950   0.259  53.287  1.00  0.00     0.021 A 
HETATM   10  C16 UNL     1      24.316   1.068  52.234  1.00  0.00     0.045 A 
ENDROOT
BRANCH   8  11
HETATM   11  N3  UNL     1      26.387  -0.194  53.720  1.00  0.00    -0.375 N 
HETATM   12  C10 UNL     1      27.194  -0.522  52.555  1.00  0.00     0.153 C 
HETATM   13  C11 UNL     1      28.449  -1.170  52.989  1.00  0.00     0.032 C 
HETATM   14  C12 UNL     1      29.097  -0.677  54.040  1.00  0.00     0.111 C 
HETATM   15  F1  UNL     1      30.254  -1.345  54.369  1.00  0.00    -0.209 F 
HETATM   16  C13 UNL     1      28.515   0.507  54.719  1.00  0.00     0.162 C 
HETATM   17 CL1  UNL     1      28.838   1.918  53.671  1.00  0.00    -0.116 Cl
HETATM   18  C14 UNL     1      27.019   0.387  54.888  1.00  0.00     0.150 C 
ENDBRANCH   8  11
BRANCH   1  19
HETATM   19  N1  UNL     1      23.697   2.533  50.400  1.00  0.00    -0.384 N 
HETATM   20  H4  UNL     1      23.254   2.376  49.468  1.00  0.00     0.160 HD
BRANCH  19  21
HETATM   21  C2  UNL     1      24.656   3.599  50.551  1.00  0.00     0.189 C 
BRANCH  21  22
HETATM   22  C1  UNL     1      25.925   3.358  49.807  1.00  0.00     0.250 C 
HETATM   23  O1  UNL     1      26.867   3.056  50.549  1.00  0.00    -0.305 OA
ENDBRANCH  21  22
ENDBRANCH  19  21
ENDBRANCH   1  19
TORSDOF 4
ENDMDL
MODEL 2
REMARK VINA RESULT:      -7.5      3.684      5.907
REMARK  4 active torsions:
REMARK  status: ('A' for Active; 'I' for Inactive)
REMARK    1  A    between atoms: C1_2  and  C2_3 
REMARK    2  A    between atoms: C2_3  and  N1_4 
REMARK    3  A    between atoms: N1_4  and  C3_5 
REMARK    4  A    between atoms: C9_12  and  N3_13 
ROOT
HETATM    1  C3  UNL     1      26.040   1.703  53.746  1.00  0.00     0.029 A 
HETATM    2  C4  UNL     1      25.923   0.425  54.251  1.00  0.00     0.031 A 
HETATM    3  C5  UNL     1      24.835  -0.397  54.027  1.00  0.00     0.035 A 
HETATM    4  C6  UNL     1      23.780   0.072  53.248  1.00  0.00     0.069 A 
HETATM    5  N2  UNL     1      22.702  -0.693  53.006  1.00  0.00    -0.260 NA
HETATM    6  C7  UNL     1      21.693  -0.197  52.239  1.00  0.00     0.119 A 
HETATM    7  C8  UNL     1      21.795   1.089  51.722  1.00  0.00     0.049 A 
HETATM    8  C9  UNL     1      22.900   1.891  51.963  1.00  0.00     0.044 A 
HETATM    9  C15 UNL     1      23.899   1.350  52.744  1.00  0.00     0.021 A 
HETATM   10  C16 UNL     1      24.989   2.159  52.973  1.00  0.00     0.045 A 
ENDROOT
BRANCH   8  11
HETATM   11  N3  UNL     1      22.881   3.196  51.369  1.00  0.00    -0.375 N 
HETATM   12  C10 UNL     1      23.532   3.731  50.183  1.00  0.00     0.153 C 
HETATM   13  C11 UNL     1      24.083   5.070  50.483  1.00  0.00     0.032 C 
HETATM   14  C12 UNL     1      23.350   5.922  51.194  1.00  0.00     0.111 C 
HETATM   15  F1  UNL     1      23.944   7.141  51.421  1.00  0.00    -0.209 F 
HETATM   16  C13 UNL     1      22.010   5.473  51.647  1.00  0.00     0.162 C 
HETATM   17 CL1  UNL     1      20.938   5.514  50.218  1.00  0.00    -0.116 Cl
HETATM   18  C14 UNL     1      22.033   4.056  52.171  1.00  0.00     0.150 C 
ENDBRANCH   8  11
BRANCH   1  19
HETATM   19  N1  UNL     1      27.163   2.510  53.995  1.00  0.00    -0.384 N 
HETATM   20  H4  UNL     1      27.072   3.337  54.624  1.00  0.00     0.160 HD
BRANCH  19  21
HETATM   21  C2  UNL     1      28.443   2.221  53.397  1.00  0.00     0.189 C 
BRANCH  21  22
HETATM   22  C1  UNL     1      29.409   1.600  54.348  1.00  0.00     0.250 C 
HETATM   23  O1  UNL     1      29.769   2.375  55.242  1.00  0.00    -0.305 OA
ENDBRANCH  21  22
ENDBRANCH  19  21
ENDBRANCH   1  19
TORSDOF 4
ENDMDL
MODEL 3
REMARK VINA RESULT:      -7.2      3.764      5.748
REMARK  4 active torsions:
REMARK  status: ('A' for Active; 'I' for Inactive)
REMARK    1  A    between atoms: C1_2  and  C2_3 
REMARK    2  A    between atoms: C2_3  and  N1_4 
REMARK    3  A    between atoms: N1_4  and  C3_5 
REMARK    4  A    between atoms: C9_12  and  N3_13 
ROOT
HETATM    1  C3  UNL     1      25.504   0.598  53.371  1.00  0.00     0.029 A 
HETATM    2  C4  UNL     1      25.700  -0.263  54.431  1.00  0.00     0.031 A 
HETATM    3  C5  UNL     1      24.694  -1.005  55.019  1.00  0.00     0.035 A 
HETATM    4  C6  UNL     1      23.394  -0.894  54.529  1.00  0.00     0.069 A 
HETATM    5  N2  UNL     1      22.386  -1.596  55.072  1.00  0.00    -0.260 NA
HETATM    6  C7  UNL     1      21.130  -1.459  54.564  1.00  0.00     0.119 A 
HETATM    7  C8  UNL     1      20.916  -0.596  53.495  1.00  0.00     0.049 A 
HETATM    8  C9  UNL     1      21.946   0.136  52.925  1.00  0.00     0.044 A 
HETATM    9  C15 UNL     1      23.200  -0.033  53.470  1.00  0.00     0.021 A 
HETATM   10  C16 UNL     1      24.212   0.701  52.891  1.00  0.00     0.045 A 
ENDROOT
BRANCH   8  11
HETATM   11  N3  UNL     1      21.590   0.988  51.827  1.00  0.00    -0.375 N 
HETATM   12  C10 UNL     1      21.660   0.793  50.387  1.00  0.00     0.153 C 
HETATM   13  C11 UNL     1      22.183   2.019  49.748  1.00  0.00     0.032 C 
HETATM   14  C12 UNL     1      21.742   3.201  50.167  1.00  0.00     0.111 C 
HETATM   15  F1  UNL     1      22.285   4.283  49.513  1.00  0.00    -0.209 F 
HETATM   16  C13 UNL     1      20.740   3.219  51.261  1.00  0.00     0.162 C 
HETATM   17 CL1  UNL     1      19.179   2.725  50.545  1.00  0.00    -0.116 Cl
HETATM   18  C14 UNL     1      21.080   2.237  52.358  1.00  0.00     0.150 C 
ENDBRANCH   8  11
BRANCH   1  19
HETATM   19  N1  UNL     1      26.553   1.337  52.798  1.00  0.00    -0.384 N 
HETATM   20  H4  UNL     1      26.339   2.060  52.077  1.00  0.00     0.160 HD
BRANCH  19  21
HETATM   21  C2  UNL     1      27.925   1.117  53.184  1.00  0.00     0.189 C 
BRANCH  21  22
HETATM   22  C1  UNL     1      28.635   2.370  53.572  1.00  0.00     0.250 C 
HETATM   23  O1  UNL     1      29.096   2.325  54.718  1.00  0.00    -0.305 OA
ENDBRANCH  21  22
ENDBRANCH  19  21
ENDBRANCH   1  19
TORSDOF 4
ENDMDL
MODEL 4
REMARK VINA RESULT:      -7.2      4.017      6.215
REMARK  4 active torsions:
REMARK  status: ('A' for Active; 'I' for Inactive)
REMARK    1  A    between atoms: C1_2  and  C2_3 
REMARK    2  A    between atoms: C2_3  and  N1_4 
REMARK    3  A    between atoms: N1_4  and  C3_5 
REMARK    4  A    between atoms: C9_12  and  N3_13 
ROOT
HETATM    1  C3  UNL     1      21.455  -0.245  54.129  1.00  0.00     0.029 A 
HETATM    2  C4  UNL     1      22.167  -1.103  54.940  1.00  0.00     0.031 A 
HETATM    3  C5  UNL     1      23.541  -1.242  54.899  1.00  0.00     0.035 A 
HETATM    4  C6  UNL     1      24.273  -0.480  53.991  1.00  0.00     0.069 A 
HETATM    5  N2  UNL     1      25.611  -0.585  53.917  1.00  0.00    -0.260 NA
HETATM    6  C7  UNL     1      26.288   0.178  53.015  1.00  0.00     0.119 A 
HETATM    7  C8  UNL     1      25.585   1.048  52.190  1.00  0.00     0.049 A 
HETATM    8  C9  UNL     1      24.206   1.167  52.254  1.00  0.00     0.044 A 
HETATM    9  C15 UNL     1      23.559   0.377  53.181  1.00  0.00     0.021 A 
HETATM   10  C16 UNL     1      22.189   0.507  53.232  1.00  0.00     0.045 A 
ENDROOT
BRANCH   8  11
HETATM   11  N3  UNL     1      23.604   2.102  51.348  1.00  0.00    -0.375 N 
HETATM   12  C10 UNL     1      22.784   1.910  50.162  1.00  0.00     0.153 C 
HETATM   13  C11 UNL     1      23.231   2.834  49.098  1.00  0.00     0.032 C 
HETATM   14  C12 UNL     1      23.525   4.090  49.419  1.00  0.00     0.111 C 
HETATM   15  F1  UNL     1      23.931   4.874  48.365  1.00  0.00    -0.209 F 
HETATM   16  C13 UNL     1      23.386   4.492  50.841  1.00  0.00     0.162 C 
HETATM   17 CL1  UNL     1      21.637   4.665  51.164  1.00  0.00    -0.116 Cl
HETATM   18  C14 UNL     1      23.932   3.444  51.783  1.00  0.00     0.150 C 
ENDBRANCH   8  11
BRANCH   1  19
HETATM   19  N1  UNL     1      20.055  -0.130  54.199  1.00  0.00    -0.384 N 
HETATM   20  H4  UNL     1      19.605   0.120  55.106  1.00  0.00     0.160 HD
BRANCH  19  21
HETATM   21  C2  UNL     1      19.225  -0.354  53.042  1.00  0.00     0.189 C 
BRANCH  21  22
HETATM   22  C1  UNL     1      18.212  -1.428  53.244  1.00  0.00     0.250 C 
HETATM   23  O1  UNL     1      17.116  -0.992  53.614  1.00  0.00    -0.305 OA
ENDBRANCH  21  22
ENDBRANCH  19  21
ENDBRANCH   1  19
TORSDOF 4
ENDMDL
MODEL 5
REMARK VINA RESULT:      -7.1      3.630      5.603
REMARK  4 active torsions:
REMARK  status: ('A' for Active; 'I' for Inactive)
REMARK    1  A    between atoms: C1_2  and  C2_3 
REMARK    2  A    between atoms: C2_3  and  N1_4 
REMARK    3  A    between atoms: N1_4  and  C3_5 
REMARK    4  A    between atoms: C9_12  and  N3_13 
ROOT
HETATM    1  C3  UNL     1      26.519   2.152  52.116  1.00  0.00     0.029 A 
HETATM    2  C4  UNL     1      27.455   1.517  52.907  1.00  0.00     0.031 A 
HETATM    3  C5  UNL     1      27.149   0.531  53.825  1.00  0.00     0.035 A 
HETATM    4  C6  UNL     1      25.822   0.136  53.979  1.00  0.00     0.069 A 
HETATM    5  N2  UNL     1      25.480  -0.818  54.861  1.00  0.00    -0.260 NA
HETATM    6  C7  UNL     1      24.171  -1.175  54.981  1.00  0.00     0.119 A 
HETATM    7  C8  UNL     1      23.215  -0.545  54.192  1.00  0.00     0.049 A 
HETATM    8  C9  UNL     1      23.553   0.442  53.279  1.00  0.00     0.044 A 
HETATM    9  C15 UNL     1      24.888   0.772  53.189  1.00  0.00     0.021 A 
HETATM   10  C16 UNL     1      25.206   1.754  52.276  1.00  0.00     0.045 A 
ENDROOT
BRANCH   8  11
HETATM   11  N3  UNL     1      22.471   1.009  52.527  1.00  0.00    -0.375 N 
HETATM   12  C10 UNL     1      22.027   2.384  52.356  1.00  0.00     0.153 C 
HETATM   13  C11 UNL     1      20.552   2.442  52.446  1.00  0.00     0.032 C 
HETATM   14  C12 UNL     1      19.835   1.506  51.834  1.00  0.00     0.111 C 
HETATM   15  F1  UNL     1      18.473   1.642  51.973  1.00  0.00    -0.209 F 
HETATM   16  C13 UNL     1      20.564   0.449  51.090  1.00  0.00     0.162 C 
HETATM   17 CL1  UNL     1      21.155   1.193  49.576  1.00  0.00    -0.116 Cl
HETATM   18  C14 UNL     1      21.762  -0.061  51.856  1.00  0.00     0.150 C 
ENDBRANCH   8  11
BRANCH   1  19
HETATM   19  N1  UNL     1      26.868   3.152  51.193  1.00  0.00    -0.384 N 
HETATM   20  H4  UNL     1      27.751   3.691  51.328  1.00  0.00     0.160 HD
BRANCH  19  21
HETATM   21  C2  UNL     1      26.031   3.451  50.058  1.00  0.00     0.189 C 
BRANCH  21  22
HETATM   22  C1  UNL     1      26.562   4.557  49.211  1.00  0.00     0.250 C 
HETATM   23  O1  UNL     1      27.723   4.360  48.835  1.00  0.00    -0.305 OA
ENDBRANCH  21  22
ENDBRANCH  19  21
ENDBRANCH   1  19
TORSDOF 4
ENDMDL
MODEL 6
REMARK VINA RESULT:      -7.1      3.331      5.839
REMARK  4 active torsions:
REMARK  status: ('A' for Active; 'I' for Inactive)
REMARK    1  A    between atoms: C1_2  and  C2_3 
REMARK    2  A    between atoms: C2_3  and  N1_4 
REMARK    3  A    between atoms: N1_4  and  C3_5 
REMARK    4  A    between atoms: C9_12  and  N3_13 
ROOT
HETATM    1  C3  UNL     1      25.956   0.890  53.993  1.00  0.00     0.029 A 
HETATM    2  C4  UNL     1      25.421  -0.298  54.445  1.00  0.00     0.031 A 
HETATM    3  C5  UNL     1      24.180  -0.777  54.074  1.00  0.00     0.035 A 
HETATM    4  C6  UNL     1      23.402  -0.032  53.190  1.00  0.00     0.069 A 
HETATM    5  N2  UNL     1      22.189  -0.461  52.803  1.00  0.00    -0.260 NA
HETATM    6  C7  UNL     1      21.460   0.297  51.938  1.00  0.00     0.119 A 
HETATM    7  C8  UNL     1      21.984   1.498  51.473  1.00  0.00     0.049 A 
HETATM    8  C9  UNL     1      23.234   1.953  51.863  1.00  0.00     0.044 A 
HETATM    9  C15 UNL     1      23.938   1.155  52.739  1.00  0.00     0.021 A 
HETATM   10  C16 UNL     1      25.178   1.622  53.116  1.00  0.00     0.045 A 
ENDROOT
BRANCH   8  11
HETATM   11  N3  UNL     1      23.657   3.207  51.308  1.00  0.00    -0.375 N 
HETATM   12  C10 UNL     1      23.806   4.527  51.901  1.00  0.00     0.153 C 
HETATM   13  C11 UNL     1      23.263   5.547  50.979  1.00  0.00     0.032 C 
HETATM   14  C12 UNL     1      23.527   5.446  49.681  1.00  0.00     0.111 C 
HETATM   15  F1  UNL     1      22.980   6.439  48.902  1.00  0.00    -0.209 F 
HETATM   16  C13 UNL     1      24.361   4.304  49.230  1.00  0.00     0.162 C 
HETATM   17 CL1  UNL     1      26.046   4.676  49.694  1.00  0.00    -0.116 Cl
HETATM   18  C14 UNL     1      23.967   3.012  49.906  1.00  0.00     0.150 C 
ENDBRANCH   8  11
BRANCH   1  19
HETATM   19  N1  UNL     1      27.224   1.346  54.393  1.00  0.00    -0.384 N 
HETATM   20  H4  UNL     1      27.308   1.962  55.231  1.00  0.00     0.160 HD
BRANCH  19  21
HETATM   21  C2  UNL     1      28.416   0.980  53.669  1.00  0.00     0.189 C 
BRANCH  21  22
HETATM   22  C1  UNL     1      29.162  -0.148  54.297  1.00  0.00     0.250 C 
HETATM   23  O1  UNL     1      28.792  -1.255  53.889  1.00  0.00    -0.305 OA
ENDBRANCH  21  22
ENDBRANCH  19  21
ENDBRANCH   1  19
TORSDOF 4
ENDMDL
MODEL 7
REMARK VINA RESULT:      -7.0      4.231      7.165
REMARK  4 active torsions:
REMARK  status: ('A' for Active; 'I' for Inactive)
REMARK    1  A    between atoms: C1_2  and  C2_3 
REMARK    2  A    between atoms: C2_3  and  N1_4 
REMARK    3  A    between atoms: N1_4  and  C3_5 
REMARK    4  A    between atoms: C9_12  and  N3_13 
ROOT
HETATM    1  C3  UNL     1      24.658   0.276  52.928  1.00  0.00     0.029 A 
HETATM    2  C4  UNL     1      26.011   0.118  52.712  1.00  0.00     0.031 A 
HETATM    3  C5  UNL     1      26.772   0.966  51.931  1.00  0.00     0.035 A 
HETATM    4  C6  UNL     1      26.158   2.054  51.314  1.00  0.00     0.069 A 
HETATM    5  N2  UNL     1      26.861   2.903  50.546  1.00  0.00    -0.260 NA
HETATM    6  C7  UNL     1      26.223   3.954  49.961  1.00  0.00     0.119 A 
HETATM    7  C8  UNL     1      24.859   4.127  50.168  1.00  0.00     0.049 A 
HETATM    8  C9  UNL     1      24.121   3.260  50.958  1.00  0.00     0.044 A 
HETATM    9  C15 UNL     1      24.806   2.210  51.531  1.00  0.00     0.021 A 
HETATM   10  C16 UNL     1      24.058   1.358  52.313  1.00  0.00     0.045 A 
ENDROOT
BRANCH   8  11
HETATM   11  N3  UNL     1      22.723   3.553  51.091  1.00  0.00    -0.375 N 
HETATM   12  C10 UNL     1      21.963   4.183  52.160  1.00  0.00     0.153 C 
HETATM   13  C11 UNL     1      20.711   3.431  52.386  1.00  0.00     0.032 C 
HETATM   14  C12 UNL     1      20.017   3.007  51.334  1.00  0.00     0.111 C 
HETATM   15  F1  UNL     1      18.868   2.318  51.642  1.00  0.00    -0.209 F 
HETATM   16  C13 UNL     1      20.547   3.318  49.983  1.00  0.00     0.162 C 
HETATM   17 CL1  UNL     1      20.223   5.050  49.684  1.00  0.00    -0.116 Cl
HETATM   18  C14 UNL     1      22.040   3.103  49.895  1.00  0.00     0.150 C 
ENDBRANCH   8  11
BRANCH   1  19
HETATM   19  N1  UNL     1      23.915  -0.608  53.730  1.00  0.00    -0.384 N 
HETATM   20  H4  UNL     1      24.361  -1.038  54.570  1.00  0.00     0.160 HD
BRANCH  19  21
HETATM   21  C2  UNL     1      22.547  -0.938  53.416  1.00  0.00     0.189 C 
BRANCH  21  22
HETATM   22  C1  UNL     1      21.710  -1.184  54.624  1.00  0.00     0.250 C 
HETATM   23  O1  UNL     1      22.248  -1.946  55.435  1.00  0.00    -0.305 OA
ENDBRANCH  21  22
ENDBRANCH  19  21
ENDBRANCH   1  19
TORSDOF 4
ENDMDL
MODEL 8
REMARK VINA RESULT:      -6.9      2.605      4.526
REMARK  4 active torsions:
REMARK  status: ('A' for Active; 'I' for Inactive)
REMARK    1  A    between atoms: C1_2  and  C2_3 
REMARK    2  A    between atoms: C2_3  and  N1_4 
REMARK    3  A    between atoms: N1_4  and  C3_5 
REMARK    4  A    between atoms: C9_12  and  N3_13 
ROOT
HETATM    1  C3  UNL     1      22.024   1.243  51.366  1.00  0.00     0.029 A 
HETATM    2  C4  UNL     1      21.578   2.102  50.384  1.00  0.00     0.031 A 
HETATM    3  C5  UNL     1      22.396   2.968  49.685  1.00  0.00     0.035 A 
HETATM    4  C6  UNL     1      23.760   2.992  49.972  1.00  0.00     0.069 A 
HETATM    5  N2  UNL     1      24.591   3.819  49.316  1.00  0.00    -0.260 NA
HETATM    6  C7  UNL     1      25.917   3.812  49.626  1.00  0.00     0.119 A 
HETATM    7  C8  UNL     1      26.384   2.952  50.614  1.00  0.00     0.049 A 
HETATM    8  C9  UNL     1      25.538   2.093  51.298  1.00  0.00     0.044 A 
HETATM    9  C15 UNL     1      24.204   2.133  50.953  1.00  0.00     0.021 A 
HETATM   10  C16 UNL     1      23.378   1.274  51.643  1.00  0.00     0.045 A 
ENDROOT
BRANCH   8  11
HETATM   11  N3  UNL     1      26.148   1.257  52.292  1.00  0.00    -0.375 N 
HETATM   12  C10 UNL     1      26.442  -0.167  52.311  1.00  0.00     0.153 C 
HETATM   13  C11 UNL     1      26.081  -0.729  53.630  1.00  0.00     0.032 C 
HETATM   14  C12 UNL     1      26.390  -0.044  54.726  1.00  0.00     0.111 C 
HETATM   15  F1  UNL     1      26.016  -0.644  55.905  1.00  0.00    -0.209 F 
HETATM   16  C13 UNL     1      27.087   1.256  54.558  1.00  0.00     0.162 C 
HETATM   17 CL1  UNL     1      28.783   0.885  54.133  1.00  0.00    -0.116 Cl
HETATM   18  C14 UNL     1      26.495   2.076  53.436  1.00  0.00     0.150 C 
ENDBRANCH   8  11
BRANCH   1  19
HETATM   19  N1  UNL     1      21.161   0.375  52.057  1.00  0.00    -0.384 N 
HETATM   20  H4  UNL     1      20.412  -0.129  51.534  1.00  0.00     0.160 HD
BRANCH  19  21
HETATM   21  C2  UNL     1      21.285   0.167  53.478  1.00  0.00     0.189 C 
BRANCH  21  22
HETATM   22  C1  UNL     1      21.705  -1.218  53.835  1.00  0.00     0.250 C 
HETATM   23  O1  UNL     1      21.344  -1.553  54.969  1.00  0.00    -0.305 OA
ENDBRANCH  21  22
ENDBRANCH  19  21
ENDBRANCH   1  19
TORSDOF 4
ENDMDL
MODEL 9
REMARK VINA RESULT:      -6.9      2.359      4.179
REMARK  4 active torsions:
REMARK  status: ('A' for Active; 'I' for Inactive)
REMARK    1  A    between atoms: C1_2  and  C2_3 
REMARK    2  A    between atoms: C2_3  and  N1_4 
REMARK    3  A    between atoms: N1_4  and  C3_5 
REMARK    4  A    between atoms: C9_12  and  N3_13 
ROOT
HETATM    1  C3  UNL     1      25.864   4.539  49.591  1.00  0.00     0.029 A 
HETATM    2  C4  UNL     1      24.793   5.157  48.980  1.00  0.00     0.031 A 
HETATM    3  C5  UNL     1      23.484   4.732  49.102  1.00  0.00     0.035 A 
HETATM    4  C6  UNL     1      23.204   3.613  49.883  1.00  0.00     0.069 A 
HETATM    5  N2  UNL     1      21.945   3.165  50.027  1.00  0.00    -0.260 NA
HETATM    6  C7  UNL     1      21.714   2.068  50.799  1.00  0.00     0.119 A 
HETATM    7  C8  UNL     1      22.783   1.433  51.422  1.00  0.00     0.049 A 
HETATM    8  C9  UNL     1      24.086   1.883  51.282  1.00  0.00     0.044 A 
HETATM    9  C15 UNL     1      24.275   2.996  50.492  1.00  0.00     0.021 A 
HETATM   10  C16 UNL     1      25.576   3.430  50.364  1.00  0.00     0.045 A 
ENDROOT
BRANCH   8  11
HETATM   11  N3  UNL     1      25.095   1.138  51.978  1.00  0.00    -0.375 N 
HETATM   12  C10 UNL     1      26.536   1.052  51.794  1.00  0.00     0.153 C 
HETATM   13  C11 UNL     1      26.964  -0.359  51.904  1.00  0.00     0.032 C 
HETATM   14  C12 UNL     1      26.442  -1.117  52.862  1.00  0.00     0.111 C 
HETATM   15  F1  UNL     1      26.901  -2.413  52.886  1.00  0.00    -0.209 F 
HETATM   16  C13 UNL     1      25.450  -0.495  53.774  1.00  0.00     0.162 C 
HETATM   17 CL1  UNL     1      26.363   0.553  54.897  1.00  0.00    -0.116 Cl
HETATM   18  C14 UNL     1      24.460   0.371  53.031  1.00  0.00     0.150 C 
ENDBRANCH   8  11
BRANCH   1  19
HETATM   19  N1  UNL     1      27.183   5.000  49.444  1.00  0.00    -0.384 N 
HETATM   20  H4  UNL     1      27.949   4.552  49.994  1.00  0.00     0.160 HD
BRANCH  19  21
HETATM   21  C2  UNL     1      27.504   6.084  48.548  1.00  0.00     0.189 C 
BRANCH  21  22
HETATM   22  C1  UNL     1      28.925   6.073  48.098  1.00  0.00     0.250 C 
HETATM   23  O1  UNL     1      29.494   4.999  48.327  1.00  0.00    -0.305 OA
ENDBRANCH  21  22
ENDBRANCH  19  21
ENDBRANCH   1  19
TORSDOF 4
ENDMDL
