MODEL 1
REMARK VINA RESULT:      -7.0      0.000      0.000
REMARK  4 active torsions:
REMARK  status: ('A' for Active; 'I' for Inactive)
REMARK    1  A    between atoms: O1_2  and  C2_3 
REMARK    2  A    between atoms: C7_10  and  N3_11 
REMARK    3  A    between atoms: N3_11  and  C8_12 
REMARK    4  A    between atoms: C13_19  and  N4_20 
ROOT
HETATM    1  C2  UNL     1      22.109   2.190  50.481  1.00  0.00     0.069 C 
HETATM    2  C3  UNL     1      22.199   0.980  51.009  1.00  0.00     0.052 C 
HETATM    3  C4  UNL     1      21.817   0.313  52.253  1.00  0.00     0.041 A 
HETATM    4  C5  UNL     1      20.601  -0.105  52.736  1.00  0.00     0.074 A 
HETATM    5  N1  UNL     1      20.571  -0.680  53.945  1.00  0.00    -0.241 NA
HETATM    6  C6  UNL     1      21.634  -0.887  54.737  1.00  0.00     0.235 A 
HETATM    7  N2  UNL     1      22.864  -0.514  54.351  1.00  0.00    -0.224 NA
HETATM    8  C7  UNL     1      22.903   0.075  53.114  1.00  0.00     0.139 A 
HETATM    9  C9  UNL     1      19.264  -0.066  52.187  1.00  0.00     0.056 C 
HETATM   10  C10 UNL     1      18.659   0.982  51.664  1.00  0.00     0.137 C 
HETATM   11  O2  UNL     1      19.768   1.784  51.897  1.00  0.00    -0.363 OA
HETATM   12  C11 UNL     1      19.579   3.155  51.958  1.00  0.00     0.176 C 
HETATM   13  C12 UNL     1      20.894   3.867  51.899  1.00  0.00     0.058 C 
HETATM   14  C13 UNL     1      21.671   3.566  50.628  1.00  0.00     0.138 C 
ENDROOT
BRANCH  14  15
HETATM   15  N4  UNL     1      22.690   4.556  50.526  1.00  0.00    -0.399 N 
HETATM   16  C14 UNL     1      22.327   5.867  50.162  1.00  0.00     0.147 C 
HETATM   17  C15 UNL     1      23.548   6.484  49.461  1.00  0.00     0.291 C 
HETATM   18  N5  UNL     1      24.623   6.449  50.425  1.00  0.00     0.087 N 
HETATM   19  C16 UNL     1      25.748   7.267  50.029  1.00  0.00     0.310 C 
HETATM   20  C17 UNL     1      24.987   5.084  50.687  1.00  0.00     0.291 C 
HETATM   21  C18 UNL     1      23.797   4.434  51.407  1.00  0.00     0.147 C 
ENDBRANCH  14  15
BRANCH   1  22
HETATM   22  O1  UNL     1      22.697   2.179  49.189  1.00  0.00    -0.358 OA
HETATM   23  C1  UNL     1      21.833   1.715  48.167  1.00  0.00     0.209 C 
ENDBRANCH   1  22
BRANCH   8  24
HETATM   24  N3  UNL     1      24.204   0.476  52.636  1.00  0.00    -0.349 N 
HETATM   25  H6  UNL     1      24.413   1.250  51.996  1.00  0.00     0.163 HD
BRANCH  24  26
HETATM   26  C8  UNL     1      25.389  -0.263  53.079  1.00  0.00     0.346 C 
HETATM   27  F1  UNL     1      26.239  -0.467  51.983  1.00  0.00    -0.234 F 
ENDBRANCH  24  26
ENDBRANCH   8  24
TORSDOF 4
ENDMDL
MODEL 2
REMARK VINA RESULT:      -6.9      2.590      5.414
REMARK  4 active torsions:
REMARK  status: ('A' for Active; 'I' for Inactive)
REMARK    1  A    between atoms: O1_2  and  C2_3 
REMARK    2  A    between atoms: C7_10  and  N3_11 
REMARK    3  A    between atoms: N3_11  and  C8_12 
REMARK    4  A    between atoms: C13_19  and  N4_20 
ROOT
HETATM    1  C2  UNL     1      23.628   2.331  52.669  1.00  0.00     0.069 C 
HETATM    2  C3  UNL     1      22.986   2.945  51.689  1.00  0.00     0.052 C 
HETATM    3  C4  UNL     1      22.162   2.575  50.538  1.00  0.00     0.041 A 
HETATM    4  C5  UNL     1      20.869   2.125  50.441  1.00  0.00     0.074 A 
HETATM    5  N1  UNL     1      20.392   1.846  49.220  1.00  0.00    -0.241 NA
HETATM    6  C6  UNL     1      21.073   1.969  48.071  1.00  0.00     0.235 A 
HETATM    7  N2  UNL     1      22.343   2.402  48.064  1.00  0.00    -0.224 NA
HETATM    8  C7  UNL     1      22.838   2.690  49.310  1.00  0.00     0.139 A 
HETATM    9  C9  UNL     1      19.841   1.880  51.428  1.00  0.00     0.056 C 
HETATM   10  C10 UNL     1      19.966   1.177  52.536  1.00  0.00     0.137 C 
HETATM   11  O2  UNL     1      21.297   0.902  52.254  1.00  0.00    -0.363 OA
HETATM   12  C11 UNL     1      21.877  -0.200  52.860  1.00  0.00     0.176 C 
HETATM   13  C12 UNL     1      23.365  -0.163  52.697  1.00  0.00     0.058 C 
HETATM   14  C13 UNL     1      23.994   1.079  53.304  1.00  0.00     0.138 C 
ENDROOT
BRANCH  14  15
HETATM   15  N4  UNL     1      25.391   0.821  53.410  1.00  0.00    -0.399 N 
HETATM   16  C14 UNL     1      25.836  -0.124  54.355  1.00  0.00     0.147 C 
HETATM   17  C15 UNL     1      27.262   0.292  54.756  1.00  0.00     0.291 C 
HETATM   18  N5  UNL     1      28.040   0.274  53.538  1.00  0.00     0.087 N 
HETATM   19  C16 UNL     1      29.461   0.341  53.790  1.00  0.00     0.310 C 
HETATM   20  C17 UNL     1      27.576   1.311  52.659  1.00  0.00     0.291 C 
HETATM   21  C18 UNL     1      26.158   0.925  52.219  1.00  0.00     0.147 C 
ENDBRANCH  14  15
BRANCH   1  22
HETATM   22  O1  UNL     1      24.260   3.302  53.490  1.00  0.00    -0.358 OA
HETATM   23  C1  UNL     1      23.843   4.631  53.236  1.00  0.00     0.209 C 
ENDBRANCH   1  22
BRANCH   8  24
HETATM   24  N3  UNL     1      24.193   3.182  49.363  1.00  0.00    -0.349 N 
HETATM   25  H6  UNL     1      25.032   2.650  49.615  1.00  0.00     0.163 HD
BRANCH  24  26
HETATM   26  C8  UNL     1      24.458   4.584  49.030  1.00  0.00     0.346 C 
HETATM   27  F1  UNL     1      25.838   4.758  48.845  1.00  0.00    -0.234 F 
ENDBRANCH  24  26
ENDBRANCH   8  24
TORSDOF 4
ENDMDL
MODEL 3
REMARK VINA RESULT:      -6.8      2.252      3.264
REMARK  4 active torsions:
REMARK  status: ('A' for Active; 'I' for Inactive)
REMARK    1  A    between atoms: O1_2  and  C2_3 
REMARK    2  A    between atoms: C7_10  and  N3_11 
REMARK    3  A    between atoms: N3_11  and  C8_12 
REMARK    4  A    between atoms: C13_19  and  N4_20 
ROOT
HETATM    1  C2  UNL     1      22.374   2.355  50.640  1.00  0.00     0.069 C 
HETATM    2  C3  UNL     1      23.517   1.747  50.913  1.00  0.00     0.052 C 
HETATM    3  C4  UNL     1      24.265   1.335  52.101  1.00  0.00     0.041 A 
HETATM    4  C5  UNL     1      24.075   0.312  52.997  1.00  0.00     0.074 A 
HETATM    5  N1  UNL     1      24.938   0.203  54.016  1.00  0.00    -0.241 NA
HETATM    6  C6  UNL     1      25.984   1.013  54.242  1.00  0.00     0.235 A 
HETATM    7  N2  UNL     1      26.251   2.041  53.420  1.00  0.00    -0.224 NA
HETATM    8  C7  UNL     1      25.372   2.158  52.375  1.00  0.00     0.139 A 
HETATM    9  C9  UNL     1      23.093  -0.745  53.082  1.00  0.00     0.056 C 
HETATM   10  C10 UNL     1      21.783  -0.609  53.013  1.00  0.00     0.137 C 
HETATM   11  O2  UNL     1      21.898   0.765  52.853  1.00  0.00    -0.363 OA
HETATM   12  C11 UNL     1      20.802   1.552  53.169  1.00  0.00     0.176 C 
HETATM   13  C12 UNL     1      20.990   2.943  52.648  1.00  0.00     0.058 C 
HETATM   14  C13 UNL     1      21.168   2.988  51.140  1.00  0.00     0.138 C 
ENDROOT
BRANCH  14  15
HETATM   15  N4  UNL     1      20.967   4.342  50.745  1.00  0.00    -0.399 N 
HETATM   16  C14 UNL     1      19.705   4.725  50.253  1.00  0.00     0.147 C 
HETATM   17  C15 UNL     1      19.944   5.904  49.294  1.00  0.00     0.291 C 
HETATM   18  N5  UNL     1      20.574   6.938  50.083  1.00  0.00     0.087 N 
HETATM   19  C16 UNL     1      20.584   8.217  49.409  1.00  0.00     0.310 C 
HETATM   20  C17 UNL     1      21.883   6.504  50.483  1.00  0.00     0.291 C 
HETATM   21  C18 UNL     1      21.689   5.336  51.459  1.00  0.00     0.147 C 
ENDBRANCH  14  15
BRANCH   1  22
HETATM   22  O1  UNL     1      22.225   2.452  49.231  1.00  0.00    -0.358 OA
HETATM   23  C1  UNL     1      21.542   1.357  48.647  1.00  0.00     0.209 C 
ENDBRANCH   1  22
BRANCH   8  24
HETATM   24  N3  UNL     1      25.623   3.232  51.444  1.00  0.00    -0.349 N 
HETATM   25  H6  UNL     1      25.059   4.079  51.316  1.00  0.00     0.163 HD
BRANCH  24  26
HETATM   26  C8  UNL     1      26.793   3.160  50.566  1.00  0.00     0.346 C 
HETATM   27  F1  UNL     1      26.362   3.094  49.233  1.00  0.00    -0.234 F 
ENDBRANCH  24  26
ENDBRANCH   8  24
TORSDOF 4
ENDMDL
MODEL 4
REMARK VINA RESULT:      -6.8      2.538      4.472
REMARK  4 active torsions:
REMARK  status: ('A' for Active; 'I' for Inactive)
REMARK    1  A    between atoms: O1_2  and  C2_3 
REMARK    2  A    between atoms: C7_10  and  N3_11 
REMARK    3  A    between atoms: N3_11  and  C8_12 
REMARK    4  A    between atoms: C13_19  and  N4_20 
ROOT
HETATM    1  C2  UNL     1      24.053   4.082  51.700  1.00  0.00     0.069 C 
HETATM    2  C3  UNL     1      23.652   3.246  52.643  1.00  0.00     0.052 C 
HETATM    3  C4  UNL     1      23.821   1.831  52.976  1.00  0.00     0.041 A 
HETATM    4  C5  UNL     1      24.881   1.129  53.493  1.00  0.00     0.074 A 
HETATM    5  N1  UNL     1      24.733  -0.190  53.671  1.00  0.00    -0.241 NA
HETATM    6  C6  UNL     1      23.629  -0.896  53.385  1.00  0.00     0.235 A 
HETATM    7  N2  UNL     1      22.540  -0.298  52.877  1.00  0.00    -0.224 NA
HETATM    8  C7  UNL     1      22.684   1.053  52.693  1.00  0.00     0.139 A 
HETATM    9  C9  UNL     1      26.203   1.528  53.924  1.00  0.00     0.056 C 
HETATM   10  C10 UNL     1      27.063   2.262  53.246  1.00  0.00     0.137 C 
HETATM   11  O2  UNL     1      26.179   2.380  52.182  1.00  0.00    -0.363 OA
HETATM   12  C11 UNL     1      26.697   2.691  50.936  1.00  0.00     0.176 C 
HETATM   13  C12 UNL     1      25.599   3.082  49.996  1.00  0.00     0.058 C 
HETATM   14  C13 UNL     1      24.811   4.288  50.480  1.00  0.00     0.138 C 
ENDROOT
BRANCH  14  15
HETATM   15  N4  UNL     1      24.071   4.769  49.362  1.00  0.00    -0.399 N 
HETATM   16  C14 UNL     1      24.586   5.850  48.622  1.00  0.00     0.147 C 
HETATM   17  C15 UNL     1      23.378   6.583  48.013  1.00  0.00     0.291 C 
HETATM   18  N5  UNL     1      22.698   5.613  47.186  1.00  0.00     0.087 N 
HETATM   19  C16 UNL     1      21.725   6.222  46.308  1.00  0.00     0.310 C 
HETATM   20  C17 UNL     1      22.137   4.585  48.018  1.00  0.00     0.291 C 
HETATM   21  C18 UNL     1      23.313   3.814  48.632  1.00  0.00     0.147 C 
ENDBRANCH  14  15
BRANCH   1  22
HETATM   22  O1  UNL     1      23.519   5.371  51.965  1.00  0.00    -0.358 OA
HETATM   23  C1  UNL     1      22.105   5.428  51.927  1.00  0.00     0.209 C 
ENDBRANCH   1  22
BRANCH   8  24
HETATM   24  N3  UNL     1      21.537   1.755  52.170  1.00  0.00    -0.349 N 
HETATM   25  H6  UNL     1      21.000   2.492  52.639  1.00  0.00     0.163 HD
BRANCH  24  26
HETATM   26  C8  UNL     1      21.042   1.420  50.832  1.00  0.00     0.346 C 
HETATM   27  F1  UNL     1      22.127   1.070  50.016  1.00  0.00    -0.234 F 
ENDBRANCH  24  26
ENDBRANCH   8  24
TORSDOF 4
ENDMDL
MODEL 5
REMARK VINA RESULT:      -6.7      7.378     10.841
REMARK  4 active torsions:
REMARK  status: ('A' for Active; 'I' for Inactive)
REMARK    1  A    between atoms: O1_2  and  C2_3 
REMARK    2  A    between atoms: C7_10  and  N3_11 
REMARK    3  A    between atoms: N3_11  and  C8_12 
REMARK    4  A    between atoms: C13_19  and  N4_20 
ROOT
HETATM    1  C2  UNL     1      30.026   8.120  47.297  1.00  0.00     0.069 C 
HETATM    2  C3  UNL     1      28.711   8.230  47.384  1.00  0.00     0.052 C 
HETATM    3  C4  UNL     1      27.721   8.587  48.399  1.00  0.00     0.041 A 
HETATM    4  C5  UNL     1      27.363   9.793  48.949  1.00  0.00     0.074 A 
HETATM    5  N1  UNL     1      26.413   9.795  49.894  1.00  0.00    -0.241 NA
HETATM    6  C6  UNL     1      25.773   8.711  50.357  1.00  0.00     0.235 A 
HETATM    7  N2  UNL     1      26.053   7.488  49.880  1.00  0.00    -0.224 NA
HETATM    8  C7  UNL     1      27.024   7.479  48.912  1.00  0.00     0.139 A 
HETATM    9  C9  UNL     1      27.807  11.148  48.711  1.00  0.00     0.056 C 
HETATM   10  C10 UNL     1      29.055  11.573  48.677  1.00  0.00     0.137 C 
HETATM   11  O2  UNL     1      29.534  10.295  48.934  1.00  0.00    -0.363 OA
HETATM   12  C11 UNL     1      30.808  10.172  49.464  1.00  0.00     0.176 C 
HETATM   13  C12 UNL     1      31.272   8.751  49.382  1.00  0.00     0.058 C 
HETATM   14  C13 UNL     1      31.315   8.226  47.956  1.00  0.00     0.138 C 
ENDROOT
BRANCH  14  15
HETATM   15  N4  UNL     1      32.099   7.038  47.981  1.00  0.00    -0.399 N 
HETATM   16  C14 UNL     1      33.502   7.152  48.025  1.00  0.00     0.147 C 
HETATM   17  C15 UNL     1      34.069   5.891  47.351  1.00  0.00     0.291 C 
HETATM   18  N5  UNL     1      33.575   4.771  48.118  1.00  0.00     0.087 N 
HETATM   19  C16 UNL     1      34.261   3.539  47.802  1.00  0.00     0.310 C 
HETATM   20  C17 UNL     1      32.150   4.676  47.962  1.00  0.00     0.291 C 
HETATM   21  C18 UNL     1      31.541   5.910  48.641  1.00  0.00     0.147 C 
ENDBRANCH  14  15
BRANCH   1  22
HETATM   22  O1  UNL     1      30.374   7.718  45.981  1.00  0.00    -0.358 OA
HETATM   23  C1  UNL     1      30.658   8.794  45.105  1.00  0.00     0.209 C 
ENDBRANCH   1  22
BRANCH   8  24
HETATM   24  N3  UNL     1      27.351   6.193  48.345  1.00  0.00    -0.349 N 
HETATM   25  H6  UNL     1      27.993   6.009  47.567  1.00  0.00     0.163 HD
BRANCH  24  26
HETATM   26  C8  UNL     1      26.732   4.987  48.901  1.00  0.00     0.346 C 
HETATM   27  F1  UNL     1      27.559   3.885  48.638  1.00  0.00    -0.234 F 
ENDBRANCH  24  26
ENDBRANCH   8  24
TORSDOF 4
ENDMDL
MODEL 6
REMARK VINA RESULT:      -6.6      2.463      7.023
REMARK  4 active torsions:
REMARK  status: ('A' for Active; 'I' for Inactive)
REMARK    1  A    between atoms: O1_2  and  C2_3 
REMARK    2  A    between atoms: C7_10  and  N3_11 
REMARK    3  A    between atoms: N3_11  and  C8_12 
REMARK    4  A    between atoms: C13_19  and  N4_20 
ROOT
HETATM    1  C2  UNL     1      23.730   2.805  50.210  1.00  0.00     0.069 C 
HETATM    2  C3  UNL     1      23.594   4.024  49.716  1.00  0.00     0.052 C 
HETATM    3  C4  UNL     1      24.188   5.345  49.918  1.00  0.00     0.041 A 
HETATM    4  C5  UNL     1      25.406   5.869  49.561  1.00  0.00     0.074 A 
HETATM    5  N1  UNL     1      25.673   7.134  49.915  1.00  0.00    -0.241 NA
HETATM    6  C6  UNL     1      24.847   7.943  50.595  1.00  0.00     0.235 A 
HETATM    7  N2  UNL     1      23.635   7.521  50.987  1.00  0.00    -0.224 NA
HETATM    8  C7  UNL     1      23.355   6.228  50.628  1.00  0.00     0.139 A 
HETATM    9  C9  UNL     1      26.530   5.325  48.833  1.00  0.00     0.056 C 
HETATM   10  C10 UNL     1      27.131   4.173  49.059  1.00  0.00     0.137 C 
HETATM   11  O2  UNL     1      26.271   3.891  50.113  1.00  0.00    -0.363 OA
HETATM   12  C11 UNL     1      26.688   2.976  51.066  1.00  0.00     0.176 C 
HETATM   13  C12 UNL     1      25.538   2.565  51.932  1.00  0.00     0.058 C 
HETATM   14  C13 UNL     1      24.406   1.926  51.145  1.00  0.00     0.138 C 
ENDROOT
BRANCH  14  15
HETATM   15  N4  UNL     1      23.572   1.265  52.091  1.00  0.00    -0.399 N 
HETATM   16  C14 UNL     1      24.133   0.265  52.909  1.00  0.00     0.147 C 
HETATM   17  C15 UNL     1      22.995  -0.707  53.262  1.00  0.00     0.291 C 
HETATM   18  N5  UNL     1      21.995   0.080  53.947  1.00  0.00     0.087 N 
HETATM   19  C16 UNL     1      21.008  -0.739  54.613  1.00  0.00     0.310 C 
HETATM   20  C17 UNL     1      21.417   1.023  53.031  1.00  0.00     0.291 C 
HETATM   21  C18 UNL     1      22.520   2.027  52.666  1.00  0.00     0.147 C 
ENDBRANCH  14  15
BRANCH   1  22
HETATM   22  O1  UNL     1      22.817   1.935  49.557  1.00  0.00    -0.358 OA
HETATM   23  C1  UNL     1      21.864   2.600  48.748  1.00  0.00     0.209 C 
ENDBRANCH   1  22
BRANCH   8  24
HETATM   24  N3  UNL     1      22.055   5.727  51.003  1.00  0.00    -0.349 N 
HETATM   25  H6  UNL     1      21.850   5.024  51.721  1.00  0.00     0.163 HD
BRANCH  24  26
HETATM   26  C8  UNL     1      20.865   6.240  50.320  1.00  0.00     0.346 C 
HETATM   27  F1  UNL     1      20.023   5.167  49.997  1.00  0.00    -0.234 F 
ENDBRANCH  24  26
ENDBRANCH   8  24
TORSDOF 4
ENDMDL
MODEL 7
REMARK VINA RESULT:      -6.6      2.422      5.364
REMARK  4 active torsions:
REMARK  status: ('A' for Active; 'I' for Inactive)
REMARK    1  A    between atoms: O1_2  and  C2_3 
REMARK    2  A    between atoms: C7_10  and  N3_11 
REMARK    3  A    between atoms: N3_11  and  C8_12 
REMARK    4  A    between atoms: C13_19  and  N4_20 
ROOT
HETATM    1  C2  UNL     1      22.447   2.971  51.661  1.00  0.00     0.069 C 
HETATM    2  C3  UNL     1      23.477   2.586  52.396  1.00  0.00     0.052 C 
HETATM    3  C4  UNL     1      24.653   1.730  52.245  1.00  0.00     0.041 A 
HETATM    4  C5  UNL     1      25.834   1.903  51.567  1.00  0.00     0.074 A 
HETATM    5  N1  UNL     1      26.729   0.907  51.601  1.00  0.00    -0.241 NA
HETATM    6  C6  UNL     1      26.573  -0.259  52.247  1.00  0.00     0.235 A 
HETATM    7  N2  UNL     1      25.453  -0.520  52.938  1.00  0.00    -0.224 NA
HETATM    8  C7  UNL     1      24.533   0.495  52.908  1.00  0.00     0.139 A 
HETATM    9  C9  UNL     1      26.361   2.997  50.782  1.00  0.00     0.056 C 
HETATM   10  C10 UNL     1      25.746   3.631  49.803  1.00  0.00     0.137 C 
HETATM   11  O2  UNL     1      24.617   2.836  49.950  1.00  0.00    -0.363 OA
HETATM   12  C11 UNL     1      23.750   2.732  48.875  1.00  0.00     0.176 C 
HETATM   13  C12 UNL     1      22.458   2.109  49.305  1.00  0.00     0.058 C 
HETATM   14  C13 UNL     1      21.751   2.905  50.390  1.00  0.00     0.138 C 
ENDROOT
BRANCH  14  15
HETATM   15  N4  UNL     1      20.410   2.428  50.439  1.00  0.00    -0.399 N 
HETATM   16  C14 UNL     1      19.367   3.296  50.062  1.00  0.00     0.147 C 
HETATM   17  C15 UNL     1      18.119   2.849  50.841  1.00  0.00     0.291 C 
HETATM   18  N5  UNL     1      17.874   1.479  50.453  1.00  0.00     0.087 N 
HETATM   19  C16 UNL     1      16.567   1.014  50.858  1.00  0.00     0.310 C 
HETATM   20  C17 UNL     1      18.940   0.647  50.938  1.00  0.00     0.291 C 
HETATM   21  C18 UNL     1      20.206   1.048  50.169  1.00  0.00     0.147 C 
ENDBRANCH  14  15
BRANCH   1  22
HETATM   22  O1  UNL     1      21.630   3.844  52.427  1.00  0.00    -0.358 OA
HETATM   23  C1  UNL     1      21.825   5.217  52.139  1.00  0.00     0.209 C 
ENDBRANCH   1  22
BRANCH   8  24
HETATM   24  N3  UNL     1      23.316   0.280  53.654  1.00  0.00    -0.349 N 
HETATM   25  H6  UNL     1      22.952   0.860  54.416  1.00  0.00     0.163 HD
BRANCH  24  26
HETATM   26  C8  UNL     1      22.473  -0.873  53.330  1.00  0.00     0.346 C 
HETATM   27  F1  UNL     1      21.953  -0.713  52.038  1.00  0.00    -0.234 F 
ENDBRANCH  24  26
ENDBRANCH   8  24
TORSDOF 4
ENDMDL
MODEL 8
REMARK VINA RESULT:      -6.4     11.133     12.948
REMARK  4 active torsions:
REMARK  status: ('A' for Active; 'I' for Inactive)
REMARK    1  A    between atoms: O1_2  and  C2_3 
REMARK    2  A    between atoms: C7_10  and  N3_11 
REMARK    3  A    between atoms: N3_11  and  C8_12 
REMARK    4  A    between atoms: C13_19  and  N4_20 
ROOT
HETATM    1  C2  UNL     1      33.756   7.723  46.647  1.00  0.00     0.069 C 
HETATM    2  C3  UNL     1      34.195   6.553  47.082  1.00  0.00     0.052 C 
HETATM    3  C4  UNL     1      33.846   5.142  46.925  1.00  0.00     0.041 A 
HETATM    4  C5  UNL     1      34.017   4.263  45.883  1.00  0.00     0.074 A 
HETATM    5  N1  UNL     1      33.563   3.012  46.037  1.00  0.00    -0.241 NA
HETATM    6  C6  UNL     1      32.949   2.535  47.130  1.00  0.00     0.235 A 
HETATM    7  N2  UNL     1      32.737   3.317  48.200  1.00  0.00    -0.224 NA
HETATM    8  C7  UNL     1      33.200   4.599  48.050  1.00  0.00     0.139 A 
HETATM    9  C9  UNL     1      34.626   4.398  44.579  1.00  0.00     0.056 C 
HETATM   10  C10 UNL     1      34.390   5.347  43.695  1.00  0.00     0.137 C 
HETATM   11  O2  UNL     1      33.471   5.955  44.540  1.00  0.00    -0.363 OA
HETATM   12  C11 UNL     1      32.525   6.796  43.976  1.00  0.00     0.176 C 
HETATM   13  C12 UNL     1      31.835   7.593  45.039  1.00  0.00     0.058 C 
HETATM   14  C13 UNL     1      32.793   8.454  45.846  1.00  0.00     0.138 C 
ENDROOT
BRANCH  14  15
HETATM   15  N4  UNL     1      31.998   9.407  46.544  1.00  0.00    -0.399 N 
HETATM   16  C14 UNL     1      31.787  10.672  45.962  1.00  0.00     0.147 C 
HETATM   17  C15 UNL     1      31.565  11.659  47.120  1.00  0.00     0.291 C 
HETATM   18  N5  UNL     1      30.410  11.175  47.842  1.00  0.00     0.087 N 
HETATM   19  C16 UNL     1      29.888  12.154  48.769  1.00  0.00     0.310 C 
HETATM   20  C17 UNL     1      30.728   9.922  48.468  1.00  0.00     0.291 C 
HETATM   21  C18 UNL     1      30.938   8.900  47.343  1.00  0.00     0.147 C 
ENDBRANCH  14  15
BRANCH   1  22
HETATM   22  O1  UNL     1      34.567   8.755  47.191  1.00  0.00    -0.358 OA
HETATM   23  C1  UNL     1      35.430   8.323  48.227  1.00  0.00     0.209 C 
ENDBRANCH   1  22
BRANCH   8  24
HETATM   24  N3  UNL     1      33.020   5.481  49.178  1.00  0.00    -0.349 N 
HETATM   25  H6  UNL     1      33.754   5.856  49.788  1.00  0.00     0.163 HD
BRANCH  24  26
HETATM   26  C8  UNL     1      31.669   5.920  49.535  1.00  0.00     0.346 C 
HETATM   27  F1  UNL     1      30.839   5.811  48.410  1.00  0.00    -0.234 F 
ENDBRANCH  24  26
ENDBRANCH   8  24
TORSDOF 4
ENDMDL
MODEL 9
REMARK VINA RESULT:      -6.3      2.089      5.993
REMARK  4 active torsions:
REMARK  status: ('A' for Active; 'I' for Inactive)
REMARK    1  A    between atoms: O1_2  and  C2_3 
REMARK    2  A    between atoms: C7_10  and  N3_11 
REMARK    3  A    between atoms: N3_11  and  C8_12 
REMARK    4  A    between atoms: C13_19  and  N4_20 
ROOT
HETATM    1  C2  UNL     1      20.897   3.040  50.995  1.00  0.00     0.069 C 
HETATM    2  C3  UNL     1      22.044   3.655  51.232  1.00  0.00     0.052 C 
HETATM    3  C4  UNL     1      23.422   3.596  50.745  1.00  0.00     0.041 A 
HETATM    4  C5  UNL     1      24.002   4.021  49.575  1.00  0.00     0.074 A 
HETATM    5  N1  UNL     1      25.313   3.802  49.410  1.00  0.00    -0.241 NA
HETATM    6  C6  UNL     1      26.120   3.199  50.295  1.00  0.00     0.235 A 
HETATM    7  N2  UNL     1      25.646   2.750  51.467  1.00  0.00    -0.224 NA
HETATM    8  C7  UNL     1      24.304   2.971  51.644  1.00  0.00     0.139 A 
HETATM    9  C9  UNL     1      23.477   4.703  48.414  1.00  0.00     0.056 C 
HETATM   10  C10 UNL     1      22.406   4.368  47.721  1.00  0.00     0.137 C 
HETATM   11  O2  UNL     1      22.167   3.280  48.550  1.00  0.00    -0.363 OA
HETATM   12  C11 UNL     1      21.391   2.244  48.057  1.00  0.00     0.176 C 
HETATM   13  C12 UNL     1      20.981   1.325  49.166  1.00  0.00     0.058 C 
HETATM   14  C13 UNL     1      20.176   2.028  50.246  1.00  0.00     0.138 C 
ENDROOT
BRANCH  14  15
HETATM   15  N4  UNL     1      19.552   1.008  51.020  1.00  0.00    -0.399 N 
HETATM   16  C14 UNL     1      18.377   0.407  50.529  1.00  0.00     0.147 C 
HETATM   17  C15 UNL     1      17.575  -0.061  51.755  1.00  0.00     0.291 C 
HETATM   18  N5  UNL     1      18.427  -0.991  52.459  1.00  0.00     0.087 N 
HETATM   19  C16 UNL     1      17.710  -1.750  53.458  1.00  0.00     0.310 C 
HETATM   20  C17 UNL     1      19.562  -0.291  52.994  1.00  0.00     0.291 C 
HETATM   21  C18 UNL     1      20.403   0.178  51.798  1.00  0.00     0.147 C 
ENDBRANCH  14  15
BRANCH   1  22
HETATM   22  O1  UNL     1      19.893   3.588  51.837  1.00  0.00    -0.358 OA
HETATM   23  C1  UNL     1      18.836   4.220  51.138  1.00  0.00     0.209 C 
ENDBRANCH   1  22
BRANCH   8  24
HETATM   24  N3  UNL     1      23.742   2.529  52.897  1.00  0.00    -0.349 N 
HETATM   25  H6  UNL     1      23.184   3.088  53.552  1.00  0.00     0.163 HD
BRANCH  24  26
HETATM   26  C8  UNL     1      23.957   1.147  53.332  1.00  0.00     0.346 C 
HETATM   27  F1  UNL     1      23.624   0.279  52.282  1.00  0.00    -0.234 F 
ENDBRANCH  24  26
ENDBRANCH   8  24
TORSDOF 4
ENDMDL
