MODEL 1
REMARK VINA RESULT:      -8.2      0.000      0.000
REMARK  1 active torsions:
REMARK  status: ('A' for Active; 'I' for Inactive)
REMARK    1  A    between atoms: C8_8  and  O1_9 
ROOT
HETATM    1  C1  UNL     1      25.882  -0.104  52.078  1.00  0.00     0.011 C 
HETATM    2  C2  UNL     1      25.209   0.379  53.162  1.00  0.00    -0.031 C 
HETATM    3  C3  UNL     1      26.016   1.541  53.738  1.00  0.00     0.010 C 
HETATM    4  C4  UNL     1      25.246   2.853  53.613  1.00  0.00     0.005 C 
HETATM    5  C5  UNL     1      25.045   3.078  52.159  1.00  0.00     0.027 C 
HETATM    6  C6  UNL     1      24.110   4.175  51.760  1.00  0.00    -0.028 C 
HETATM    7  C7  UNL     1      23.921   5.370  51.097  1.00  0.00     0.001 C 
HETATM    8  C8  UNL     1      22.431   5.588  51.361  1.00  0.00     0.148 C 
HETATM    9  C10 UNL     1      21.648   4.443  50.673  1.00  0.00    -0.016 C 
HETATM   10  C11 UNL     1      22.566   3.885  49.796  1.00  0.00     0.040 C 
HETATM   11  C12 UNL     1      23.387   3.203  48.858  1.00  0.00     0.035 C 
HETATM   12  C13 UNL     1      22.603   2.109  48.438  1.00  0.00     0.016 C 
HETATM   13  C14 UNL     1      21.235   1.365  48.691  1.00  0.00     0.086 C 
HETATM   14  N1  UNL     1      20.518   1.128  49.683  1.00  0.00    -0.284 NA
HETATM   15  C15 UNL     1      20.535   1.353  51.042  1.00  0.00     0.200 C 
HETATM   16  C16 UNL     1      19.593   2.144  51.778  1.00  0.00     0.044 C 
HETATM   17  C17 UNL     1      19.721   3.606  51.994  1.00  0.00     0.004 C 
HETATM   18  C18 UNL     1      20.094   4.402  50.828  1.00  0.00     0.008 C 
HETATM   19  N2  UNL     1      20.654  -0.038  51.586  1.00  0.00    -0.170 NA
HETATM   20  N3  UNL     1      19.523  -0.259  52.508  1.00  0.00    -0.201 NA
HETATM   21  C19 UNL     1      20.866  -0.340  52.824  1.00  0.00     0.326 A 
HETATM   22  C20 UNL     1      21.458  -1.330  53.626  1.00  0.00     0.355 A 
HETATM   23  N4  UNL     1      21.568   0.139  53.886  1.00  0.00     0.137 N 
HETATM   24  C21 UNL     1      22.821   0.744  53.851  1.00  0.00     0.278 C 
HETATM   25  C22 UNL     1      23.897  -0.254  53.458  1.00  0.00     0.040 C 
HETATM   26  H26 UNL     1      18.998  -1.134  52.294  1.00  0.00     0.145 HD
ENDROOT
BRANCH   8  27
HETATM   27  O1  UNL     1      22.055   6.758  50.729  1.00  0.00    -0.386 OA
HETATM   28  C9  UNL     1      23.074   7.657  50.497  1.00  0.00     0.202 C 
ENDBRANCH   8  27
TORSDOF 1
ENDMDL
MODEL 2
REMARK VINA RESULT:      -7.9     10.797     12.980
REMARK  1 active torsions:
REMARK  status: ('A' for Active; 'I' for Inactive)
REMARK    1  A    between atoms: C8_8  and  O1_9 
ROOT
HETATM    1  C1  UNL     1      35.070   3.531  47.259  1.00  0.00     0.011 C 
HETATM    2  C2  UNL     1      34.219   3.358  46.206  1.00  0.00    -0.031 C 
HETATM    3  C3  UNL     1      33.106   2.411  46.651  1.00  0.00     0.010 C 
HETATM    4  C4  UNL     1      31.756   3.123  46.658  1.00  0.00     0.005 C 
HETATM    5  C5  UNL     1      31.876   4.226  47.646  1.00  0.00     0.027 C 
HETATM    6  C6  UNL     1      30.772   5.233  47.682  1.00  0.00    -0.028 C 
HETATM    7  C7  UNL     1      29.770   5.849  48.404  1.00  0.00     0.001 C 
HETATM    8  C8  UNL     1      29.238   6.819  47.350  1.00  0.00     0.148 C 
HETATM    9  C10 UNL     1      30.367   7.821  47.005  1.00  0.00    -0.016 C 
HETATM   10  C11 UNL     1      31.279   7.671  48.040  1.00  0.00     0.040 C 
HETATM   11  C12 UNL     1      32.307   7.630  49.020  1.00  0.00     0.035 C 
HETATM   12  C13 UNL     1      33.320   8.461  48.498  1.00  0.00     0.016 C 
HETATM   13  C14 UNL     1      33.729   9.312  47.234  1.00  0.00     0.086 C 
HETATM   14  N1  UNL     1      33.579   9.208  46.002  1.00  0.00    -0.284 NA
HETATM   15  C15 UNL     1      33.024   8.322  45.104  1.00  0.00     0.200 C 
HETATM   16  C16 UNL     1      31.922   8.590  44.226  1.00  0.00     0.044 C 
HETATM   17  C17 UNL     1      30.498   8.403  44.596  1.00  0.00     0.004 C 
HETATM   18  C18 UNL     1      30.100   8.903  45.910  1.00  0.00     0.008 C 
HETATM   19  N2  UNL     1      34.231   7.831  44.363  1.00  0.00    -0.170 NA
HETATM   20  N3  UNL     1      34.012   8.088  42.927  1.00  0.00    -0.201 NA
HETATM   21  C19 UNL     1      34.241   6.858  43.515  1.00  0.00     0.326 A 
HETATM   22  C20 UNL     1      35.082   5.853  43.007  1.00  0.00     0.355 A 
HETATM   23  N4  UNL     1      33.637   5.652  43.337  1.00  0.00     0.137 N 
HETATM   24  C21 UNL     1      33.286   4.742  44.329  1.00  0.00     0.278 C 
HETATM   25  C22 UNL     1      34.521   4.143  44.981  1.00  0.00     0.040 C 
HETATM   26  H26 UNL     1      34.810   8.595  42.486  1.00  0.00     0.145 HD
ENDROOT
BRANCH   8  27
HETATM   27  O1  UNL     1      28.220   7.556  47.924  1.00  0.00    -0.386 OA
HETATM   28  C9  UNL     1      27.234   6.815  48.542  1.00  0.00     0.202 C 
ENDBRANCH   8  27
TORSDOF 1
ENDMDL
MODEL 3
REMARK VINA RESULT:      -7.3      3.503      5.810
REMARK  1 active torsions:
REMARK  status: ('A' for Active; 'I' for Inactive)
REMARK    1  A    between atoms: C8_8  and  O1_9 
ROOT
HETATM    1  C1  UNL     1      19.819   1.916  51.774  1.00  0.00     0.011 C 
HETATM    2  C2  UNL     1      21.113   1.688  51.408  1.00  0.00    -0.031 C 
HETATM    3  C3  UNL     1      21.115   0.605  50.331  1.00  0.00     0.010 C 
HETATM    4  C4  UNL     1      21.622   1.159  49.002  1.00  0.00     0.005 C 
HETATM    5  C5  UNL     1      20.669   2.230  48.610  1.00  0.00     0.027 C 
HETATM    6  C6  UNL     1      21.059   3.103  47.462  1.00  0.00    -0.028 C 
HETATM    7  C7  UNL     1      20.772   3.573  46.196  1.00  0.00     0.001 C 
HETATM    8  C8  UNL     1      21.956   4.517  45.988  1.00  0.00     0.148 C 
HETATM    9  C10 UNL     1      21.856   5.653  47.035  1.00  0.00    -0.016 C 
HETATM   10  C11 UNL     1      20.553   5.567  47.503  1.00  0.00     0.040 C 
HETATM   11  C12 UNL     1      19.258   5.605  48.086  1.00  0.00     0.035 C 
HETATM   12  C13 UNL     1      19.365   6.564  49.113  1.00  0.00     0.016 C 
HETATM   13  C14 UNL     1      20.387   7.504  49.862  1.00  0.00     0.086 C 
HETATM   14  N1  UNL     1      21.584   7.431  50.199  1.00  0.00    -0.284 NA
HETATM   15  C15 UNL     1      22.619   6.524  50.131  1.00  0.00     0.200 C 
HETATM   16  C16 UNL     1      23.849   6.700  49.416  1.00  0.00     0.044 C 
HETATM   17  C17 UNL     1      24.043   6.339  47.990  1.00  0.00     0.004 C 
HETATM   18  C18 UNL     1      22.979   6.739  47.072  1.00  0.00     0.008 C 
HETATM   19  N2  UNL     1      22.846   6.202  51.577  1.00  0.00    -0.170 NA
HETATM   20  N3  UNL     1      24.261   6.487  51.884  1.00  0.00    -0.201 NA
HETATM   21  C19 UNL     1      23.621   5.269  52.020  1.00  0.00     0.326 A 
HETATM   22  C20 UNL     1      23.767   4.387  53.104  1.00  0.00     0.355 A 
HETATM   23  N4  UNL     1      24.006   4.010  51.676  1.00  0.00     0.137 N 
HETATM   24  C21 UNL     1      23.213   3.030  51.089  1.00  0.00     0.278 C 
HETATM   25  C22 UNL     1      22.140   2.549  52.052  1.00  0.00     0.040 C 
HETATM   26  H26 UNL     1      24.372   7.098  52.722  1.00  0.00     0.145 HD
ENDROOT
BRANCH   8  27
HETATM   27  O1  UNL     1      21.813   5.111  44.748  1.00  0.00    -0.386 OA
HETATM   28  C9  UNL     1      20.858   4.545  43.931  1.00  0.00     0.202 C 
ENDBRANCH   8  27
TORSDOF 1
ENDMDL
MODEL 4
REMARK VINA RESULT:      -7.1     10.149     12.281
REMARK  1 active torsions:
REMARK  status: ('A' for Active; 'I' for Inactive)
REMARK    1  A    between atoms: C8_8  and  O1_9 
ROOT
HETATM    1  C1  UNL     1      32.475   6.349  42.967  1.00  0.00     0.011 C 
HETATM    2  C2  UNL     1      33.499   6.566  43.842  1.00  0.00    -0.031 C 
HETATM    3  C3  UNL     1      34.204   7.857  43.432  1.00  0.00     0.010 C 
HETATM    4  C4  UNL     1      34.049   8.928  44.509  1.00  0.00     0.005 C 
HETATM    5  C5  UNL     1      32.591   9.188  44.627  1.00  0.00     0.027 C 
HETATM    6  C6  UNL     1      32.139  10.027  45.779  1.00  0.00    -0.028 C 
HETATM    7  C7  UNL     1      31.506  11.172  46.218  1.00  0.00     0.001 C 
HETATM    8  C8  UNL     1      31.618  10.975  47.730  1.00  0.00     0.148 C 
HETATM    9  C10 UNL     1      30.806   9.714  48.112  1.00  0.00    -0.016 C 
HETATM   10  C11 UNL     1      30.011   9.475  47.000  1.00  0.00     0.040 C 
HETATM   11  C12 UNL     1      29.140   9.095  45.944  1.00  0.00     0.035 C 
HETATM   12  C13 UNL     1      28.595   7.865  46.365  1.00  0.00     0.016 C 
HETATM   13  C14 UNL     1      28.671   6.774  47.502  1.00  0.00     0.086 C 
HETATM   14  N1  UNL     1      29.569   6.292  48.219  1.00  0.00    -0.284 NA
HETATM   15  C15 UNL     1      30.930   6.423  48.388  1.00  0.00     0.200 C 
HETATM   16  C16 UNL     1      31.592   6.889  49.572  1.00  0.00     0.044 C 
HETATM   17  C17 UNL     1      31.878   8.316  49.860  1.00  0.00     0.004 C 
HETATM   18  C18 UNL     1      30.791   9.257  49.606  1.00  0.00     0.008 C 
HETATM   19  N2  UNL     1      31.429   5.078  47.954  1.00  0.00    -0.170 NA
HETATM   20  N3  UNL     1      32.214   4.508  49.066  1.00  0.00    -0.201 NA
HETATM   21  C19 UNL     1      32.669   4.761  47.784  1.00  0.00     0.326 A 
HETATM   22  C20 UNL     1      33.490   3.909  47.027  1.00  0.00     0.355 A 
HETATM   23  N4  UNL     1      33.819   5.334  47.337  1.00  0.00     0.137 N 
HETATM   24  C21 UNL     1      33.941   6.247  46.294  1.00  0.00     0.278 C 
HETATM   25  C22 UNL     1      33.627   5.593  44.959  1.00  0.00     0.040 C 
HETATM   26  H26 UNL     1      31.911   3.542  49.315  1.00  0.00     0.145 HD
ENDROOT
BRANCH   8  27
HETATM   27  O1  UNL     1      30.996  12.045  48.345  1.00  0.00    -0.386 OA
HETATM   28  C9  UNL     1      30.119  12.753  47.550  1.00  0.00     0.202 C 
ENDBRANCH   8  27
TORSDOF 1
ENDMDL
MODEL 5
REMARK VINA RESULT:      -7.1      2.093      2.869
REMARK  1 active torsions:
REMARK  status: ('A' for Active; 'I' for Inactive)
REMARK    1  A    between atoms: C8_8  and  O1_9 
ROOT
HETATM    1  C1  UNL     1      24.713   2.081  51.334  1.00  0.00     0.011 C 
HETATM    2  C2  UNL     1      23.686   2.340  52.195  1.00  0.00    -0.031 C 
HETATM    3  C3  UNL     1      24.105   3.502  53.093  1.00  0.00     0.010 C 
HETATM    4  C4  UNL     1      23.221   4.723  52.852  1.00  0.00     0.005 C 
HETATM    5  C5  UNL     1      23.427   5.109  51.432  1.00  0.00     0.027 C 
HETATM    6  C6  UNL     1      22.500   6.134  50.862  1.00  0.00    -0.028 C 
HETATM    7  C7  UNL     1      22.341   7.375  50.280  1.00  0.00     0.001 C 
HETATM    8  C8  UNL     1      20.824   7.386  50.088  1.00  0.00     0.148 C 
HETATM    9  C10 UNL     1      20.457   6.258  49.094  1.00  0.00    -0.016 C 
HETATM   10  C11 UNL     1      21.665   5.926  48.499  1.00  0.00     0.040 C 
HETATM   11  C12 UNL     1      22.818   5.469  47.805  1.00  0.00     0.035 C 
HETATM   12  C13 UNL     1      22.364   4.356  47.068  1.00  0.00     0.016 C 
HETATM   13  C14 UNL     1      21.109   3.434  46.819  1.00  0.00     0.086 C 
HETATM   14  N1  UNL     1      20.174   2.991  47.514  1.00  0.00    -0.284 NA
HETATM   15  C15 UNL     1      19.756   3.039  48.826  1.00  0.00     0.200 C 
HETATM   16  C16 UNL     1      18.532   3.615  49.300  1.00  0.00     0.044 C 
HETATM   17  C17 UNL     1      18.372   5.042  49.673  1.00  0.00     0.004 C 
HETATM   18  C18 UNL     1      18.951   6.019  48.755  1.00  0.00     0.008 C 
HETATM   19  N2  UNL     1      19.913   1.612  49.255  1.00  0.00    -0.170 NA
HETATM   20  N3  UNL     1      18.606   1.147  49.758  1.00  0.00    -0.201 NA
HETATM   21  C19 UNL     1      19.793   1.179  50.466  1.00  0.00     0.326 A 
HETATM   22  C20 UNL     1      20.262   0.168  51.322  1.00  0.00     0.355 A 
HETATM   23  N4  UNL     1      20.072   1.594  51.732  1.00  0.00     0.137 N 
HETATM   24  C21 UNL     1      21.174   2.338  52.139  1.00  0.00     0.278 C 
HETATM   25  C22 UNL     1      22.454   1.528  52.013  1.00  0.00     0.040 C 
HETATM   26  H26 UNL     1      18.304   0.251  49.316  1.00  0.00     0.145 HD
ENDROOT
BRANCH   8  27
HETATM   27  O1  UNL     1      20.482   8.577  49.476  1.00  0.00    -0.386 OA
HETATM   28  C9  UNL     1      19.545   9.335  50.146  1.00  0.00     0.202 C 
ENDBRANCH   8  27
TORSDOF 1
ENDMDL
MODEL 6
REMARK VINA RESULT:      -7.1     10.864     13.530
REMARK  1 active torsions:
REMARK  status: ('A' for Active; 'I' for Inactive)
REMARK    1  A    between atoms: C8_8  and  O1_9 
ROOT
HETATM    1  C1  UNL     1      28.062   8.131  45.724  1.00  0.00     0.011 C 
HETATM    2  C2  UNL     1      28.398   8.406  47.018  1.00  0.00    -0.031 C 
HETATM    3  C3  UNL     1      28.021   7.195  47.870  1.00  0.00     0.010 C 
HETATM    4  C4  UNL     1      29.263   6.544  48.471  1.00  0.00     0.005 C 
HETATM    5  C5  UNL     1      30.089   6.089  47.323  1.00  0.00     0.027 C 
HETATM    6  C6  UNL     1      31.478   5.625  47.622  1.00  0.00    -0.028 C 
HETATM    7  C7  UNL     1      32.406   4.605  47.586  1.00  0.00     0.001 C 
HETATM    8  C8  UNL     1      33.611   5.318  48.199  1.00  0.00     0.148 C 
HETATM    9  C10 UNL     1      34.020   6.472  47.251  1.00  0.00    -0.016 C 
HETATM   10  C11 UNL     1      33.371   6.178  46.061  1.00  0.00     0.040 C 
HETATM   11  C12 UNL     1      32.771   6.018  44.783  1.00  0.00     0.035 C 
HETATM   12  C13 UNL     1      33.099   7.204  44.093  1.00  0.00     0.016 C 
HETATM   13  C14 UNL     1      33.792   8.611  44.259  1.00  0.00     0.086 C 
HETATM   14  N1  UNL     1      33.889   9.456  45.170  1.00  0.00    -0.284 NA
HETATM   15  C15 UNL     1      33.446   9.630  46.463  1.00  0.00     0.200 C 
HETATM   16  C16 UNL     1      34.270   9.716  47.633  1.00  0.00     0.044 C 
HETATM   17  C17 UNL     1      34.715   8.545  48.427  1.00  0.00     0.004 C 
HETATM   18  C18 UNL     1      35.207   7.399  47.668  1.00  0.00     0.008 C 
HETATM   19  N2  UNL     1      32.537  10.814  46.323  1.00  0.00    -0.170 NA
HETATM   20  N3  UNL     1      33.005  11.854  47.259  1.00  0.00    -0.201 NA
HETATM   21  C19 UNL     1      31.754  11.266  47.245  1.00  0.00     0.326 A 
HETATM   22  C20 UNL     1      30.533  11.940  47.414  1.00  0.00     0.355 A 
HETATM   23  N4  UNL     1      30.977  10.784  48.253  1.00  0.00     0.137 N 
HETATM   24  C21 UNL     1      30.234   9.609  48.241  1.00  0.00     0.278 C 
HETATM   25  C22 UNL     1      29.078   9.706  47.259  1.00  0.00     0.040 C 
HETATM   26  H26 UNL     1      33.136  12.779  46.795  1.00  0.00     0.145 HD
ENDROOT
BRANCH   8  27
HETATM   27  O1  UNL     1      34.669   4.429  48.216  1.00  0.00    -0.386 OA
HETATM   28  C9  UNL     1      34.371   3.152  47.790  1.00  0.00     0.202 C 
ENDBRANCH   8  27
TORSDOF 1
ENDMDL
MODEL 7
REMARK VINA RESULT:      -7.0      2.933      5.969
REMARK  1 active torsions:
REMARK  status: ('A' for Active; 'I' for Inactive)
REMARK    1  A    between atoms: C8_8  and  O1_9 
ROOT
HETATM    1  C1  UNL     1      16.700  -0.461  49.607  1.00  0.00     0.011 C 
HETATM    2  C2  UNL     1      16.586   0.294  50.737  1.00  0.00    -0.031 C 
HETATM    3  C3  UNL     1      16.850  -0.612  51.938  1.00  0.00     0.010 C 
HETATM    4  C4  UNL     1      18.114  -0.182  52.677  1.00  0.00     0.005 C 
HETATM    5  C5  UNL     1      19.230  -0.326  51.708  1.00  0.00     0.027 C 
HETATM    6  C6  UNL     1      20.552   0.253  52.097  1.00  0.00    -0.028 C 
HETATM    7  C7  UNL     1      21.891   0.046  52.357  1.00  0.00     0.001 C 
HETATM    8  C8  UNL     1      22.324   1.477  52.679  1.00  0.00     0.148 C 
HETATM    9  C10 UNL     1      22.134   2.335  51.404  1.00  0.00    -0.016 C 
HETATM   10  C11 UNL     1      21.995   1.402  50.387  1.00  0.00     0.040 C 
HETATM   11  C12 UNL     1      21.830   0.576  49.242  1.00  0.00     0.035 C 
HETATM   12  C13 UNL     1      21.514   1.477  48.204  1.00  0.00     0.016 C 
HETATM   13  C14 UNL     1      21.211   2.995  47.898  1.00  0.00     0.086 C 
HETATM   14  N1  UNL     1      20.639   3.928  48.493  1.00  0.00    -0.284 NA
HETATM   15  C15 UNL     1      19.965   4.134  49.677  1.00  0.00     0.200 C 
HETATM   16  C16 UNL     1      20.369   5.012  50.736  1.00  0.00     0.044 C 
HETATM   17  C17 UNL     1      21.272   4.620  51.846  1.00  0.00     0.004 C 
HETATM   18  C18 UNL     1      22.463   3.861  51.472  1.00  0.00     0.008 C 
HETATM   19  N2  UNL     1      18.576   4.427  49.198  1.00  0.00    -0.170 NA
HETATM   20  N3  UNL     1      18.179   5.739  49.744  1.00  0.00    -0.201 NA
HETATM   21  C19 UNL     1      17.533   4.534  49.953  1.00  0.00     0.326 A 
HETATM   22  C20 UNL     1      16.142   4.339  49.936  1.00  0.00     0.355 A 
HETATM   23  N4  UNL     1      17.028   3.971  51.083  1.00  0.00     0.137 N 
HETATM   24  C21 UNL     1      17.128   2.637  51.464  1.00  0.00     0.278 C 
HETATM   25  C22 UNL     1      16.323   1.743  50.536  1.00  0.00     0.040 C 
HETATM   26  H26 UNL     1      17.820   6.386  49.008  1.00  0.00     0.145 HD
ENDROOT
BRANCH   8  27
HETATM   27  O1  UNL     1      23.680   1.461  52.944  1.00  0.00    -0.386 OA
HETATM   28  C9  UNL     1      24.221   0.213  53.173  1.00  0.00     0.202 C 
ENDBRANCH   8  27
TORSDOF 1
ENDMDL
MODEL 8
REMARK VINA RESULT:      -6.8      3.426      6.429
REMARK  1 active torsions:
REMARK  status: ('A' for Active; 'I' for Inactive)
REMARK    1  A    between atoms: C8_8  and  O1_9 
ROOT
HETATM    1  C1  UNL     1      19.087   5.081  46.695  1.00  0.00     0.011 C 
HETATM    2  C2  UNL     1      20.120   4.351  46.183  1.00  0.00    -0.031 C 
HETATM    3  C3  UNL     1      20.598   5.042  44.908  1.00  0.00     0.010 C 
HETATM    4  C4  UNL     1      22.026   5.557  45.070  1.00  0.00     0.005 C 
HETATM    5  C5  UNL     1      21.984   6.552  46.173  1.00  0.00     0.027 C 
HETATM    6  C6  UNL     1      23.294   7.042  46.701  1.00  0.00    -0.028 C 
HETATM    7  C7  UNL     1      24.142   8.107  46.926  1.00  0.00     0.001 C 
HETATM    8  C8  UNL     1      25.310   7.380  47.594  1.00  0.00     0.148 C 
HETATM    9  C10 UNL     1      24.804   6.783  48.930  1.00  0.00    -0.016 C 
HETATM   10  C11 UNL     1      23.607   7.445  49.164  1.00  0.00     0.040 C 
HETATM   11  C12 UNL     1      22.367   8.027  49.540  1.00  0.00     0.035 C 
HETATM   12  C13 UNL     1      21.960   7.285  50.668  1.00  0.00     0.016 C 
HETATM   13  C14 UNL     1      22.337   6.044  51.566  1.00  0.00     0.086 C 
HETATM   14  N1  UNL     1      22.847   4.924  51.371  1.00  0.00    -0.284 NA
HETATM   15  C15 UNL     1      23.315   4.177  50.313  1.00  0.00     0.200 C 
HETATM   16  C16 UNL     1      24.666   3.736  50.124  1.00  0.00     0.044 C 
HETATM   17  C17 UNL     1      25.714   4.530  49.436  1.00  0.00     0.004 C 
HETATM   18  C18 UNL     1      25.795   5.943  49.798  1.00  0.00     0.008 C 
HETATM   19  N2  UNL     1      22.339   3.039  50.278  1.00  0.00    -0.170 NA
HETATM   20  N3  UNL     1      23.107   1.784  50.386  1.00  0.00    -0.201 NA
HETATM   21  C19 UNL     1      22.267   2.146  49.348  1.00  0.00     0.326 A 
HETATM   22  C20 UNL     1      21.347   1.298  48.710  1.00  0.00     0.355 A 
HETATM   23  N4  UNL     1      22.420   2.060  47.999  1.00  0.00     0.137 N 
HETATM   24  C21 UNL     1      22.064   3.022  47.059  1.00  0.00     0.278 C 
HETATM   25  C22 UNL     1      20.554   3.175  46.982  1.00  0.00     0.040 C 
HETATM   26  H26 UNL     1      22.744   1.157  51.137  1.00  0.00     0.145 HD
ENDROOT
BRANCH   8  27
HETATM   27  O1  UNL     1      26.266   8.323  47.921  1.00  0.00    -0.386 OA
HETATM   28  C9  UNL     1      27.468   8.197  47.258  1.00  0.00     0.202 C 
ENDBRANCH   8  27
TORSDOF 1
ENDMDL
MODEL 9
REMARK VINA RESULT:      -6.8      2.717      6.077
REMARK  1 active torsions:
REMARK  status: ('A' for Active; 'I' for Inactive)
REMARK    1  A    between atoms: C8_8  and  O1_9 
ROOT
HETATM    1  C1  UNL     1      22.397   8.128  50.326  1.00  0.00     0.011 C 
HETATM    2  C2  UNL     1      23.239   7.446  49.496  1.00  0.00    -0.031 C 
HETATM    3  C3  UNL     1      24.565   7.249  50.228  1.00  0.00     0.010 C 
HETATM    4  C4  UNL     1      24.828   5.768  50.487  1.00  0.00     0.005 C 
HETATM    5  C5  UNL     1      23.720   5.296  51.357  1.00  0.00     0.027 C 
HETATM    6  C6  UNL     1      23.601   3.822  51.572  1.00  0.00    -0.028 C 
HETATM    7  C7  UNL     1      23.598   2.763  52.458  1.00  0.00     0.001 C 
HETATM    8  C8  UNL     1      23.360   1.605  51.488  1.00  0.00     0.148 C 
HETATM    9  C10 UNL     1      21.964   1.794  50.846  1.00  0.00    -0.016 C 
HETATM   10  C11 UNL     1      21.340   2.725  51.665  1.00  0.00     0.040 C 
HETATM   11  C12 UNL     1      20.570   3.667  52.398  1.00  0.00     0.035 C 
HETATM   12  C13 UNL     1      19.409   3.851  51.619  1.00  0.00     0.016 C 
HETATM   13  C14 UNL     1      18.733   3.462  50.248  1.00  0.00     0.086 C 
HETATM   14  N1  UNL     1      19.130   3.249  49.086  1.00  0.00    -0.284 NA
HETATM   15  C15 UNL     1      20.316   3.262  48.386  1.00  0.00     0.200 C 
HETATM   16  C16 UNL     1      20.935   2.133  47.755  1.00  0.00     0.044 C 
HETATM   17  C17 UNL     1      21.874   1.208  48.436  1.00  0.00     0.004 C 
HETATM   18  C18 UNL     1      21.487   0.764  49.773  1.00  0.00     0.008 C 
HETATM   19  N2  UNL     1      20.102   4.397  47.431  1.00  0.00    -0.170 NA
HETATM   20  N3  UNL     1      20.298   3.878  46.064  1.00  0.00    -0.201 NA
HETATM   21  C19 UNL     1      21.005   4.905  46.660  1.00  0.00     0.326 A 
HETATM   22  C20 UNL     1      21.368   6.113  46.043  1.00  0.00     0.355 A 
HETATM   23  N4  UNL     1      22.338   5.177  46.690  1.00  0.00     0.137 N 
HETATM   24  C21 UNL     1      23.074   5.611  47.788  1.00  0.00     0.278 C 
HETATM   25  C22 UNL     1      22.672   7.021  48.190  1.00  0.00     0.040 C 
HETATM   26  H26 UNL     1      19.503   4.111  45.430  1.00  0.00     0.145 HD
ENDROOT
BRANCH   8  27
HETATM   27  O1  UNL     1      23.300   0.438  52.225  1.00  0.00    -0.386 OA
HETATM   28  C9  UNL     1      24.370   0.218  53.067  1.00  0.00     0.202 C 
ENDBRANCH   8  27
TORSDOF 1
ENDMDL
