MODEL 1
REMARK VINA RESULT:      -7.4      0.000      0.000
REMARK  4 active torsions:
REMARK  status: ('A' for Active; 'I' for Inactive)
REMARK       I    between atoms: C1_2  and  N1_3 
REMARK    1  A    between atoms: C1_2  and  C8_14 
REMARK    2  A    between atoms: N1_3  and  S1_4 
REMARK    3  A    between atoms: S1_4  and  C2_7 
REMARK    4  A    between atoms: C5_10  and  C6_11 
ROOT
HETATM    1  O1  UNL     1      26.229   2.015  54.176  1.00  0.00    -0.267 OA
HETATM    2  C1  UNL     1      26.572   1.551  53.031  1.00  0.00     0.268 C 
HETATM    3  N1  UNL     1      25.995   1.748  51.763  1.00  0.00    -0.246 N 
HETATM    4  H1  UNL     1      26.467   1.257  50.989  1.00  0.00     0.182 HD
ENDROOT
BRANCH   3   5
HETATM    5  S1  UNL     1      24.641   2.656  51.254  1.00  0.00     0.265 S 
HETATM    6  O2  UNL     1      24.848   3.128  49.850  1.00  0.00    -0.200 OA
HETATM    7  O3  UNL     1      24.532   3.848  52.161  1.00  0.00    -0.200 OA
BRANCH   5   8
HETATM    8  C2  UNL     1      23.163   1.683  51.346  1.00  0.00     0.076 A 
HETATM    9  C3  UNL     1      22.286   1.399  50.384  1.00  0.00     0.003 A 
HETATM   10  C4  UNL     1      21.178   0.545  50.883  1.00  0.00     0.063 A 
HETATM   11  C5  UNL     1      21.545   0.367  52.313  1.00  0.00    -0.065 A 
HETATM   12  C7  UNL     1      22.672   1.021  52.543  1.00  0.00     0.029 A 
BRANCH  11  13
HETATM   13  C6  UNL     1      20.647  -0.458  53.159  1.00  0.00     0.119 C 
HETATM   14 BR1  UNL     1      21.609  -1.284  54.618  1.00  0.00    -0.092 Br
ENDBRANCH  11  13
ENDBRANCH   5   8
ENDBRANCH   3   5
BRANCH   2  15
HETATM   15  C8  UNL     1      27.747   0.721  53.266  1.00  0.00     0.073 A 
HETATM   16  C9  UNL     1      29.042   1.134  53.455  1.00  0.00     0.022 A 
HETATM   17  C10 UNL     1      30.020   0.189  53.654  1.00  0.00     0.020 A 
HETATM   18  C11 UNL     1      29.684  -1.125  53.661  1.00  0.00     0.118 A 
HETATM   19  N2  UNL     1      28.409  -1.590  53.479  1.00  0.00    -0.248 NA
HETATM   20  C12 UNL     1      27.436  -0.644  53.279  1.00  0.00     0.141 A 
HETATM   21 CL1  UNL     1      25.798  -1.283  53.044  1.00  0.00    -0.061 Cl
ENDBRANCH   2  15
TORSDOF 4
ENDMDL
MODEL 2
REMARK VINA RESULT:      -7.3      2.034      2.504
REMARK  4 active torsions:
REMARK  status: ('A' for Active; 'I' for Inactive)
REMARK       I    between atoms: C1_2  and  N1_3 
REMARK    1  A    between atoms: C1_2  and  C8_14 
REMARK    2  A    between atoms: N1_3  and  S1_4 
REMARK    3  A    between atoms: S1_4  and  C2_7 
REMARK    4  A    between atoms: C5_10  and  C6_11 
ROOT
HETATM    1  O1  UNL     1      26.219   0.949  54.808  1.00  0.00    -0.267 OA
HETATM    2  C1  UNL     1      26.345   0.587  53.585  1.00  0.00     0.268 C 
HETATM    3  N1  UNL     1      25.476   0.764  52.492  1.00  0.00    -0.246 N 
HETATM    4  H1  UNL     1      25.815   0.375  51.599  1.00  0.00     0.182 HD
ENDROOT
BRANCH   3   5
HETATM    5  S1  UNL     1      23.946   1.510  52.361  1.00  0.00     0.265 S 
HETATM    6  O2  UNL     1      23.639   1.785  50.924  1.00  0.00    -0.200 OA
HETATM    7  O3  UNL     1      24.015   2.813  53.106  1.00  0.00    -0.200 OA
BRANCH   5   8
HETATM    8  C2  UNL     1      22.684   0.478  53.054  1.00  0.00     0.076 A 
HETATM    9  C3  UNL     1      22.779  -0.418  54.036  1.00  0.00     0.003 A 
HETATM   10  C4  UNL     1      21.474  -1.071  54.314  1.00  0.00     0.063 A 
HETATM   11  C5  UNL     1      20.580  -0.409  53.327  1.00  0.00    -0.065 A 
HETATM   12  C7  UNL     1      21.294   0.461  52.631  1.00  0.00     0.029 A 
BRANCH  11  13
HETATM   13  C6  UNL     1      19.153  -0.814  53.309  1.00  0.00     0.119 C 
HETATM   14 BR1  UNL     1      18.226  -0.070  51.785  1.00  0.00    -0.092 Br
ENDBRANCH  11  13
ENDBRANCH   5   8
ENDBRANCH   3   5
BRANCH   2  15
HETATM   15  C8  UNL     1      27.632  -0.093  53.495  1.00  0.00     0.073 A 
HETATM   16  C9  UNL     1      27.862  -1.439  53.358  1.00  0.00     0.022 A 
HETATM   17  C10 UNL     1      29.159  -1.890  53.299  1.00  0.00     0.020 A 
HETATM   18  C11 UNL     1      30.178  -0.998  53.375  1.00  0.00     0.118 A 
HETATM   19  N2  UNL     1      30.004   0.353  53.510  1.00  0.00    -0.248 NA
HETATM   20  C12 UNL     1      28.708   0.799  53.569  1.00  0.00     0.141 A 
HETATM   21 CL1  UNL     1      28.521   2.555  53.748  1.00  0.00    -0.061 Cl
ENDBRANCH   2  15
TORSDOF 4
ENDMDL
MODEL 3
REMARK VINA RESULT:      -7.1      4.021      4.893
REMARK  4 active torsions:
REMARK  status: ('A' for Active; 'I' for Inactive)
REMARK       I    between atoms: C1_2  and  N1_3 
REMARK    1  A    between atoms: C1_2  and  C8_14 
REMARK    2  A    between atoms: N1_3  and  S1_4 
REMARK    3  A    between atoms: S1_4  and  C2_7 
REMARK    4  A    between atoms: C5_10  and  C6_11 
ROOT
HETATM    1  O1  UNL     1      27.114   2.365  53.972  1.00  0.00    -0.267 OA
HETATM    2  C1  UNL     1      26.969   1.552  52.992  1.00  0.00     0.268 C 
HETATM    3  N1  UNL     1      26.081   1.596  51.901  1.00  0.00    -0.246 N 
HETATM    4  H1  UNL     1      26.166   0.810  51.239  1.00  0.00     0.182 HD
ENDROOT
BRANCH   3   5
HETATM    5  S1  UNL     1      24.871   2.716  51.459  1.00  0.00     0.265 S 
HETATM    6  O2  UNL     1      24.315   3.369  52.684  1.00  0.00    -0.200 OA
HETATM    7  O3  UNL     1      23.777   1.950  50.773  1.00  0.00    -0.200 OA
BRANCH   5   8
HETATM    8  C2  UNL     1      25.526   3.950  50.370  1.00  0.00     0.076 A 
HETATM    9  C3  UNL     1      24.951   5.067  49.926  1.00  0.00     0.003 A 
HETATM   10  C4  UNL     1      25.851   5.830  49.024  1.00  0.00     0.063 A 
HETATM   11  C5  UNL     1      27.067   4.974  49.004  1.00  0.00    -0.065 A 
HETATM   12  C7  UNL     1      26.852   3.920  49.775  1.00  0.00     0.029 A 
BRANCH  11  13
HETATM   13  C6  UNL     1      28.218   5.429  48.186  1.00  0.00     0.119 C 
HETATM   14 BR1  UNL     1      28.101   7.316  47.785  1.00  0.00    -0.092 Br
ENDBRANCH  11  13
ENDBRANCH   5   8
ENDBRANCH   3   5
BRANCH   2  15
HETATM   15  C8  UNL     1      27.944   0.489  53.199  1.00  0.00     0.073 A 
HETATM   16  C9  UNL     1      29.299   0.617  53.380  1.00  0.00     0.022 A 
HETATM   17  C10 UNL     1      30.057  -0.516  53.552  1.00  0.00     0.020 A 
HETATM   18  C11 UNL     1      29.452  -1.731  53.541  1.00  0.00     0.118 A 
HETATM   19  N2  UNL     1      28.106  -1.913  53.367  1.00  0.00    -0.248 NA
HETATM   20  C12 UNL     1      27.353  -0.780  53.194  1.00  0.00     0.141 A 
HETATM   21 CL1  UNL     1      25.615  -1.056  52.967  1.00  0.00    -0.061 Cl
ENDBRANCH   2  15
TORSDOF 4
ENDMDL
MODEL 4
REMARK VINA RESULT:      -7.1      4.255      5.140
REMARK  4 active torsions:
REMARK  status: ('A' for Active; 'I' for Inactive)
REMARK       I    between atoms: C1_2  and  N1_3 
REMARK    1  A    between atoms: C1_2  and  C8_14 
REMARK    2  A    between atoms: N1_3  and  S1_4 
REMARK    3  A    between atoms: S1_4  and  C2_7 
REMARK    4  A    between atoms: C5_10  and  C6_11 
ROOT
HETATM    1  O1  UNL     1      26.720   1.873  50.898  1.00  0.00    -0.267 OA
HETATM    2  C1  UNL     1      26.326   2.274  52.049  1.00  0.00     0.268 C 
HETATM    3  N1  UNL     1      25.250   3.111  52.399  1.00  0.00    -0.246 N 
HETATM    4  H1  UNL     1      25.143   3.284  53.410  1.00  0.00     0.182 HD
ENDROOT
BRANCH   3   5
HETATM    5  S1  UNL     1      24.072   3.909  51.455  1.00  0.00     0.265 S 
HETATM    6  O2  UNL     1      22.971   4.408  52.335  1.00  0.00    -0.200 OA
HETATM    7  O3  UNL     1      23.511   2.902  50.492  1.00  0.00    -0.200 OA
BRANCH   5   8
HETATM    8  C2  UNL     1      24.790   5.265  50.569  1.00  0.00     0.076 A 
HETATM    9  C3  UNL     1      24.462   6.555  50.602  1.00  0.00     0.003 A 
HETATM   10  C4  UNL     1      25.320   7.366  49.702  1.00  0.00     0.063 A 
HETATM   11  C5  UNL     1      26.222   6.335  49.123  1.00  0.00    -0.065 A 
HETATM   12  C7  UNL     1      25.897   5.158  49.634  1.00  0.00     0.029 A 
BRANCH  11  13
HETATM   13  C6  UNL     1      27.251   6.783  48.152  1.00  0.00     0.119 C 
HETATM   14 BR1  UNL     1      28.833   5.676  48.234  1.00  0.00    -0.092 Br
ENDBRANCH  11  13
ENDBRANCH   5   8
ENDBRANCH   3   5
BRANCH   2  15
HETATM   15  C8  UNL     1      27.239   1.683  53.020  1.00  0.00     0.073 A 
HETATM   16  C9  UNL     1      28.434   2.190  53.466  1.00  0.00     0.022 A 
HETATM   17  C10 UNL     1      29.161   1.471  54.385  1.00  0.00     0.020 A 
HETATM   18  C11 UNL     1      28.682   0.282  54.829  1.00  0.00     0.118 A 
HETATM   19  N2  UNL     1      27.498  -0.268  54.418  1.00  0.00    -0.248 NA
HETATM   20  C12 UNL     1      26.776   0.452  53.500  1.00  0.00     0.141 A 
HETATM   21 CL1  UNL     1      25.249  -0.293  52.988  1.00  0.00    -0.061 Cl
ENDBRANCH   2  15
TORSDOF 4
ENDMDL
MODEL 5
REMARK VINA RESULT:      -7.0      4.708      6.561
REMARK  4 active torsions:
REMARK  status: ('A' for Active; 'I' for Inactive)
REMARK       I    between atoms: C1_2  and  N1_3 
REMARK    1  A    between atoms: C1_2  and  C8_14 
REMARK    2  A    between atoms: N1_3  and  S1_4 
REMARK    3  A    between atoms: S1_4  and  C2_7 
REMARK    4  A    between atoms: C5_10  and  C6_11 
ROOT
HETATM    1  O1  UNL     1      24.277   4.605  49.085  1.00  0.00    -0.267 OA
HETATM    2  C1  UNL     1      25.264   4.659  49.899  1.00  0.00     0.268 C 
HETATM    3  N1  UNL     1      25.520   3.915  51.066  1.00  0.00    -0.246 N 
HETATM    4  H1  UNL     1      26.399   4.153  51.550  1.00  0.00     0.182 HD
ENDROOT
BRANCH   3   5
HETATM    5  S1  UNL     1      24.638   2.679  51.846  1.00  0.00     0.265 S 
HETATM    6  O2  UNL     1      23.865   1.894  50.835  1.00  0.00    -0.200 OA
HETATM    7  O3  UNL     1      23.677   3.340  52.792  1.00  0.00    -0.200 OA
BRANCH   5   8
HETATM    8  C2  UNL     1      25.725   1.600  52.737  1.00  0.00     0.076 A 
HETATM    9  C3  UNL     1      26.084   1.644  54.020  1.00  0.00     0.003 A 
HETATM   10  C4  UNL     1      27.019   0.544  54.368  1.00  0.00     0.063 A 
HETATM   11  C5  UNL     1      27.158  -0.167  53.070  1.00  0.00    -0.065 A 
HETATM   12  C7  UNL     1      26.414   0.454  52.169  1.00  0.00     0.029 A 
BRANCH  11  13
HETATM   13  C6  UNL     1      28.039  -1.360  53.028  1.00  0.00     0.119 C 
HETATM   14 BR1  UNL     1      29.832  -0.939  53.613  1.00  0.00    -0.092 Br
ENDBRANCH  11  13
ENDBRANCH   5   8
ENDBRANCH   3   5
BRANCH   2  15
HETATM   15  C8  UNL     1      26.154   5.695  49.388  1.00  0.00     0.073 A 
HETATM   16  C9  UNL     1      27.216   5.541  48.532  1.00  0.00     0.022 A 
HETATM   17  C10 UNL     1      27.946   6.649  48.172  1.00  0.00     0.020 A 
HETATM   18  C11 UNL     1      27.600   7.864  48.666  1.00  0.00     0.118 A 
HETATM   19  N2  UNL     1      26.551   8.072  49.520  1.00  0.00    -0.248 NA
HETATM   20  C12 UNL     1      25.826   6.964  49.879  1.00  0.00     0.141 A 
HETATM   21 CL1  UNL     1      24.476   7.272  50.990  1.00  0.00    -0.061 Cl
ENDBRANCH   2  15
TORSDOF 4
ENDMDL
MODEL 6
REMARK VINA RESULT:      -6.9      1.443      1.478
REMARK  4 active torsions:
REMARK  status: ('A' for Active; 'I' for Inactive)
REMARK       I    between atoms: C1_2  and  N1_3 
REMARK    1  A    between atoms: C1_2  and  C8_14 
REMARK    2  A    between atoms: N1_3  and  S1_4 
REMARK    3  A    between atoms: S1_4  and  C2_7 
REMARK    4  A    between atoms: C5_10  and  C6_11 
ROOT
HETATM    1  O1  UNL     1      25.205   2.669  53.837  1.00  0.00    -0.267 OA
HETATM    2  C1  UNL     1      25.896   2.246  52.845  1.00  0.00     0.268 C 
HETATM    3  N1  UNL     1      25.664   2.363  51.461  1.00  0.00    -0.246 N 
HETATM    4  H1  UNL     1      26.384   1.930  50.861  1.00  0.00     0.182 HD
ENDROOT
BRANCH   3   5
HETATM    5  S1  UNL     1      24.402   3.092  50.575  1.00  0.00     0.265 S 
HETATM    6  O2  UNL     1      24.839   3.318  49.163  1.00  0.00    -0.200 OA
HETATM    7  O3  UNL     1      24.111   4.420  51.215  1.00  0.00    -0.200 OA
BRANCH   5   8
HETATM    8  C2  UNL     1      22.951   2.076  50.595  1.00  0.00     0.076 A 
HETATM    9  C3  UNL     1      22.213   1.647  49.573  1.00  0.00     0.003 A 
HETATM   10  C4  UNL     1      21.074   0.810  50.027  1.00  0.00     0.063 A 
HETATM   11  C5  UNL     1      21.258   0.811  51.502  1.00  0.00    -0.065 A 
HETATM   12  C7  UNL     1      22.328   1.535  51.792  1.00  0.00     0.029 A 
BRANCH  11  13
HETATM   13  C6  UNL     1      20.281   0.051  52.321  1.00  0.00     0.119 C 
HETATM   14 BR1  UNL     1      18.516   0.092  51.536  1.00  0.00    -0.092 Br
ENDBRANCH  11  13
ENDBRANCH   5   8
ENDBRANCH   3   5
BRANCH   2  15
HETATM   15  C8  UNL     1      27.054   1.569  53.417  1.00  0.00     0.073 A 
HETATM   16  C9  UNL     1      28.298   2.095  53.661  1.00  0.00     0.022 A 
HETATM   17  C10 UNL     1      29.268   1.286  54.202  1.00  0.00     0.020 A 
HETATM   18  C11 UNL     1      28.976  -0.008  54.483  1.00  0.00     0.118 A 
HETATM   19  N2  UNL     1      27.753  -0.582  54.261  1.00  0.00    -0.248 NA
HETATM   20  C12 UNL     1      26.787   0.229  53.719  1.00  0.00     0.141 A 
HETATM   21 CL1  UNL     1      25.217  -0.550  53.442  1.00  0.00    -0.061 Cl
ENDBRANCH   2  15
TORSDOF 4
ENDMDL
MODEL 7
REMARK VINA RESULT:      -6.9      4.173      5.439
REMARK  4 active torsions:
REMARK  status: ('A' for Active; 'I' for Inactive)
REMARK       I    between atoms: C1_2  and  N1_3 
REMARK    1  A    between atoms: C1_2  and  C8_14 
REMARK    2  A    between atoms: N1_3  and  S1_4 
REMARK    3  A    between atoms: S1_4  and  C2_7 
REMARK    4  A    between atoms: C5_10  and  C6_11 
ROOT
HETATM    1  O1  UNL     1      24.045   4.856  48.834  1.00  0.00    -0.267 OA
HETATM    2  C1  UNL     1      24.853   5.049  49.810  1.00  0.00     0.268 C 
HETATM    3  N1  UNL     1      24.666   4.864  51.193  1.00  0.00    -0.246 N 
HETATM    4  H1  UNL     1      25.485   5.093  51.777  1.00  0.00     0.182 HD
ENDROOT
BRANCH   3   5
HETATM    5  S1  UNL     1      23.323   4.329  52.100  1.00  0.00     0.265 S 
HETATM    6  O2  UNL     1      22.066   4.543  51.318  1.00  0.00    -0.200 OA
HETATM    7  O3  UNL     1      23.267   5.158  53.352  1.00  0.00    -0.200 OA
BRANCH   5   8
HETATM    8  C2  UNL     1      23.486   2.614  52.512  1.00  0.00     0.076 A 
HETATM    9  C3  UNL     1      22.549   1.668  52.549  1.00  0.00     0.003 A 
HETATM   10  C4  UNL     1      23.110   0.351  52.945  1.00  0.00     0.063 A 
HETATM   11  C5  UNL     1      24.549   0.673  53.139  1.00  0.00    -0.065 A 
HETATM   12  C7  UNL     1      24.729   1.960  52.886  1.00  0.00     0.029 A 
BRANCH  11  13
HETATM   13  C6  UNL     1      25.454  -0.429  53.546  1.00  0.00     0.119 C 
HETATM   14 BR1  UNL     1      26.918   0.221  54.629  1.00  0.00    -0.092 Br
ENDBRANCH  11  13
ENDBRANCH   5   8
ENDBRANCH   3   5
BRANCH   2  15
HETATM   15  C8  UNL     1      26.096   5.526  49.218  1.00  0.00     0.073 A 
HETATM   16  C9  UNL     1      26.401   6.806  48.824  1.00  0.00     0.022 A 
HETATM   17  C10 UNL     1      27.636   7.056  48.274  1.00  0.00     0.020 A 
HETATM   18  C11 UNL     1      28.522   6.038  48.135  1.00  0.00     0.118 A 
HETATM   19  N2  UNL     1      28.269   4.747  48.512  1.00  0.00    -0.248 NA
HETATM   20  C12 UNL     1      27.035   4.500  49.059  1.00  0.00     0.141 A 
HETATM   21 CL1  UNL     1      26.742   2.815  49.532  1.00  0.00    -0.061 Cl
ENDBRANCH   2  15
TORSDOF 4
ENDMDL
MODEL 8
REMARK VINA RESULT:      -6.7      7.495      8.233
REMARK  4 active torsions:
REMARK  status: ('A' for Active; 'I' for Inactive)
REMARK       I    between atoms: C1_2  and  N1_3 
REMARK    1  A    between atoms: C1_2  and  C8_14 
REMARK    2  A    between atoms: N1_3  and  S1_4 
REMARK    3  A    between atoms: S1_4  and  C2_7 
REMARK    4  A    between atoms: C5_10  and  C6_11 
ROOT
HETATM    1  O1  UNL     1      31.275   5.618  49.668  1.00  0.00    -0.267 OA
HETATM    2  C1  UNL     1      31.363   5.627  48.390  1.00  0.00     0.268 C 
HETATM    3  N1  UNL     1      30.550   6.258  47.429  1.00  0.00    -0.246 N 
HETATM    4  H1  UNL     1      30.839   6.109  46.450  1.00  0.00     0.182 HD
ENDROOT
BRANCH   3   5
HETATM    5  S1  UNL     1      29.157   7.232  47.577  1.00  0.00     0.265 S 
HETATM    6  O2  UNL     1      28.770   7.769  46.236  1.00  0.00    -0.200 OA
HETATM    7  O3  UNL     1      29.504   8.380  48.482  1.00  0.00    -0.200 OA
BRANCH   5   8
HETATM    8  C2  UNL     1      27.811   6.304  48.260  1.00  0.00     0.076 A 
HETATM    9  C3  UNL     1      26.573   6.707  48.541  1.00  0.00     0.003 A 
HETATM   10  C4  UNL     1      25.750   5.607  49.105  1.00  0.00     0.063 A 
HETATM   11  C5  UNL     1      26.712   4.473  49.113  1.00  0.00    -0.065 A 
HETATM   12  C7  UNL     1      27.868   4.900  48.629  1.00  0.00     0.029 A 
BRANCH  11  13
HETATM   13  C6  UNL     1      26.233   3.164  49.621  1.00  0.00     0.119 C 
HETATM   14 BR1  UNL     1      24.352   3.219  50.057  1.00  0.00    -0.092 Br
ENDBRANCH  11  13
ENDBRANCH   5   8
ENDBRANCH   3   5
BRANCH   2  15
HETATM   15  C8  UNL     1      32.529   4.818  48.058  1.00  0.00     0.073 A 
HETATM   16  C9  UNL     1      32.558   3.493  47.702  1.00  0.00     0.022 A 
HETATM   17  C10 UNL     1      33.770   2.902  47.434  1.00  0.00     0.020 A 
HETATM   18  C11 UNL     1      34.905   3.640  47.525  1.00  0.00     0.118 A 
HETATM   19  N2  UNL     1      34.932   4.963  47.873  1.00  0.00    -0.248 NA
HETATM   20  C12 UNL     1      33.721   5.549  48.142  1.00  0.00     0.141 A 
HETATM   21 CL1  UNL     1      33.795   7.263  48.594  1.00  0.00    -0.061 Cl
ENDBRANCH   2  15
TORSDOF 4
ENDMDL
MODEL 9
REMARK VINA RESULT:      -6.7      4.380      6.117
REMARK  4 active torsions:
REMARK  status: ('A' for Active; 'I' for Inactive)
REMARK       I    between atoms: C1_2  and  N1_3 
REMARK    1  A    between atoms: C1_2  and  C8_14 
REMARK    2  A    between atoms: N1_3  and  S1_4 
REMARK    3  A    between atoms: S1_4  and  C2_7 
REMARK    4  A    between atoms: C5_10  and  C6_11 
ROOT
HETATM    1  O1  UNL     1      22.593   2.984  52.643  1.00  0.00    -0.267 OA
HETATM    2  C1  UNL     1      22.558   1.891  51.976  1.00  0.00     0.268 C 
HETATM    3  N1  UNL     1      22.622   1.674  50.586  1.00  0.00    -0.246 N 
HETATM    4  H1  UNL     1      22.574   0.684  50.298  1.00  0.00     0.182 HD
ENDROOT
BRANCH   3   5
HETATM    5  S1  UNL     1      22.764   2.750  49.269  1.00  0.00     0.265 S 
HETATM    6  O2  UNL     1      21.662   3.760  49.320  1.00  0.00    -0.200 OA
HETATM    7  O3  UNL     1      22.629   1.941  48.011  1.00  0.00    -0.200 OA
BRANCH   5   8
HETATM    8  C2  UNL     1      24.331   3.575  49.298  1.00  0.00     0.076 A 
HETATM    9  C3  UNL     1      25.522   3.100  49.661  1.00  0.00     0.003 A 
HETATM   10  C4  UNL     1      26.587   4.127  49.536  1.00  0.00     0.063 A 
HETATM   11  C5  UNL     1      25.826   5.302  49.034  1.00  0.00    -0.065 A 
HETATM   12  C7  UNL     1      24.555   4.957  48.910  1.00  0.00     0.029 A 
BRANCH  11  13
HETATM   13  C6  UNL     1      26.580   6.554  48.778  1.00  0.00     0.119 C 
HETATM   14 BR1  UNL     1      28.383   6.188  48.188  1.00  0.00    -0.092 Br
ENDBRANCH  11  13
ENDBRANCH   5   8
ENDBRANCH   3   5
BRANCH   2  15
HETATM   15  C8  UNL     1      22.431   0.820  52.957  1.00  0.00     0.073 A 
HETATM   16  C9  UNL     1      21.282   0.350  53.542  1.00  0.00     0.022 A 
HETATM   17  C10 UNL     1      21.372  -0.669  54.460  1.00  0.00     0.020 A 
HETATM   18  C11 UNL     1      22.588  -1.187  54.764  1.00  0.00     0.118 A 
HETATM   19  N2  UNL     1      23.763  -0.756  54.209  1.00  0.00    -0.248 NA
HETATM   20  C12 UNL     1      23.670   0.263  53.294  1.00  0.00     0.141 A 
HETATM   21 CL1  UNL     1      25.213   0.797  52.599  1.00  0.00    -0.061 Cl
ENDBRANCH   2  15
TORSDOF 4
ENDMDL
