MODEL 1
REMARK VINA RESULT:      -8.4      0.000      0.000
REMARK  3 active torsions:
REMARK  status: ('A' for Active; 'I' for Inactive)
REMARK    1  A    between atoms: C4_5  and  C5_6 
REMARK    2  A    between atoms: C5_6  and  C6_7 
REMARK    3  A    between atoms: C5_6  and  C9_14 
ROOT
HETATM    1  C5  UNL     1      24.433   0.729  52.271  1.00  0.00     0.110 C 
ENDROOT
BRANCH   1   2
HETATM    2  C4  UNL     1      25.760   0.397  52.854  1.00  0.00    -0.043 A 
HETATM    3  C3  UNL     1      26.437  -0.754  52.433  1.00  0.00     0.011 A 
HETATM    4  C2  UNL     1      27.654  -1.123  52.921  1.00  0.00     0.043 A 
HETATM    5  C1  UNL     1      28.288  -0.365  53.869  1.00  0.00     0.116 A 
HETATM    6  F1  UNL     1      29.487  -0.711  54.362  1.00  0.00    -0.206 F 
HETATM    7  C16 UNL     1      27.656   0.768  54.305  1.00  0.00     0.043 A 
HETATM    8  C15 UNL     1      26.424   1.138  53.809  1.00  0.00     0.011 A 
ENDBRANCH   1   2
BRANCH   1   9
HETATM    9  C6  UNL     1      23.387   0.127  53.106  1.00  0.00     0.085 C 
HETATM   10  N1  UNL     1      23.322  -0.423  54.262  1.00  0.00    -0.225 NA
HETATM   11  C7  UNL     1      22.147  -0.945  54.868  1.00  0.00     0.438 C 
HETATM   12  F2  UNL     1      21.898  -2.243  54.469  1.00  0.00    -0.193 F 
HETATM   13  O1  UNL     1      21.035  -0.116  54.763  1.00  0.00    -0.329 OA
HETATM   14  C8  UNL     1      20.515  -0.020  53.493  1.00  0.00     0.253 C 
HETATM   15  S1  UNL     1      21.811   0.208  52.239  1.00  0.00    -0.087 SA
ENDBRANCH   1   9
BRANCH   1  16
HETATM   16  C9  UNL     1      24.258   2.178  52.012  1.00  0.00    -0.043 A 
HETATM   17  C10 UNL     1      24.646   2.608  50.780  1.00  0.00     0.010 A 
HETATM   18  C11 UNL     1      24.508   3.965  50.470  1.00  0.00     0.024 A 
HETATM   19  C12 UNL     1      23.980   4.835  51.421  1.00  0.00     0.034 A 
HETATM   20 CL1  UNL     1      23.802   6.529  51.050  1.00  0.00    -0.084 Cl
HETATM   21  C13 UNL     1      23.594   4.368  52.668  1.00  0.00     0.024 A 
HETATM   22  C14 UNL     1      23.730   3.031  52.977  1.00  0.00     0.010 A 
ENDBRANCH   1  16
TORSDOF 3
ENDMDL
MODEL 2
REMARK VINA RESULT:      -8.2      3.490      5.576
REMARK  3 active torsions:
REMARK  status: ('A' for Active; 'I' for Inactive)
REMARK    1  A    between atoms: C4_5  and  C5_6 
REMARK    2  A    between atoms: C5_6  and  C6_7 
REMARK    3  A    between atoms: C5_6  and  C9_14 
ROOT
HETATM    1  C5  UNL     1      24.382   1.171  52.025  1.00  0.00     0.110 C 
ENDROOT
BRANCH   1   2
HETATM    2  C4  UNL     1      23.378   0.361  52.766  1.00  0.00    -0.043 A 
HETATM    3  C3  UNL     1      22.079   0.230  52.260  1.00  0.00     0.011 A 
HETATM    4  C2  UNL     1      21.107  -0.495  52.882  1.00  0.00     0.043 A 
HETATM    5  C1  UNL     1      21.362  -1.145  54.059  1.00  0.00     0.116 A 
HETATM    6  F1  UNL     1      20.419  -1.863  54.687  1.00  0.00    -0.206 F 
HETATM    7  C16 UNL     1      22.622  -1.039  54.583  1.00  0.00     0.043 A 
HETATM    8  C15 UNL     1      23.603  -0.305  53.952  1.00  0.00     0.011 A 
ENDBRANCH   1   2
BRANCH   1   9
HETATM    9  C6  UNL     1      23.944   2.572  52.018  1.00  0.00     0.085 C 
HETATM   10  N1  UNL     1      23.657   3.460  52.895  1.00  0.00    -0.225 NA
HETATM   11  C7  UNL     1      23.243   4.793  52.622  1.00  0.00     0.438 C 
HETATM   12  F2  UNL     1      21.883   4.873  52.402  1.00  0.00    -0.193 F 
HETATM   13  O1  UNL     1      23.997   5.434  51.644  1.00  0.00    -0.329 OA
HETATM   14  C8  UNL     1      23.800   4.956  50.369  1.00  0.00     0.253 C 
HETATM   15  S1  UNL     1      23.788   3.139  50.316  1.00  0.00    -0.087 SA
ENDBRANCH   1   9
BRANCH   1  16
HETATM   16  C9  UNL     1      25.767   0.959  52.505  1.00  0.00    -0.043 A 
HETATM   17  C10 UNL     1      26.295  -0.272  52.261  1.00  0.00     0.010 A 
HETATM   18  C11 UNL     1      27.600  -0.538  52.688  1.00  0.00     0.024 A 
HETATM   19  C12 UNL     1      28.322   0.455  53.346  1.00  0.00     0.034 A 
HETATM   20 CL1  UNL     1      29.950   0.139  53.884  1.00  0.00    -0.084 Cl
HETATM   21  C13 UNL     1      27.758   1.700  53.580  1.00  0.00     0.024 A 
HETATM   22  C14 UNL     1      26.471   1.965  53.161  1.00  0.00     0.010 A 
ENDBRANCH   1  16
TORSDOF 3
ENDMDL
MODEL 3
REMARK VINA RESULT:      -7.9      3.447      4.978
REMARK  3 active torsions:
REMARK  status: ('A' for Active; 'I' for Inactive)
REMARK    1  A    between atoms: C4_5  and  C5_6 
REMARK    2  A    between atoms: C5_6  and  C6_7 
REMARK    3  A    between atoms: C5_6  and  C9_14 
ROOT
HETATM    1  C5  UNL     1      25.024   0.898  53.388  1.00  0.00     0.110 C 
ENDROOT
BRANCH   1   2
HETATM    2  C4  UNL     1      26.162  -0.050  53.262  1.00  0.00    -0.043 A 
HETATM    3  C3  UNL     1      27.410   0.286  53.800  1.00  0.00     0.011 A 
HETATM    4  C2  UNL     1      28.498  -0.531  53.725  1.00  0.00     0.043 A 
HETATM    5  C1  UNL     1      28.419  -1.749  53.103  1.00  0.00     0.116 A 
HETATM    6  F1  UNL     1      29.478  -2.567  53.018  1.00  0.00    -0.206 F 
HETATM    7  C16 UNL     1      27.214  -2.110  52.564  1.00  0.00     0.043 A 
HETATM    8  C15 UNL     1      26.115  -1.281  52.642  1.00  0.00     0.011 A 
ENDBRANCH   1   2
BRANCH   1   9
HETATM    9  C6  UNL     1      25.113   1.888  52.307  1.00  0.00     0.085 C 
HETATM   10  N1  UNL     1      25.634   1.942  51.138  1.00  0.00    -0.225 NA
HETATM   11  C7  UNL     1      25.579   3.056  50.255  1.00  0.00     0.438 C 
HETATM   12  F2  UNL     1      26.584   3.966  50.515  1.00  0.00    -0.193 F 
HETATM   13  O1  UNL     1      24.321   3.641  50.154  1.00  0.00    -0.329 OA
HETATM   14  C8  UNL     1      23.919   4.325  51.278  1.00  0.00     0.253 C 
HETATM   15  S1  UNL     1      24.254   3.391  52.802  1.00  0.00    -0.087 SA
ENDBRANCH   1   9
BRANCH   1  16
HETATM   16  C9  UNL     1      23.711   0.220  53.496  1.00  0.00    -0.043 A 
HETATM   17  C10 UNL     1      23.522  -0.522  54.622  1.00  0.00     0.010 A 
HETATM   18  C11 UNL     1      22.304  -1.189  54.788  1.00  0.00     0.024 A 
HETATM   19  C12 UNL     1      21.323  -1.079  53.805  1.00  0.00     0.034 A 
HETATM   20 CL1  UNL     1      19.799  -1.904  53.997  1.00  0.00    -0.084 Cl
HETATM   21  C13 UNL     1      21.544  -0.316  52.669  1.00  0.00     0.024 A 
HETATM   22  C14 UNL     1      22.744   0.342  52.502  1.00  0.00     0.010 A 
ENDBRANCH   1  16
TORSDOF 3
ENDMDL
MODEL 4
REMARK VINA RESULT:      -7.8      2.396      4.947
REMARK  3 active torsions:
REMARK  status: ('A' for Active; 'I' for Inactive)
REMARK    1  A    between atoms: C4_5  and  C5_6 
REMARK    2  A    between atoms: C5_6  and  C6_7 
REMARK    3  A    between atoms: C5_6  and  C9_14 
ROOT
HETATM    1  C5  UNL     1      24.161   1.281  53.386  1.00  0.00     0.110 C 
ENDROOT
BRANCH   1   2
HETATM    2  C4  UNL     1      22.988   0.389  53.586  1.00  0.00    -0.043 A 
HETATM    3  C3  UNL     1      21.711   0.824  53.210  1.00  0.00     0.011 A 
HETATM    4  C2  UNL     1      20.591   0.063  53.362  1.00  0.00     0.043 A 
HETATM    5  C1  UNL     1      20.663  -1.193  53.902  1.00  0.00     0.116 A 
HETATM    6  F1  UNL     1      19.572  -1.957  54.060  1.00  0.00    -0.206 F 
HETATM    7  C16 UNL     1      21.896  -1.651  54.280  1.00  0.00     0.043 A 
HETATM    8  C15 UNL     1      23.028  -0.879  54.126  1.00  0.00     0.011 A 
ENDBRANCH   1   2
BRANCH   1   9
HETATM    9  C6  UNL     1      25.362   0.451  53.230  1.00  0.00     0.085 C 
HETATM   10  N1  UNL     1      25.873  -0.280  52.310  1.00  0.00    -0.225 NA
HETATM   11  C7  UNL     1      27.091  -1.008  52.409  1.00  0.00     0.438 C 
HETATM   12  F2  UNL     1      26.903  -2.243  52.994  1.00  0.00    -0.193 F 
HETATM   13  O1  UNL     1      28.140  -0.288  52.970  1.00  0.00    -0.329 OA
HETATM   14  C8  UNL     1      28.007  -0.042  54.317  1.00  0.00     0.253 C 
HETATM   15  S1  UNL     1      26.329   0.511  54.747  1.00  0.00    -0.087 SA
ENDBRANCH   1   9
BRANCH   1  16
HETATM   16  C9  UNL     1      23.956   2.279  52.310  1.00  0.00    -0.043 A 
HETATM   17  C10 UNL     1      23.948   3.581  52.707  1.00  0.00     0.010 A 
HETATM   18  C11 UNL     1      23.759   4.575  51.741  1.00  0.00     0.024 A 
HETATM   19  C12 UNL     1      23.587   4.210  50.408  1.00  0.00     0.034 A 
HETATM   20 CL1  UNL     1      23.351   5.437  49.192  1.00  0.00    -0.084 Cl
HETATM   21  C13 UNL     1      23.600   2.875  50.033  1.00  0.00     0.024 A 
HETATM   22  C14 UNL     1      23.785   1.893  50.983  1.00  0.00     0.010 A 
ENDBRANCH   1  16
TORSDOF 3
ENDMDL
MODEL 5
REMARK VINA RESULT:      -7.7      4.015      6.205
REMARK  3 active torsions:
REMARK  status: ('A' for Active; 'I' for Inactive)
REMARK    1  A    between atoms: C4_5  and  C5_6 
REMARK    2  A    between atoms: C5_6  and  C6_7 
REMARK    3  A    between atoms: C5_6  and  C9_14 
ROOT
HETATM    1  C5  UNL     1      24.250   1.939  51.278  1.00  0.00     0.110 C 
ENDROOT
BRANCH   1   2
HETATM    2  C4  UNL     1      22.945   1.311  51.615  1.00  0.00    -0.043 A 
HETATM    3  C3  UNL     1      21.993   1.101  50.609  1.00  0.00     0.011 A 
HETATM    4  C2  UNL     1      20.778   0.531  50.842  1.00  0.00     0.043 A 
HETATM    5  C1  UNL     1      20.421   0.128  52.101  1.00  0.00     0.116 A 
HETATM    6  F1  UNL     1      19.229  -0.434  52.350  1.00  0.00    -0.206 F 
HETATM    7  C16 UNL     1      21.327   0.318  53.109  1.00  0.00     0.043 A 
HETATM    8  C15 UNL     1      22.556   0.895  52.871  1.00  0.00     0.011 A 
ENDBRANCH   1   2
BRANCH   1   9
HETATM    9  C6  UNL     1      24.054   3.387  51.136  1.00  0.00     0.085 C 
HETATM   10  N1  UNL     1      23.337   4.287  51.700  1.00  0.00    -0.225 NA
HETATM   11  C7  UNL     1      23.329   5.670  51.369  1.00  0.00     0.438 C 
HETATM   12  F2  UNL     1      22.471   5.941  50.322  1.00  0.00    -0.193 F 
HETATM   13  O1  UNL     1      24.594   6.222  51.199  1.00  0.00    -0.329 OA
HETATM   14  C8  UNL     1      25.251   5.804  50.065  1.00  0.00     0.253 C 
HETATM   15  S1  UNL     1      25.117   4.007  49.822  1.00  0.00    -0.087 SA
ENDBRANCH   1   9
BRANCH   1  16
HETATM   16  C9  UNL     1      25.338   1.551  52.206  1.00  0.00    -0.043 A 
HETATM   17  C10 UNL     1      26.062   0.457  51.842  1.00  0.00     0.010 A 
HETATM   18  C11 UNL     1      27.105   0.036  52.674  1.00  0.00     0.024 A 
HETATM   19  C12 UNL     1      27.376   0.743  53.843  1.00  0.00     0.034 A 
HETATM   20 CL1  UNL     1      28.672   0.232  54.891  1.00  0.00    -0.084 Cl
HETATM   21  C13 UNL     1      26.622   1.854  54.188  1.00  0.00     0.024 A 
HETATM   22  C14 UNL     1      25.592   2.271  53.370  1.00  0.00     0.010 A 
ENDBRANCH   1  16
TORSDOF 3
ENDMDL
MODEL 6
REMARK VINA RESULT:      -7.6      3.515      4.863
REMARK  3 active torsions:
REMARK  status: ('A' for Active; 'I' for Inactive)
REMARK    1  A    between atoms: C4_5  and  C5_6 
REMARK    2  A    between atoms: C5_6  and  C6_7 
REMARK    3  A    between atoms: C5_6  and  C9_14 
ROOT
HETATM    1  C5  UNL     1      23.822   1.737  53.064  1.00  0.00     0.110 C 
ENDROOT
BRANCH   1   2
HETATM    2  C4  UNL     1      25.150   1.076  53.164  1.00  0.00    -0.043 A 
HETATM    3  C3  UNL     1      25.494   0.063  52.260  1.00  0.00     0.011 A 
HETATM    4  C2  UNL     1      26.691  -0.586  52.290  1.00  0.00     0.043 A 
HETATM    5  C1  UNL     1      27.637  -0.272  53.229  1.00  0.00     0.116 A 
HETATM    6  F1  UNL     1      28.821  -0.900  53.275  1.00  0.00    -0.206 F 
HETATM    7  C16 UNL     1      27.335   0.713  54.129  1.00  0.00     0.043 A 
HETATM    8  C15 UNL     1      26.123   1.369  54.097  1.00  0.00     0.011 A 
ENDBRANCH   1   2
BRANCH   1   9
HETATM    9  C6  UNL     1      23.764   2.488  51.803  1.00  0.00     0.085 C 
HETATM   10  N1  UNL     1      23.788   2.209  50.553  1.00  0.00    -0.225 NA
HETATM   11  C7  UNL     1      23.715   3.152  49.491  1.00  0.00     0.438 C 
HETATM   12  F2  UNL     1      24.955   3.673  49.183  1.00  0.00    -0.193 F 
HETATM   13  O1  UNL     1      22.736   4.125  49.659  1.00  0.00    -0.329 OA
HETATM   14  C8  UNL     1      23.008   5.041  50.648  1.00  0.00     0.253 C 
HETATM   15  S1  UNL     1      23.624   4.247  52.164  1.00  0.00    -0.087 SA
ENDBRANCH   1   9
BRANCH   1  16
HETATM   16  C9  UNL     1      22.691   0.805  53.279  1.00  0.00    -0.043 A 
HETATM   17  C10 UNL     1      21.525   1.138  52.658  1.00  0.00     0.010 A 
HETATM   18  C11 UNL     1      20.417   0.301  52.820  1.00  0.00     0.024 A 
HETATM   19  C12 UNL     1      20.532  -0.845  53.604  1.00  0.00     0.034 A 
HETATM   20 CL1  UNL     1      19.160  -1.899  53.816  1.00  0.00    -0.084 Cl
HETATM   21  C13 UNL     1      21.732  -1.159  54.224  1.00  0.00     0.024 A 
HETATM   22  C14 UNL     1      22.827  -0.334  54.067  1.00  0.00     0.010 A 
ENDBRANCH   1  16
TORSDOF 3
ENDMDL
MODEL 7
REMARK VINA RESULT:      -7.4      2.880      3.579
REMARK  3 active torsions:
REMARK  status: ('A' for Active; 'I' for Inactive)
REMARK    1  A    between atoms: C4_5  and  C5_6 
REMARK    2  A    between atoms: C5_6  and  C6_7 
REMARK    3  A    between atoms: C5_6  and  C9_14 
ROOT
HETATM    1  C5  UNL     1      24.278   2.341  50.840  1.00  0.00     0.110 C 
ENDROOT
BRANCH   1   2
HETATM    2  C4  UNL     1      24.935   1.770  52.046  1.00  0.00    -0.043 A 
HETATM    3  C3  UNL     1      24.804   0.405  52.329  1.00  0.00     0.011 A 
HETATM    4  C2  UNL     1      25.377  -0.189  53.413  1.00  0.00     0.043 A 
HETATM    5  C1  UNL     1      26.125   0.540  54.298  1.00  0.00     0.116 A 
HETATM    6  F1  UNL     1      26.697  -0.026  55.372  1.00  0.00    -0.206 F 
HETATM    7  C16 UNL     1      26.275   1.878  54.053  1.00  0.00     0.043 A 
HETATM    8  C15 UNL     1      25.694   2.476  52.955  1.00  0.00     0.011 A 
ENDBRANCH   1   2
BRANCH   1   9
HETATM    9  C6  UNL     1      22.916   2.756  51.197  1.00  0.00     0.085 C 
HETATM   10  N1  UNL     1      22.368   3.438  52.133  1.00  0.00    -0.225 NA
HETATM   11  C7  UNL     1      20.977   3.706  52.259  1.00  0.00     0.438 C 
HETATM   12  F2  UNL     1      20.314   2.681  52.904  1.00  0.00    -0.193 F 
HETATM   13  O1  UNL     1      20.363   4.097  51.074  1.00  0.00    -0.329 OA
HETATM   14  C8  UNL     1      20.234   3.094  50.141  1.00  0.00     0.253 C 
HETATM   15  S1  UNL     1      21.759   2.117  49.975  1.00  0.00    -0.087 SA
ENDBRANCH   1   9
BRANCH   1  16
HETATM   16  C9  UNL     1      25.089   3.390  50.178  1.00  0.00    -0.043 A 
HETATM   17  C10 UNL     1      24.504   4.615  50.083  1.00  0.00     0.010 A 
HETATM   18  C11 UNL     1      25.216   5.651  49.469  1.00  0.00     0.024 A 
HETATM   19  C12 UNL     1      26.495   5.405  48.976  1.00  0.00     0.034 A 
HETATM   20 CL1  UNL     1      27.395   6.686  48.208  1.00  0.00    -0.084 Cl
HETATM   21  C13 UNL     1      27.066   4.147  49.088  1.00  0.00     0.024 A 
HETATM   22  C14 UNL     1      26.366   3.123  49.692  1.00  0.00     0.010 A 
ENDBRANCH   1  16
TORSDOF 3
ENDMDL
MODEL 8
REMARK VINA RESULT:      -7.1      3.853      5.248
REMARK  3 active torsions:
REMARK  status: ('A' for Active; 'I' for Inactive)
REMARK    1  A    between atoms: C4_5  and  C5_6 
REMARK    2  A    between atoms: C5_6  and  C6_7 
REMARK    3  A    between atoms: C5_6  and  C9_14 
ROOT
HETATM    1  C5  UNL     1      23.521   2.332  52.155  1.00  0.00     0.110 C 
ENDROOT
BRANCH   1   2
HETATM    2  C4  UNL     1      24.596   1.325  52.360  1.00  0.00    -0.043 A 
HETATM    3  C3  UNL     1      24.376   0.235  53.211  1.00  0.00     0.011 A 
HETATM    4  C2  UNL     1      25.312  -0.726  53.447  1.00  0.00     0.043 A 
HETATM    5  C1  UNL     1      26.542  -0.670  52.848  1.00  0.00     0.116 A 
HETATM    6  F1  UNL     1      27.477  -1.606  53.068  1.00  0.00    -0.206 F 
HETATM    7  C16 UNL     1      26.792   0.382  52.010  1.00  0.00     0.043 A 
HETATM    8  C15 UNL     1      25.843   1.354  51.773  1.00  0.00     0.011 A 
ENDBRANCH   1   2
BRANCH   1   9
HETATM    9  C6  UNL     1      24.007   3.356  51.222  1.00  0.00     0.085 C 
HETATM   10  N1  UNL     1      24.528   3.375  50.052  1.00  0.00    -0.225 NA
HETATM   11  C7  UNL     1      24.926   4.539  49.338  1.00  0.00     0.438 C 
HETATM   12  F2  UNL     1      26.201   4.941  49.684  1.00  0.00    -0.193 F 
HETATM   13  O1  UNL     1      23.996   5.573  49.373  1.00  0.00    -0.329 OA
HETATM   14  C8  UNL     1      23.872   6.187  50.597  1.00  0.00     0.253 C 
HETATM   15  S1  UNL     1      23.790   4.985  51.959  1.00  0.00    -0.087 SA
ENDBRANCH   1   9
BRANCH   1  16
HETATM   16  C9  UNL     1      22.220   1.726  51.784  1.00  0.00    -0.043 A 
HETATM   17  C10 UNL     1      21.232   1.835  52.714  1.00  0.00     0.010 A 
HETATM   18  C11 UNL     1      19.979   1.285  52.427  1.00  0.00     0.024 A 
HETATM   19  C12 UNL     1      19.774   0.645  51.207  1.00  0.00     0.034 A 
HETATM   20 CL1  UNL     1      18.217  -0.046  50.834  1.00  0.00    -0.084 Cl
HETATM   21  C13 UNL     1      20.800   0.550  50.279  1.00  0.00     0.024 A 
HETATM   22  C14 UNL     1      22.037   1.090  50.559  1.00  0.00     0.010 A 
ENDBRANCH   1  16
TORSDOF 3
ENDMDL
MODEL 9
REMARK VINA RESULT:      -6.7      9.248     11.504
REMARK  3 active torsions:
REMARK  status: ('A' for Active; 'I' for Inactive)
REMARK    1  A    between atoms: C4_5  and  C5_6 
REMARK    2  A    between atoms: C5_6  and  C6_7 
REMARK    3  A    between atoms: C5_6  and  C9_14 
ROOT
HETATM    1  C5  UNL     1      30.452   7.526  47.306  1.00  0.00     0.110 C 
ENDROOT
BRANCH   1   2
HETATM    2  C4  UNL     1      30.587   8.907  47.841  1.00  0.00    -0.043 A 
HETATM    3  C3  UNL     1      30.848   9.970  46.967  1.00  0.00     0.011 A 
HETATM    4  C2  UNL     1      30.983  11.260  47.384  1.00  0.00     0.043 A 
HETATM    5  C1  UNL     1      30.868  11.585  48.709  1.00  0.00     0.116 A 
HETATM    6  F1  UNL     1      30.999  12.849  49.138  1.00  0.00    -0.206 F 
HETATM    7  C16 UNL     1      30.613  10.572  49.592  1.00  0.00     0.043 A 
HETATM    8  C15 UNL     1      30.477   9.267  49.168  1.00  0.00     0.011 A 
ENDBRANCH   1   2
BRANCH   1   9
HETATM    9  C6  UNL     1      31.687   6.787  47.594  1.00  0.00     0.085 C 
HETATM   10  N1  UNL     1      32.360   6.472  48.638  1.00  0.00    -0.225 NA
HETATM   11  C7  UNL     1      33.568   5.722  48.652  1.00  0.00     0.438 C 
HETATM   12  F2  UNL     1      34.671   6.524  48.441  1.00  0.00    -0.193 F 
HETATM   13  O1  UNL     1      33.547   4.592  47.841  1.00  0.00    -0.329 OA
HETATM   14  C8  UNL     1      33.557   4.860  46.491  1.00  0.00     0.253 C 
HETATM   15  S1  UNL     1      32.399   6.191  46.051  1.00  0.00    -0.087 SA
ENDBRANCH   1   9
BRANCH   1  16
HETATM   16  C9  UNL     1      29.211   6.850  47.750  1.00  0.00    -0.043 A 
HETATM   17  C10 UNL     1      28.074   7.595  47.675  1.00  0.00     0.010 A 
HETATM   18  C11 UNL     1      26.866   7.017  48.078  1.00  0.00     0.024 A 
HETATM   19  C12 UNL     1      26.856   5.703  48.541  1.00  0.00     0.034 A 
HETATM   20 CL1  UNL     1      25.358   4.968  49.047  1.00  0.00    -0.084 Cl
HETATM   21  C13 UNL     1      28.029   4.968  48.605  1.00  0.00     0.024 A 
HETATM   22  C14 UNL     1      29.222   5.536  48.210  1.00  0.00     0.010 A 
ENDBRANCH   1  16
TORSDOF 3
ENDMDL
