MODEL 1
REMARK VINA RESULT:      -7.2      0.000      0.000
REMARK  4 active torsions:
REMARK  status: ('A' for Active; 'I' for Inactive)
REMARK    1  A    between atoms: C2_2  and  C3_3 
REMARK    2  A    between atoms: C4_4  and  C5_5 
REMARK    3  A    between atoms: C4_4  and  C7_8 
REMARK    4  A    between atoms: C5_5  and  C6_6 
ROOT
HETATM    1  C7  UNL     1      25.255   3.942  49.824  1.00  0.00     0.310 C 
HETATM    2  O1  UNL     1      25.310   3.976  51.315  1.00  0.00    -0.273 OA
HETATM    3  C8  UNL     1      25.117   2.870  51.856  1.00  0.00     0.007 C 
HETATM    4  P1  UNL     1      24.910   1.739  52.386  1.00  0.00    -0.005 P 
HETATM    5  C9  UNL     1      24.481  -0.481  53.383  1.00  0.00     0.020 C 
HETATM    6  C10 UNL     1      23.141  -0.465  53.521  1.00  0.00     0.030 C 
HETATM    7  C11 UNL     1      21.968   0.318  53.313  1.00  0.00     0.027 C 
HETATM    8  C12 UNL     1      20.939  -0.402  53.730  1.00  0.00    -0.002 C 
HETATM    9  C13 UNL     1      21.061  -1.762  54.297  1.00  0.00     0.038 C 
HETATM   10  N1  UNL     1      21.793   1.602  52.789  1.00  0.00    -0.366 N 
HETATM   11  C14 UNL     1      21.405   2.307  51.649  1.00  0.00     0.095 C 
HETATM   12  C15 UNL     1      20.996   2.997  50.621  1.00  0.00     0.064 C 
HETATM   13  S1  UNL     1      21.527   3.092  48.866  1.00  0.00    -0.114 SA
HETATM   14  C16 UNL     1      23.358   2.962  48.977  1.00  0.00     0.249 C 
HETATM   15  O2  UNL     1      23.901   4.117  49.543  1.00  0.00    -0.346 OA
HETATM   16  H8  UNL     1      24.836   1.310  52.594  1.00  0.00     0.076 HD
HETATM   17  H15 UNL     1      22.090   2.070  53.663  1.00  0.00     0.165 HD
ENDROOT
BRANCH   1  18
HETATM   18  C4  UNL     1      26.225   4.812  49.305  1.00  0.00    -0.004 C 
HETATM   19  C3  UNL     1      27.393   4.690  48.720  1.00  0.00     0.011 C 
BRANCH  19  20
HETATM   20  C2  UNL     1      28.201   5.792  48.277  1.00  0.00    -0.010 C 
HETATM   21  C1  UNL     1      29.481   5.506  48.152  1.00  0.00     0.011 C 
ENDBRANCH  19  20
BRANCH  18  22
HETATM   22  C5  UNL     1      25.631   6.117  49.564  1.00  0.00     0.024 C 
BRANCH  22  23
HETATM   23  C6  UNL     1      25.232   7.268  50.068  1.00  0.00     0.442 C 
HETATM   24  F1  UNL     1      26.415   7.743  50.529  1.00  0.00    -0.452 F 
ENDBRANCH  22  23
ENDBRANCH  18  22
ENDBRANCH   1  18
TORSDOF 4
ENDMDL
MODEL 2
REMARK VINA RESULT:      -7.1      3.837      6.643
REMARK  4 active torsions:
REMARK  status: ('A' for Active; 'I' for Inactive)
REMARK    1  A    between atoms: C2_2  and  C3_3 
REMARK    2  A    between atoms: C4_4  and  C5_5 
REMARK    3  A    between atoms: C4_4  and  C7_8 
REMARK    4  A    between atoms: C5_5  and  C6_6 
ROOT
HETATM    1  C7  UNL     1      26.299   1.209  52.376  1.00  0.00     0.310 C 
HETATM    2  O1  UNL     1      26.731   1.399  50.959  1.00  0.00    -0.273 OA
HETATM    3  C8  UNL     1      26.468   2.526  50.495  1.00  0.00     0.007 C 
HETATM    4  P1  UNL     1      26.184   3.673  50.040  1.00  0.00    -0.005 P 
HETATM    5  C9  UNL     1      25.595   5.914  49.183  1.00  0.00     0.020 C 
HETATM    6  C10 UNL     1      24.361   5.702  48.685  1.00  0.00     0.030 C 
HETATM    7  C11 UNL     1      23.349   4.717  48.490  1.00  0.00     0.027 C 
HETATM    8  C12 UNL     1      22.337   5.314  47.880  1.00  0.00    -0.002 C 
HETATM    9  C13 UNL     1      22.330   6.744  47.502  1.00  0.00     0.038 C 
HETATM   10  N1  UNL     1      23.301   3.361  48.820  1.00  0.00    -0.366 N 
HETATM   11  C14 UNL     1      22.786   2.445  49.739  1.00  0.00     0.095 C 
HETATM   12  C15 UNL     1      22.274   1.557  50.545  1.00  0.00     0.064 C 
HETATM   13  S1  UNL     1      22.359   1.297  52.361  1.00  0.00    -0.114 SA
HETATM   14  C16 UNL     1      24.098   1.736  52.765  1.00  0.00     0.249 C 
HETATM   15  O2  UNL     1      24.979   0.779  52.259  1.00  0.00    -0.346 OA
HETATM   16  H8  UNL     1      26.082   4.110  49.862  1.00  0.00     0.076 HD
HETATM   17  H15 UNL     1      23.892   3.077  48.020  1.00  0.00     0.165 HD
ENDROOT
BRANCH   1  18
HETATM   18  C4  UNL     1      27.258   0.441  53.052  1.00  0.00    -0.004 C 
HETATM   19  C3  UNL     1      28.310   0.681  53.799  1.00  0.00     0.011 C 
BRANCH  19  20
HETATM   20  C2  UNL     1      29.144  -0.333  54.382  1.00  0.00    -0.010 C 
HETATM   21  C1  UNL     1      30.186  -0.663  53.646  1.00  0.00     0.011 C 
ENDBRANCH  19  20
BRANCH  18  22
HETATM   22  C5  UNL     1      26.835  -0.917  52.741  1.00  0.00     0.024 C 
BRANCH  22  23
HETATM   23  C6  UNL     1      26.660  -2.124  52.240  1.00  0.00     0.442 C 
HETATM   24  F1  UNL     1      27.780  -2.733  52.704  1.00  0.00    -0.452 F 
ENDBRANCH  22  23
ENDBRANCH  18  22
ENDBRANCH   1  18
TORSDOF 4
ENDMDL
MODEL 3
REMARK VINA RESULT:      -7.0      3.651      6.266
REMARK  4 active torsions:
REMARK  status: ('A' for Active; 'I' for Inactive)
REMARK    1  A    between atoms: C2_2  and  C3_3 
REMARK    2  A    between atoms: C4_4  and  C5_5 
REMARK    3  A    between atoms: C4_4  and  C7_8 
REMARK    4  A    between atoms: C5_5  and  C6_6 
ROOT
HETATM    1  C7  UNL     1      26.008   2.131  51.647  1.00  0.00     0.310 C 
HETATM    2  O1  UNL     1      25.252   2.824  52.732  1.00  0.00    -0.273 OA
HETATM    3  C8  UNL     1      24.126   3.232  52.387  1.00  0.00     0.007 C 
HETATM    4  P1  UNL     1      22.989   3.646  52.013  1.00  0.00    -0.005 P 
HETATM    5  C9  UNL     1      20.787   4.455  51.240  1.00  0.00     0.020 C 
HETATM    6  C10 UNL     1      21.092   5.687  50.786  1.00  0.00     0.030 C 
HETATM    7  C11 UNL     1      22.153   6.621  50.606  1.00  0.00     0.027 C 
HETATM    8  C12 UNL     1      21.631   7.703  50.050  1.00  0.00    -0.002 C 
HETATM    9  C13 UNL     1      20.200   7.843  49.706  1.00  0.00     0.038 C 
HETATM   10  N1  UNL     1      23.514   6.546  50.914  1.00  0.00    -0.366 N 
HETATM   11  C14 UNL     1      24.780   6.334  50.366  1.00  0.00     0.095 C 
HETATM   12  C15 UNL     1      25.981   6.197  49.878  1.00  0.00     0.064 C 
HETATM   13  S1  UNL     1      26.819   4.867  48.929  1.00  0.00    -0.114 SA
HETATM   14  C16 UNL     1      26.161   3.330  49.695  1.00  0.00     0.249 C 
HETATM   15  O2  UNL     1      26.661   3.170  50.988  1.00  0.00    -0.346 OA
HETATM   16  H8  UNL     1      22.554   3.802  51.877  1.00  0.00     0.076 HD
HETATM   17  H15 UNL     1      23.365   6.734  51.920  1.00  0.00     0.165 HD
ENDROOT
BRANCH   1  18
HETATM   18  C4  UNL     1      26.720   1.054  52.196  1.00  0.00    -0.004 C 
HETATM   19  C3  UNL     1      26.588  -0.251  52.232  1.00  0.00     0.011 C 
BRANCH  19  20
HETATM   20  C2  UNL     1      27.499  -1.144  52.892  1.00  0.00    -0.010 C 
HETATM   21  C1  UNL     1      27.378  -2.404  52.527  1.00  0.00     0.011 C 
ENDBRANCH  19  20
BRANCH  18  22
HETATM   22  C5  UNL     1      27.838   1.728  52.842  1.00  0.00     0.024 C 
BRANCH  22  23
HETATM   23  C6  UNL     1      28.682   2.300  53.679  1.00  0.00     0.442 C 
HETATM   24  F1  UNL     1      29.211   1.197  54.266  1.00  0.00    -0.452 F 
ENDBRANCH  22  23
ENDBRANCH  18  22
ENDBRANCH   1  18
TORSDOF 4
ENDMDL
MODEL 4
REMARK VINA RESULT:      -7.0      3.747      6.153
REMARK  4 active torsions:
REMARK  status: ('A' for Active; 'I' for Inactive)
REMARK    1  A    between atoms: C2_2  and  C3_3 
REMARK    2  A    between atoms: C4_4  and  C5_5 
REMARK    3  A    between atoms: C4_4  and  C7_8 
REMARK    4  A    between atoms: C5_5  and  C6_6 
ROOT
HETATM    1  C7  UNL     1      26.522   1.831  52.178  1.00  0.00     0.310 C 
HETATM    2  O1  UNL     1      25.640   2.499  53.181  1.00  0.00    -0.273 OA
HETATM    3  C8  UNL     1      24.463   2.653  52.800  1.00  0.00     0.007 C 
HETATM    4  P1  UNL     1      23.275   2.807  52.390  1.00  0.00    -0.005 P 
HETATM    5  C9  UNL     1      20.973   3.107  51.548  1.00  0.00     0.020 C 
HETATM    6  C10 UNL     1      21.054   4.311  50.949  1.00  0.00     0.030 C 
HETATM    7  C11 UNL     1      21.932   5.395  50.651  1.00  0.00     0.027 C 
HETATM    8  C12 UNL     1      21.230   6.291  49.976  1.00  0.00    -0.002 C 
HETATM    9  C13 UNL     1      19.800   6.128  49.631  1.00  0.00     0.038 C 
HETATM   10  N1  UNL     1      23.280   5.605  50.952  1.00  0.00    -0.366 N 
HETATM   11  C14 UNL     1      24.570   5.563  50.422  1.00  0.00     0.095 C 
HETATM   12  C15 UNL     1      25.782   5.589  49.942  1.00  0.00     0.064 C 
HETATM   13  S1  UNL     1      26.858   4.331  49.149  1.00  0.00    -0.114 SA
HETATM   14  C16 UNL     1      26.480   2.800  50.096  1.00  0.00     0.249 C 
HETATM   15  O2  UNL     1      26.984   2.887  51.395  1.00  0.00    -0.346 OA
HETATM   16  H8  UNL     1      22.820   2.864  52.242  1.00  0.00     0.076 HD
HETATM   17  H15 UNL     1      23.086   5.880  51.931  1.00  0.00     0.165 HD
ENDROOT
BRANCH   1  18
HETATM   18  C4  UNL     1      27.411   0.974  52.843  1.00  0.00    -0.004 C 
HETATM   19  C3  UNL     1      28.509   1.107  53.549  1.00  0.00     0.011 C 
BRANCH  19  20
HETATM   20  C2  UNL     1      29.240   0.017  54.131  1.00  0.00    -0.010 C 
HETATM   21  C1  UNL     1      30.245  -0.413  53.395  1.00  0.00     0.011 C 
ENDBRANCH  19  20
BRANCH  18  22
HETATM   22  C5  UNL     1      26.824  -0.333  52.581  1.00  0.00     0.024 C 
BRANCH  22  23
HETATM   23  C6  UNL     1      26.299  -1.541  52.648  1.00  0.00     0.442 C 
HETATM   24  F1  UNL     1      27.424  -2.290  52.529  1.00  0.00    -0.452 F 
ENDBRANCH  22  23
ENDBRANCH  18  22
ENDBRANCH   1  18
TORSDOF 4
ENDMDL
MODEL 5
REMARK VINA RESULT:      -7.0      3.318      5.255
REMARK  4 active torsions:
REMARK  status: ('A' for Active; 'I' for Inactive)
REMARK    1  A    between atoms: C2_2  and  C3_3 
REMARK    2  A    between atoms: C4_4  and  C5_5 
REMARK    3  A    between atoms: C4_4  and  C7_8 
REMARK    4  A    between atoms: C5_5  and  C6_6 
ROOT
HETATM    1  C7  UNL     1      25.820   1.093  52.432  1.00  0.00     0.310 C 
HETATM    2  O1  UNL     1      24.826   0.981  53.540  1.00  0.00    -0.273 OA
HETATM    3  C8  UNL     1      23.655   0.796  53.156  1.00  0.00     0.007 C 
HETATM    4  P1  UNL     1      22.471   0.617  52.744  1.00  0.00    -0.005 P 
HETATM    5  C9  UNL     1      20.172   0.289  51.901  1.00  0.00     0.020 C 
HETATM    6  C10 UNL     1      19.745   1.560  51.766  1.00  0.00     0.030 C 
HETATM    7  C11 UNL     1      20.120   2.926  51.925  1.00  0.00     0.027 C 
HETATM    8  C12 UNL     1      19.082   3.661  51.557  1.00  0.00    -0.002 C 
HETATM    9  C13 UNL     1      17.801   3.096  51.079  1.00  0.00     0.038 C 
HETATM   10  N1  UNL     1      21.305   3.515  52.374  1.00  0.00    -0.366 N 
HETATM   11  C14 UNL     1      22.471   4.156  51.952  1.00  0.00     0.095 C 
HETATM   12  C15 UNL     1      23.544   4.807  51.597  1.00  0.00     0.064 C 
HETATM   13  S1  UNL     1      24.957   4.414  50.493  1.00  0.00    -0.114 SA
HETATM   14  C16 UNL     1      25.259   2.630  50.820  1.00  0.00     0.249 C 
HETATM   15  O2  UNL     1      25.787   2.446  52.099  1.00  0.00    -0.346 OA
HETATM   16  H8  UNL     1      22.018   0.545  52.594  1.00  0.00     0.076 HD
HETATM   17  H15 UNL     1      21.094   3.338  53.371  1.00  0.00     0.165 HD
ENDROOT
BRANCH   1  18
HETATM   18  C4  UNL     1      27.014   0.466  52.817  1.00  0.00    -0.004 C 
HETATM   19  C3  UNL     1      27.495  -0.755  52.795  1.00  0.00     0.011 C 
BRANCH  19  20
HETATM   20  C2  UNL     1      28.797  -1.126  53.274  1.00  0.00    -0.010 C 
HETATM   21  C1  UNL     1      29.053  -2.416  53.194  1.00  0.00     0.011 C 
ENDBRANCH  19  20
BRANCH  18  22
HETATM   22  C5  UNL     1      27.785   1.583  53.347  1.00  0.00     0.024 C 
BRANCH  22  23
HETATM   23  C6  UNL     1      28.679   2.517  53.605  1.00  0.00     0.442 C 
HETATM   24  F1  UNL     1      29.387   1.898  54.582  1.00  0.00    -0.452 F 
ENDBRANCH  22  23
ENDBRANCH  18  22
ENDBRANCH   1  18
TORSDOF 4
ENDMDL
MODEL 6
REMARK VINA RESULT:      -6.6      3.631      6.892
REMARK  4 active torsions:
REMARK  status: ('A' for Active; 'I' for Inactive)
REMARK    1  A    between atoms: C2_2  and  C3_3 
REMARK    2  A    between atoms: C4_4  and  C5_5 
REMARK    3  A    between atoms: C4_4  and  C7_8 
REMARK    4  A    between atoms: C5_5  and  C6_6 
ROOT
HETATM    1  C7  UNL     1      25.956   2.386  51.510  1.00  0.00     0.310 C 
HETATM    2  O1  UNL     1      26.344   2.435  50.070  1.00  0.00    -0.273 OA
HETATM    3  C8  UNL     1      26.514   3.588  49.628  1.00  0.00     0.007 C 
HETATM    4  P1  UNL     1      26.674   4.769  49.198  1.00  0.00    -0.005 P 
HETATM    5  C9  UNL     1      26.955   7.086  48.390  1.00  0.00     0.020 C 
HETATM    6  C10 UNL     1      25.710   7.385  47.973  1.00  0.00     0.030 C 
HETATM    7  C11 UNL     1      24.384   6.877  47.840  1.00  0.00     0.027 C 
HETATM    8  C12 UNL     1      23.651   7.837  47.300  1.00  0.00    -0.002 C 
HETATM    9  C13 UNL     1      24.180   9.167  46.928  1.00  0.00     0.038 C 
HETATM   10  N1  UNL     1      23.831   5.636  48.167  1.00  0.00    -0.366 N 
HETATM   11  C14 UNL     1      23.054   4.966  49.113  1.00  0.00     0.095 C 
HETATM   12  C15 UNL     1      22.285   4.323  49.947  1.00  0.00     0.064 C 
HETATM   13  S1  UNL     1      22.367   3.998  51.752  1.00  0.00    -0.114 SA
HETATM   14  C16 UNL     1      24.161   3.715  52.045  1.00  0.00     0.249 C 
HETATM   15  O2  UNL     1      24.568   2.506  51.478  1.00  0.00    -0.346 OA
HETATM   16  H8  UNL     1      26.740   5.216  49.029  1.00  0.00     0.076 HD
HETATM   17  H15 UNL     1      24.217   5.169  47.328  1.00  0.00     0.165 HD
ENDROOT
BRANCH   1  18
HETATM   18  C4  UNL     1      26.578   1.286  52.119  1.00  0.00    -0.004 C 
HETATM   19  C3  UNL     1      26.403  -0.014  52.136  1.00  0.00     0.011 C 
BRANCH  19  20
HETATM   20  C2  UNL     1      27.218  -0.936  52.876  1.00  0.00    -0.010 C 
HETATM   21  C1  UNL     1      27.110  -2.189  52.482  1.00  0.00     0.011 C 
ENDBRANCH  19  20
BRANCH  18  22
HETATM   22  C5  UNL     1      27.648   1.924  52.874  1.00  0.00     0.024 C 
BRANCH  22  23
HETATM   23  C6  UNL     1      28.685   2.214  53.635  1.00  0.00     0.442 C 
HETATM   24  F1  UNL     1      29.514   1.196  53.298  1.00  0.00    -0.452 F 
ENDBRANCH  22  23
ENDBRANCH  18  22
ENDBRANCH   1  18
TORSDOF 4
ENDMDL
MODEL 7
REMARK VINA RESULT:      -6.6      3.772      7.462
REMARK  4 active torsions:
REMARK  status: ('A' for Active; 'I' for Inactive)
REMARK    1  A    between atoms: C2_2  and  C3_3 
REMARK    2  A    between atoms: C4_4  and  C5_5 
REMARK    3  A    between atoms: C4_4  and  C7_8 
REMARK    4  A    between atoms: C5_5  and  C6_6 
ROOT
HETATM    1  C7  UNL     1      21.035   0.589  52.580  1.00  0.00     0.310 C 
HETATM    2  O1  UNL     1      22.067  -0.440  52.256  1.00  0.00    -0.273 OA
HETATM    3  C8  UNL     1      23.105  -0.351  52.940  1.00  0.00     0.007 C 
HETATM    4  P1  UNL     1      24.155  -0.238  53.640  1.00  0.00    -0.005 P 
HETATM    5  C9  UNL     1      26.193   0.029  55.009  1.00  0.00     0.020 C 
HETATM    6  C10 UNL     1      26.924   0.871  54.253  1.00  0.00     0.030 C 
HETATM    7  C11 UNL     1      26.939   1.609  53.033  1.00  0.00     0.027 C 
HETATM    8  C12 UNL     1      28.093   2.255  52.983  1.00  0.00    -0.002 C 
HETATM    9  C13 UNL     1      29.127   2.178  54.038  1.00  0.00     0.038 C 
HETATM   10  N1  UNL     1      26.000   1.716  52.004  1.00  0.00    -0.366 N 
HETATM   11  C14 UNL     1      25.008   2.539  51.470  1.00  0.00     0.095 C 
HETATM   12  C15 UNL     1      24.116   3.309  50.911  1.00  0.00     0.064 C 
HETATM   13  S1  UNL     1      22.549   4.064  51.499  1.00  0.00    -0.114 SA
HETATM   14  C16 UNL     1      21.821   2.747  52.556  1.00  0.00     0.249 C 
HETATM   15  O2  UNL     1      21.390   1.671  51.777  1.00  0.00    -0.346 OA
HETATM   16  H8  UNL     1      24.556  -0.202  53.906  1.00  0.00     0.076 HD
HETATM   17  H15 UNL     1      26.253   0.803  51.589  1.00  0.00     0.165 HD
ENDROOT
BRANCH   1  18
HETATM   18  C4  UNL     1      19.761   0.008  52.497  1.00  0.00    -0.004 C 
HETATM   19  C3  UNL     1      19.020  -0.764  53.256  1.00  0.00     0.011 C 
BRANCH  19  20
HETATM   20  C2  UNL     1      17.705  -1.226  52.910  1.00  0.00    -0.010 C 
HETATM   21  C1  UNL     1      17.425  -2.437  53.348  1.00  0.00     0.011 C 
ENDBRANCH  19  20
BRANCH  18  22
HETATM   22  C5  UNL     1      19.297   0.476  51.198  1.00  0.00     0.024 C 
BRANCH  22  23
HETATM   23  C6  UNL     1      18.604   0.894  50.157  1.00  0.00     0.442 C 
HETATM   24  F1  UNL     1      19.597   0.985  49.238  1.00  0.00    -0.452 F 
ENDBRANCH  22  23
ENDBRANCH  18  22
ENDBRANCH   1  18
TORSDOF 4
ENDMDL
MODEL 8
REMARK VINA RESULT:      -6.6      1.528      2.162
REMARK  4 active torsions:
REMARK  status: ('A' for Active; 'I' for Inactive)
REMARK    1  A    between atoms: C2_2  and  C3_3 
REMARK    2  A    between atoms: C4_4  and  C5_5 
REMARK    3  A    between atoms: C4_4  and  C7_8 
REMARK    4  A    between atoms: C5_5  and  C6_6 
ROOT
HETATM    1  C7  UNL     1      23.989   4.376  49.516  1.00  0.00     0.310 C 
HETATM    2  O1  UNL     1      24.091   4.550  50.995  1.00  0.00    -0.273 OA
HETATM    3  C8  UNL     1      24.227   3.482  51.624  1.00  0.00     0.007 C 
HETATM    4  P1  UNL     1      24.356   2.385  52.244  1.00  0.00    -0.005 P 
HETATM    5  C9  UNL     1      24.587   0.224  53.418  1.00  0.00     0.020 C 
HETATM    6  C10 UNL     1      23.299  -0.109  53.635  1.00  0.00     0.030 C 
HETATM    7  C11 UNL     1      21.950   0.312  53.444  1.00  0.00     0.027 C 
HETATM    8  C12 UNL     1      21.173  -0.620  53.972  1.00  0.00    -0.002 C 
HETATM    9  C13 UNL     1      21.683  -1.846  54.625  1.00  0.00     0.038 C 
HETATM   10  N1  UNL     1      21.412   1.452  52.842  1.00  0.00    -0.366 N 
HETATM   11  C14 UNL     1      20.803   1.929  51.681  1.00  0.00     0.095 C 
HETATM   12  C15 UNL     1      20.182   2.395  50.634  1.00  0.00     0.064 C 
HETATM   13  S1  UNL     1      20.598   2.481  48.848  1.00  0.00    -0.114 SA
HETATM   14  C16 UNL     1      22.398   2.856  48.856  1.00  0.00     0.249 C 
HETATM   15  O2  UNL     1      22.629   4.158  49.306  1.00  0.00    -0.346 OA
HETATM   16  H8  UNL     1      24.410   1.971  52.485  1.00  0.00     0.076 HD
HETATM   17  H15 UNL     1      21.605   2.055  53.661  1.00  0.00     0.165 HD
ENDROOT
BRANCH   1  18
HETATM   18  C4  UNL     1      24.664   5.428  48.879  1.00  0.00    -0.004 C 
HETATM   19  C3  UNL     1      24.330   6.553  48.292  1.00  0.00     0.011 C 
BRANCH  19  20
HETATM   20  C2  UNL     1      25.262   7.473  47.703  1.00  0.00    -0.010 C 
HETATM   21  C1  UNL     1      24.741   8.251  46.777  1.00  0.00     0.011 C 
ENDBRANCH  19  20
BRANCH  18  22
HETATM   22  C5  UNL     1      26.054   5.005  48.986  1.00  0.00     0.024 C 
BRANCH  22  23
HETATM   23  C6  UNL     1      27.188   4.344  49.110  1.00  0.00     0.442 C 
HETATM   24  F1  UNL     1      27.938   4.993  48.185  1.00  0.00    -0.452 F 
ENDBRANCH  22  23
ENDBRANCH  18  22
ENDBRANCH   1  18
TORSDOF 4
ENDMDL
MODEL 9
REMARK VINA RESULT:      -6.5      3.599      6.437
REMARK  4 active torsions:
REMARK  status: ('A' for Active; 'I' for Inactive)
REMARK    1  A    between atoms: C2_2  and  C3_3 
REMARK    2  A    between atoms: C4_4  and  C5_5 
REMARK    3  A    between atoms: C4_4  and  C7_8 
REMARK    4  A    between atoms: C5_5  and  C6_6 
ROOT
HETATM    1  C7  UNL     1      25.468   2.086  51.723  1.00  0.00     0.310 C 
HETATM    2  O1  UNL     1      24.685   2.781  52.787  1.00  0.00    -0.273 OA
HETATM    3  C8  UNL     1      23.594   3.241  52.397  1.00  0.00     0.007 C 
HETATM    4  P1  UNL     1      22.494   3.708  51.978  1.00  0.00    -0.005 P 
HETATM    5  C9  UNL     1      20.366   4.622  51.119  1.00  0.00     0.020 C 
HETATM    6  C10 UNL     1      20.739   5.852  50.714  1.00  0.00     0.030 C 
HETATM    7  C11 UNL     1      21.843   6.748  50.614  1.00  0.00     0.027 C 
HETATM    8  C12 UNL     1      21.391   7.863  50.061  1.00  0.00    -0.002 C 
HETATM    9  C13 UNL     1      19.984   8.068  49.650  1.00  0.00     0.038 C 
HETATM   10  N1  UNL     1      23.182   6.613  50.986  1.00  0.00    -0.366 N 
HETATM   11  C14 UNL     1      24.466   6.366  50.496  1.00  0.00     0.095 C 
HETATM   12  C15 UNL     1      25.684   6.194  50.065  1.00  0.00     0.064 C 
HETATM   13  S1  UNL     1      26.518   4.857  49.124  1.00  0.00    -0.114 SA
HETATM   14  C16 UNL     1      25.765   3.328  49.814  1.00  0.00     0.249 C 
HETATM   15  O2  UNL     1      26.192   3.116  51.126  1.00  0.00    -0.346 OA
HETATM   16  H8  UNL     1      22.071   3.885  51.826  1.00  0.00     0.076 HD
HETATM   17  H15 UNL     1      22.989   6.781  51.989  1.00  0.00     0.165 HD
ENDROOT
BRANCH   1  18
HETATM   18  C4  UNL     1      26.110   0.969  52.277  1.00  0.00    -0.004 C 
HETATM   19  C3  UNL     1      27.338   0.507  52.323  1.00  0.00     0.011 C 
BRANCH  19  20
HETATM   20  C2  UNL     1      27.726  -0.708  52.983  1.00  0.00    -0.010 C 
HETATM   21  C1  UNL     1      28.712  -0.564  53.844  1.00  0.00     0.011 C 
ENDBRANCH  19  20
BRANCH  18  22
HETATM   22  C5  UNL     1      25.004   0.266  52.910  1.00  0.00     0.024 C 
BRANCH  22  23
HETATM   23  C6  UNL     1      24.181  -0.615  53.445  1.00  0.00     0.442 C 
HETATM   24  F1  UNL     1      24.863  -0.911  54.579  1.00  0.00    -0.452 F 
ENDBRANCH  22  23
ENDBRANCH  18  22
ENDBRANCH   1  18
TORSDOF 4
ENDMDL
