MODEL 1
REMARK VINA RESULT:      -9.2      0.000      0.000
REMARK  3 active torsions:
REMARK  status: ('A' for Active; 'I' for Inactive)
REMARK    1  A    between atoms: C5_7  and  C6_8 
REMARK    2  A    between atoms: C10_14  and  N4_15 
REMARK    3  A    between atoms: N4_15  and  C11_16 
ROOT
HETATM    1  C6  UNL     1      26.502   2.609  50.367  1.00  0.00    -0.003 C 
HETATM    2  C7  UNL     1      25.412   2.632  51.173  1.00  0.00     0.004 A 
HETATM    3  C8  UNL     1      24.490   3.767  51.314  1.00  0.00     0.192 A 
HETATM    4  N2  UNL     1      23.468   3.505  52.250  1.00  0.00    -0.278 NA
HETATM    5  C9  UNL     1      23.295   2.448  52.900  1.00  0.00     0.229 A 
HETATM    6  N3  UNL     1      24.140   1.316  52.786  1.00  0.00    -0.225 NA
HETATM    7  C10 UNL     1      25.131   1.436  51.957  1.00  0.00     0.133 A 
ENDROOT
BRANCH   1   8
HETATM    8  C5  UNL     1      26.671   3.834  49.644  1.00  0.00     0.070 C 
HETATM    9  C4  UNL     1      27.243   4.780  48.931  1.00  0.00     0.024 C 
HETATM   10  N1  UNL     1      28.555   4.916  48.400  1.00  0.00    -0.269 NA
HETATM   11  C18 UNL     1      26.098   5.673  48.856  1.00  0.00     0.082 C 
HETATM   12  C3  UNL     1      29.386   5.814  48.053  1.00  0.00     0.118 C 
HETATM   13  C2  UNL     1      29.372   7.259  48.035  1.00  0.00     0.038 C 
HETATM   14  C1  UNL     1      28.347   8.093  47.869  1.00  0.00     0.012 C 
HETATM   15 BR1  UNL     1      28.871   9.913  47.931  1.00  0.00    -0.051 Br
HETATM   16  C20 UNL     1      26.898   7.933  47.646  1.00  0.00     0.015 C 
HETATM   17  C19 UNL     1      26.161   6.909  48.110  1.00  0.00    -0.020 C 
ENDBRANCH   1   8
BRANCH   7  18
HETATM   18  N4  UNL     1      25.956   0.280  51.820  1.00  0.00    -0.366 N 
HETATM   19  H8  UNL     1      25.971  -0.207  50.866  1.00  0.00     0.161 HD
BRANCH  18  20
HETATM   20  C11 UNL     1      26.755  -0.239  52.946  1.00  0.00     0.109 C 
HETATM   21  C12 UNL     1      27.819   0.732  53.193  1.00  0.00    -0.002 C 
HETATM   22  C13 UNL     1      29.119   0.773  53.519  1.00  0.00    -0.001 C 
HETATM   23  C14 UNL     1      29.915  -0.443  53.740  1.00  0.00     0.012 C 
HETATM   24  C15 UNL     1      29.733  -1.696  53.431  1.00  0.00    -0.030 C 
HETATM   25  C16 UNL     1      28.479  -2.013  53.247  1.00  0.00    -0.012 C 
HETATM   26  C17 UNL     1      27.205  -1.633  52.660  1.00  0.00     0.057 C 
ENDBRANCH  18  20
ENDBRANCH   7  18
TORSDOF 3
ENDMDL
MODEL 2
REMARK VINA RESULT:      -8.8      1.375      2.030
REMARK  3 active torsions:
REMARK  status: ('A' for Active; 'I' for Inactive)
REMARK    1  A    between atoms: C5_7  and  C6_8 
REMARK    2  A    between atoms: C10_14  and  N4_15 
REMARK    3  A    between atoms: N4_15  and  C11_16 
ROOT
HETATM    1  C6  UNL     1      25.669   2.259  51.813  1.00  0.00    -0.003 C 
HETATM    2  C7  UNL     1      24.492   1.590  51.904  1.00  0.00     0.004 A 
HETATM    3  C8  UNL     1      23.289   1.889  51.114  1.00  0.00     0.192 A 
HETATM    4  N2  UNL     1      22.212   1.044  51.453  1.00  0.00    -0.278 NA
HETATM    5  C9  UNL     1      22.217   0.118  52.296  1.00  0.00     0.229 A 
HETATM    6  N3  UNL     1      23.355  -0.226  53.068  1.00  0.00    -0.225 NA
HETATM    7  C10 UNL     1      24.415   0.489  52.855  1.00  0.00     0.133 A 
ENDROOT
BRANCH   1   8
HETATM    8  C5  UNL     1      25.624   3.311  50.843  1.00  0.00     0.070 C 
HETATM    9  C4  UNL     1      26.007   4.123  49.881  1.00  0.00     0.024 C 
HETATM   10  N1  UNL     1      27.223   4.235  49.151  1.00  0.00    -0.269 NA
HETATM   11  C18 UNL     1      24.780   4.897  49.792  1.00  0.00     0.082 C 
HETATM   12  C3  UNL     1      27.912   5.094  48.516  1.00  0.00     0.118 C 
HETATM   13  C2  UNL     1      27.754   6.499  48.212  1.00  0.00     0.038 C 
HETATM   14  C1  UNL     1      26.639   7.204  48.030  1.00  0.00     0.012 C 
HETATM   15 BR1  UNL     1      26.986   9.028  47.650  1.00  0.00    -0.051 Br
HETATM   16  C20 UNL     1      25.196   6.900  48.053  1.00  0.00     0.015 C 
HETATM   17  C19 UNL     1      24.627   5.948  48.813  1.00  0.00    -0.020 C 
ENDBRANCH   1   8
BRANCH   7  18
HETATM   18  N4  UNL     1      25.568   0.115  53.609  1.00  0.00    -0.366 N 
HETATM   19  H8  UNL     1      25.462   0.048  54.673  1.00  0.00     0.161 HD
BRANCH  18  20
HETATM   20  C11 UNL     1      26.863  -0.161  52.960  1.00  0.00     0.109 C 
HETATM   21  C12 UNL     1      26.922  -1.603  52.730  1.00  0.00    -0.002 C 
HETATM   22  C13 UNL     1      27.798  -2.617  52.777  1.00  0.00    -0.001 C 
HETATM   23  C14 UNL     1      29.204  -2.427  53.164  1.00  0.00     0.012 C 
HETATM   24  C15 UNL     1      29.837  -1.468  53.777  1.00  0.00    -0.030 C 
HETATM   25  C16 UNL     1      29.238  -0.309  53.698  1.00  0.00    -0.012 C 
HETATM   26  C17 UNL     1      27.978   0.412  53.768  1.00  0.00     0.057 C 
ENDBRANCH  18  20
ENDBRANCH   7  18
TORSDOF 3
ENDMDL
MODEL 3
REMARK VINA RESULT:      -8.7      2.033      3.246
REMARK  3 active torsions:
REMARK  status: ('A' for Active; 'I' for Inactive)
REMARK    1  A    between atoms: C5_7  and  C6_8 
REMARK    2  A    between atoms: C10_14  and  N4_15 
REMARK    3  A    between atoms: N4_15  and  C11_16 
ROOT
HETATM    1  C6  UNL     1      26.640   4.337  49.437  1.00  0.00    -0.003 C 
HETATM    2  C7  UNL     1      25.611   5.032  49.983  1.00  0.00     0.004 A 
HETATM    3  C8  UNL     1      25.427   6.486  49.881  1.00  0.00     0.192 A 
HETATM    4  N2  UNL     1      24.282   6.924  50.578  1.00  0.00    -0.278 NA
HETATM    5  C9  UNL     1      23.466   6.213  51.208  1.00  0.00     0.229 A 
HETATM    6  N3  UNL     1      23.584   4.804  51.320  1.00  0.00    -0.225 NA
HETATM    7  C10 UNL     1      24.610   4.278  50.726  1.00  0.00     0.133 A 
ENDROOT
BRANCH   1   8
HETATM    8  C5  UNL     1      27.553   5.182  48.728  1.00  0.00     0.070 C 
HETATM    9  C4  UNL     1      28.677   5.626  48.208  1.00  0.00     0.024 C 
HETATM   10  N1  UNL     1      30.001   5.107  48.206  1.00  0.00    -0.269 NA
HETATM   11  C18 UNL     1      28.141   6.845  47.623  1.00  0.00     0.082 C 
HETATM   12  C3  UNL     1      31.208   5.497  48.124  1.00  0.00     0.118 C 
HETATM   13  C2  UNL     1      31.853   6.782  47.976  1.00  0.00     0.038 C 
HETATM   14  C1  UNL     1      31.419   7.880  47.359  1.00  0.00     0.012 C 
HETATM   15 BR1  UNL     1      32.661   9.308  47.456  1.00  0.00    -0.051 Br
HETATM   16  C20 UNL     1      30.199   8.245  46.616  1.00  0.00     0.015 C 
HETATM   17  C19 UNL     1      28.978   7.735  46.853  1.00  0.00    -0.020 C 
ENDBRANCH   1   8
BRANCH   7  18
HETATM   18  N4  UNL     1      24.703   2.856  50.812  1.00  0.00    -0.366 N 
HETATM   19  H8  UNL     1      24.432   2.289  49.945  1.00  0.00     0.161 HD
BRANCH  18  20
HETATM   20  C11 UNL     1      25.144   2.182  52.047  1.00  0.00     0.109 C 
HETATM   21  C12 UNL     1      26.280   1.337  51.685  1.00  0.00    -0.002 C 
HETATM   22  C13 UNL     1      26.793   0.129  51.963  1.00  0.00    -0.001 C 
HETATM   23  C14 UNL     1      26.159  -0.798  52.912  1.00  0.00     0.012 C 
HETATM   24  C15 UNL     1      24.966  -0.865  53.429  1.00  0.00    -0.030 C 
HETATM   25  C16 UNL     1      24.332   0.278  53.434  1.00  0.00    -0.012 C 
HETATM   26  C17 UNL     1      23.996   1.482  52.693  1.00  0.00     0.057 C 
ENDBRANCH  18  20
ENDBRANCH   7  18
TORSDOF 3
ENDMDL
MODEL 4
REMARK VINA RESULT:      -8.7      2.546      4.818
REMARK  3 active torsions:
REMARK  status: ('A' for Active; 'I' for Inactive)
REMARK    1  A    between atoms: C5_7  and  C6_8 
REMARK    2  A    between atoms: C10_14  and  N4_15 
REMARK    3  A    between atoms: N4_15  and  C11_16 
ROOT
HETATM    1  C6  UNL     1      25.159   2.060  51.200  1.00  0.00    -0.003 C 
HETATM    2  C7  UNL     1      25.898   1.677  52.271  1.00  0.00     0.004 A 
HETATM    3  C8  UNL     1      27.147   2.315  52.706  1.00  0.00     0.192 A 
HETATM    4  N2  UNL     1      27.704   1.674  53.833  1.00  0.00    -0.278 NA
HETATM    5  C9  UNL     1      27.232   0.692  54.450  1.00  0.00     0.229 A 
HETATM    6  N3  UNL     1      26.020   0.052  54.086  1.00  0.00    -0.225 NA
HETATM    7  C10 UNL     1      25.413   0.546  53.052  1.00  0.00     0.133 A 
ENDROOT
BRANCH   1   8
HETATM    8  C5  UNL     1      25.730   3.182  50.517  1.00  0.00     0.070 C 
HETATM    9  C4  UNL     1      25.919   4.421  50.119  1.00  0.00     0.024 C 
HETATM   10  N1  UNL     1      25.244   5.636  50.420  1.00  0.00    -0.269 NA
HETATM   11  C18 UNL     1      27.054   4.165  49.246  1.00  0.00     0.082 C 
HETATM   12  C3  UNL     1      25.006   6.779  49.916  1.00  0.00     0.118 C 
HETATM   13  C2  UNL     1      25.354   7.434  48.675  1.00  0.00     0.038 C 
HETATM   14  C1  UNL     1      26.435   7.283  47.913  1.00  0.00     0.012 C 
HETATM   15 BR1  UNL     1      26.403   8.390  46.375  1.00  0.00    -0.051 Br
HETATM   16  C20 UNL     1      27.656   6.457  47.986  1.00  0.00     0.015 C 
HETATM   17  C19 UNL     1      27.723   5.241  48.553  1.00  0.00    -0.020 C 
ENDBRANCH   1   8
BRANCH   7  18
HETATM   18  N4  UNL     1      24.176  -0.079  52.713  1.00  0.00    -0.366 N 
HETATM   19  H8  UNL     1      24.178  -0.770  51.895  1.00  0.00     0.161 HD
BRANCH  18  20
HETATM   20  C11 UNL     1      22.932   0.216  53.448  1.00  0.00     0.109 C 
HETATM   21  C12 UNL     1      22.522  -1.025  54.102  1.00  0.00    -0.002 C 
HETATM   22  C13 UNL     1      21.410  -1.722  54.383  1.00  0.00    -0.001 C 
HETATM   23  C14 UNL     1      20.071  -1.259  53.993  1.00  0.00     0.012 C 
HETATM   24  C15 UNL     1      19.648  -0.372  53.137  1.00  0.00    -0.030 C 
HETATM   25  C16 UNL     1      20.535   0.543  52.850  1.00  0.00    -0.012 C 
HETATM   26  C17 UNL     1      21.924   0.830  52.535  1.00  0.00     0.057 C 
ENDBRANCH  18  20
ENDBRANCH   7  18
TORSDOF 3
ENDMDL
MODEL 5
REMARK VINA RESULT:      -8.7      2.813      4.015
REMARK  3 active torsions:
REMARK  status: ('A' for Active; 'I' for Inactive)
REMARK    1  A    between atoms: C5_7  and  C6_8 
REMARK    2  A    between atoms: C10_14  and  N4_15 
REMARK    3  A    between atoms: N4_15  and  C11_16 
ROOT
HETATM    1  C6  UNL     1      24.255   3.112  51.017  1.00  0.00    -0.003 C 
HETATM    2  C7  UNL     1      23.371   2.562  50.147  1.00  0.00     0.004 A 
HETATM    3  C8  UNL     1      23.364   2.789  48.696  1.00  0.00     0.192 A 
HETATM    4  N2  UNL     1      22.305   2.108  48.059  1.00  0.00    -0.278 NA
HETATM    5  C9  UNL     1      21.453   1.366  48.601  1.00  0.00     0.229 A 
HETATM    6  N3  UNL     1      21.427   1.097  49.993  1.00  0.00    -0.225 NA
HETATM    7  C10 UNL     1      22.351   1.677  50.694  1.00  0.00     0.133 A 
ENDROOT
BRANCH   1   8
HETATM    8  C5  UNL     1      25.210   3.955  50.363  1.00  0.00     0.070 C 
HETATM    9  C4  UNL     1      25.818   5.047  49.952  1.00  0.00     0.024 C 
HETATM   10  N1  UNL     1      25.545   6.427  50.154  1.00  0.00    -0.269 NA
HETATM   11  C18 UNL     1      26.879   4.396  49.200  1.00  0.00     0.082 C 
HETATM   12  C3  UNL     1      25.728   7.557  49.599  1.00  0.00     0.118 C 
HETATM   13  C2  UNL     1      26.369   7.998  48.380  1.00  0.00     0.038 C 
HETATM   14  C1  UNL     1      27.405   7.470  47.731  1.00  0.00     0.012 C 
HETATM   15 BR1  UNL     1      27.856   8.442  46.168  1.00  0.00    -0.051 Br
HETATM   16  C20 UNL     1      28.286   6.306  47.943  1.00  0.00     0.015 C 
HETATM   17  C19 UNL     1      27.912   5.164  48.546  1.00  0.00    -0.020 C 
ENDBRANCH   1   8
BRANCH   7  18
HETATM   18  N4  UNL     1      22.341   1.373  52.089  1.00  0.00    -0.366 N 
HETATM   19  H8  UNL     1      21.981   2.128  52.757  1.00  0.00     0.161 HD
BRANCH  18  20
HETATM   20  C11 UNL     1      22.818   0.075  52.602  1.00  0.00     0.109 C 
HETATM   21  C12 UNL     1      21.820  -0.393  53.561  1.00  0.00    -0.002 C 
HETATM   22  C13 UNL     1      21.745  -1.018  54.746  1.00  0.00    -0.001 C 
HETATM   23  C14 UNL     1      22.939  -1.458  55.482  1.00  0.00     0.012 C 
HETATM   24  C15 UNL     1      24.202  -1.150  55.396  1.00  0.00    -0.030 C 
HETATM   25  C16 UNL     1      24.549  -0.680  54.227  1.00  0.00    -0.012 C 
HETATM   26  C17 UNL     1      24.209   0.205  53.126  1.00  0.00     0.057 C 
ENDBRANCH  18  20
ENDBRANCH   7  18
TORSDOF 3
ENDMDL
MODEL 6
REMARK VINA RESULT:      -8.4      4.843      8.076
REMARK  3 active torsions:
REMARK  status: ('A' for Active; 'I' for Inactive)
REMARK    1  A    between atoms: C5_7  and  C6_8 
REMARK    2  A    between atoms: C10_14  and  N4_15 
REMARK    3  A    between atoms: N4_15  and  C11_16 
ROOT
HETATM    1  C6  UNL     1      23.034   0.177  53.117  1.00  0.00    -0.003 C 
HETATM    2  C7  UNL     1      23.384   1.352  52.538  1.00  0.00     0.004 A 
HETATM    3  C8  UNL     1      22.466   2.246  51.820  1.00  0.00     0.192 A 
HETATM    4  N2  UNL     1      23.128   3.378  51.300  1.00  0.00    -0.278 NA
HETATM    5  C9  UNL     1      24.343   3.660  51.418  1.00  0.00     0.229 A 
HETATM    6  N3  UNL     1      25.268   2.845  52.119  1.00  0.00    -0.225 NA
HETATM    7  C10 UNL     1      24.779   1.762  52.638  1.00  0.00     0.133 A 
ENDROOT
BRANCH   1   8
HETATM    8  C5  UNL     1      21.640  -0.114  52.959  1.00  0.00     0.070 C 
HETATM    9  C4  UNL     1      20.443  -0.169  52.417  1.00  0.00     0.024 C 
HETATM   10  N1  UNL     1      19.933   0.295  51.173  1.00  0.00    -0.269 NA
HETATM   11  C18 UNL     1      19.777  -0.860  53.509  1.00  0.00     0.082 C 
HETATM   12  C3  UNL     1      18.845   0.677  50.638  1.00  0.00     0.118 C 
HETATM   13  C2  UNL     1      17.483   0.826  51.100  1.00  0.00     0.038 C 
HETATM   14  C1  UNL     1      16.826   0.137  52.031  1.00  0.00     0.012 C 
HETATM   15 BR1  UNL     1      15.043   0.738  52.260  1.00  0.00    -0.051 Br
HETATM   16  C20 UNL     1      17.159  -0.988  52.926  1.00  0.00     0.015 C 
HETATM   17  C19 UNL     1      18.385  -1.235  53.420  1.00  0.00    -0.020 C 
ENDBRANCH   1   8
BRANCH   7  18
HETATM   18  N4  UNL     1      25.707   0.964  53.373  1.00  0.00    -0.366 N 
HETATM   19  H8  UNL     1      25.476   0.751  54.396  1.00  0.00     0.161 HD
BRANCH  18  20
HETATM   20  C11 UNL     1      26.948   0.455  52.758  1.00  0.00     0.109 C 
HETATM   21  C12 UNL     1      26.776  -0.987  52.590  1.00  0.00    -0.002 C 
HETATM   22  C13 UNL     1      27.477  -2.125  52.696  1.00  0.00    -0.001 C 
HETATM   23  C14 UNL     1      28.891  -2.146  53.098  1.00  0.00     0.012 C 
HETATM   24  C15 UNL     1      29.664  -1.275  53.681  1.00  0.00    -0.030 C 
HETATM   25  C16 UNL     1      29.260  -0.040  53.542  1.00  0.00    -0.012 C 
HETATM   26  C17 UNL     1      28.133   0.877  53.560  1.00  0.00     0.057 C 
ENDBRANCH  18  20
ENDBRANCH   7  18
TORSDOF 3
ENDMDL
MODEL 7
REMARK VINA RESULT:      -8.1      3.723      7.613
REMARK  3 active torsions:
REMARK  status: ('A' for Active; 'I' for Inactive)
REMARK    1  A    between atoms: C5_7  and  C6_8 
REMARK    2  A    between atoms: C10_14  and  N4_15 
REMARK    3  A    between atoms: N4_15  and  C11_16 
ROOT
HETATM    1  C6  UNL     1      28.689   5.158  48.177  1.00  0.00    -0.003 C 
HETATM    2  C7  UNL     1      28.907   6.496  48.167  1.00  0.00     0.004 A 
HETATM    3  C8  UNL     1      27.996   7.503  48.728  1.00  0.00     0.192 A 
HETATM    4  N2  UNL     1      28.478   8.816  48.538  1.00  0.00    -0.278 NA
HETATM    5  C9  UNL     1      29.552   9.151  47.988  1.00  0.00     0.229 A 
HETATM    6  N3  UNL     1      30.476   8.220  47.450  1.00  0.00    -0.225 NA
HETATM    7  C10 UNL     1      30.140   6.972  47.554  1.00  0.00     0.133 A 
ENDROOT
BRANCH   1   8
HETATM    8  C5  UNL     1      27.452   4.811  48.810  1.00  0.00     0.070 C 
HETATM    9  C4  UNL     1      26.603   4.233  49.631  1.00  0.00     0.024 C 
HETATM   10  N1  UNL     1      26.779   3.285  50.676  1.00  0.00    -0.269 NA
HETATM   11  C18 UNL     1      25.396   4.868  49.128  1.00  0.00     0.082 C 
HETATM   12  C3  UNL     1      26.144   2.370  51.290  1.00  0.00     0.118 C 
HETATM   13  C2  UNL     1      24.810   1.820  51.195  1.00  0.00     0.038 C 
HETATM   14  C1  UNL     1      23.675   2.413  50.830  1.00  0.00     0.012 C 
HETATM   15 BR1  UNL     1      22.191   1.236  50.875  1.00  0.00    -0.051 Br
HETATM   16  C20 UNL     1      23.300   3.774  50.400  1.00  0.00     0.015 C 
HETATM   17  C19 UNL     1      24.109   4.615  49.733  1.00  0.00    -0.020 C 
ENDBRANCH   1   8
BRANCH   7  18
HETATM   18  N4  UNL     1      31.092   6.039  47.043  1.00  0.00    -0.366 N 
HETATM   19  H8  UNL     1      31.200   5.975  45.980  1.00  0.00     0.161 HD
BRANCH  18  20
HETATM   20  C11 UNL     1      31.893   5.182  47.937  1.00  0.00     0.109 C 
HETATM   21  C12 UNL     1      33.091   5.941  48.289  1.00  0.00    -0.002 C 
HETATM   22  C13 UNL     1      34.405   5.757  48.483  1.00  0.00    -0.001 C 
HETATM   23  C14 UNL     1      35.046   4.441  48.343  1.00  0.00     0.012 C 
HETATM   24  C15 UNL     1      34.678   3.326  47.780  1.00  0.00    -0.030 C 
HETATM   25  C16 UNL     1      33.383   3.204  47.656  1.00  0.00    -0.012 C 
HETATM   26  C17 UNL     1      32.132   3.853  47.301  1.00  0.00     0.057 C 
ENDBRANCH  18  20
ENDBRANCH   7  18
TORSDOF 3
ENDMDL
MODEL 8
REMARK VINA RESULT:      -7.9      2.419      3.609
REMARK  3 active torsions:
REMARK  status: ('A' for Active; 'I' for Inactive)
REMARK    1  A    between atoms: C5_7  and  C6_8 
REMARK    2  A    between atoms: C10_14  and  N4_15 
REMARK    3  A    between atoms: N4_15  and  C11_16 
ROOT
HETATM    1  C6  UNL     1      24.993   4.510  50.185  1.00  0.00    -0.003 C 
HETATM    2  C7  UNL     1      23.767   4.342  49.631  1.00  0.00     0.004 A 
HETATM    3  C8  UNL     1      23.349   4.877  48.328  1.00  0.00     0.192 A 
HETATM    4  N2  UNL     1      22.005   4.565  48.034  1.00  0.00    -0.278 NA
HETATM    5  C9  UNL     1      21.215   3.899  48.741  1.00  0.00     0.229 A 
HETATM    6  N3  UNL     1      21.572   3.341  49.995  1.00  0.00    -0.225 NA
HETATM    7  C10 UNL     1      22.788   3.568  50.384  1.00  0.00     0.133 A 
ENDROOT
BRANCH   1   8
HETATM    8  C5  UNL     1      25.867   5.279  49.351  1.00  0.00     0.070 C 
HETATM    9  C4  UNL     1      26.944   5.632  48.683  1.00  0.00     0.024 C 
HETATM   10  N1  UNL     1      28.214   5.014  48.519  1.00  0.00    -0.269 NA
HETATM   11  C18 UNL     1      26.430   6.885  48.154  1.00  0.00     0.082 C 
HETATM   12  C3  UNL     1      29.427   5.310  48.276  1.00  0.00     0.118 C 
HETATM   13  C2  UNL     1      30.142   6.541  48.026  1.00  0.00     0.038 C 
HETATM   14  C1  UNL     1      29.715   7.665  47.453  1.00  0.00     0.012 C 
HETATM   15 BR1  UNL     1      31.062   8.995  47.367  1.00  0.00    -0.051 Br
HETATM   16  C20 UNL     1      28.439   8.119  46.868  1.00  0.00     0.015 C 
HETATM   17  C19 UNL     1      27.224   7.705  47.268  1.00  0.00    -0.020 C 
ENDBRANCH   1   8
BRANCH   7  18
HETATM   18  N4  UNL     1      23.152   2.974  51.630  1.00  0.00    -0.366 N 
HETATM   19  H8  UNL     1      23.231   3.618  52.481  1.00  0.00     0.161 HD
BRANCH  18  20
HETATM   20  C11 UNL     1      23.423   1.529  51.749  1.00  0.00     0.109 C 
HETATM   21  C12 UNL     1      22.446   0.992  52.693  1.00  0.00    -0.002 C 
HETATM   22  C13 UNL     1      22.363   0.101  53.692  1.00  0.00    -0.001 C 
HETATM   23  C14 UNL     1      23.517  -0.696  54.135  1.00  0.00     0.012 C 
HETATM   24  C15 UNL     1      24.802  -0.579  53.958  1.00  0.00    -0.030 C 
HETATM   25  C16 UNL     1      25.124   0.117  52.900  1.00  0.00    -0.012 C 
HETATM   26  C17 UNL     1      24.856   1.299  52.098  1.00  0.00     0.057 C 
ENDBRANCH  18  20
ENDBRANCH   7  18
TORSDOF 3
ENDMDL
MODEL 9
REMARK VINA RESULT:      -7.9      4.443      7.618
REMARK  3 active torsions:
REMARK  status: ('A' for Active; 'I' for Inactive)
REMARK    1  A    between atoms: C5_7  and  C6_8 
REMARK    2  A    between atoms: C10_14  and  N4_15 
REMARK    3  A    between atoms: N4_15  and  C11_16 
ROOT
HETATM    1  C6  UNL     1      29.008   6.264  47.981  1.00  0.00    -0.003 C 
HETATM    2  C7  UNL     1      29.481   7.459  48.414  1.00  0.00     0.004 A 
HETATM    3  C8  UNL     1      28.693   8.466  49.139  1.00  0.00     0.192 A 
HETATM    4  N2  UNL     1      29.449   9.620  49.429  1.00  0.00    -0.278 NA
HETATM    5  C9  UNL     1      30.654   9.820  49.153  1.00  0.00     0.229 A 
HETATM    6  N3  UNL     1      31.466   8.875  48.475  1.00  0.00    -0.225 NA
HETATM    7  C10 UNL     1      30.879   7.768  48.143  1.00  0.00     0.133 A 
ENDROOT
BRANCH   1   8
HETATM    8  C5  UNL     1      27.628   6.072  48.311  1.00  0.00     0.070 C 
HETATM    9  C4  UNL     1      26.539   5.518  48.797  1.00  0.00     0.024 C 
HETATM   10  N1  UNL     1      26.318   4.308  49.512  1.00  0.00    -0.269 NA
HETATM   11  C18 UNL     1      25.600   6.541  48.364  1.00  0.00     0.082 C 
HETATM   12  C3  UNL     1      25.410   3.445  49.725  1.00  0.00     0.118 C 
HETATM   13  C2  UNL     1      24.039   3.284  49.294  1.00  0.00     0.038 C 
HETATM   14  C1  UNL     1      23.135   4.213  48.988  1.00  0.00     0.012 C 
HETATM   15 BR1  UNL     1      21.470   3.467  48.476  1.00  0.00    -0.051 Br
HETATM   16  C20 UNL     1      23.124   5.688  48.955  1.00  0.00     0.015 C 
HETATM   17  C19 UNL     1      24.196   6.454  48.690  1.00  0.00    -0.020 C 
ENDBRANCH   1   8
BRANCH   7  18
HETATM   18  N4  UNL     1      31.710   6.806  47.494  1.00  0.00    -0.366 N 
HETATM   19  H8  UNL     1      31.914   6.951  46.452  1.00  0.00     0.161 HD
BRANCH  18  20
HETATM   20  C11 UNL     1      32.265   5.647  48.217  1.00  0.00     0.109 C 
HETATM   21  C12 UNL     1      33.693   5.901  48.392  1.00  0.00    -0.002 C 
HETATM   22  C13 UNL     1      34.865   5.249  48.363  1.00  0.00    -0.001 C 
HETATM   23  C14 UNL     1      34.960   3.810  48.080  1.00  0.00     0.012 C 
HETATM   24  C15 UNL     1      34.137   2.950  47.550  1.00  0.00    -0.030 C 
HETATM   25  C16 UNL     1      32.882   3.304  47.636  1.00  0.00    -0.012 C 
HETATM   26  C17 UNL     1      31.914   4.381  47.510  1.00  0.00     0.057 C 
ENDBRANCH  18  20
ENDBRANCH   7  18
TORSDOF 3
ENDMDL
