MODEL 1
REMARK VINA RESULT:      -7.9      0.000      0.000
REMARK  2 active torsions:
REMARK  status: ('A' for Active; 'I' for Inactive)
REMARK       I    between atoms: C2_2  and  N1_4 
REMARK    1  A    between atoms: N1_4  and  C3_5 
REMARK    2  A    between atoms: C3_5  and  C4_6 
ROOT
HETATM    1  C4  UNL     1      22.385   4.680  51.281  1.00  0.00     0.005 C 
HETATM    2  C5  UNL     1      20.929   4.839  51.024  1.00  0.00     0.013 C 
HETATM    3  C6  UNL     1      20.538   4.365  49.633  1.00  0.00     0.079 C 
HETATM    4  C7  UNL     1      20.962   2.957  49.415  1.00  0.00     0.107 A 
HETATM    5  N2  UNL     1      21.468   2.561  48.232  1.00  0.00    -0.246 NA
HETATM    6  C8  UNL     1      21.799   1.267  48.241  1.00  0.00     0.136 A 
HETATM    7  C9  UNL     1      21.456   0.906  49.520  1.00  0.00     0.113 A 
HETATM    8  N3  UNL     1      20.931   1.927  50.284  1.00  0.00    -0.327 N 
HETATM    9  C10 UNL     1      20.551   1.592  51.610  1.00  0.00     0.254 C 
HETATM   10  N4  UNL     1      21.442   2.017  52.669  1.00  0.00    -0.360 N 
HETATM   11  C11 UNL     1      22.861   1.928  52.721  1.00  0.00     0.105 A 
HETATM   12  C12 UNL     1      23.293   0.624  52.612  1.00  0.00     0.062 A 
HETATM   13  C13 UNL     1      24.694   0.593  52.652  1.00  0.00    -0.006 A 
HETATM   14  C14 UNL     1      25.597  -0.441  52.582  1.00  0.00     0.014 A 
HETATM   15  C15 UNL     1      26.938  -0.184  52.647  1.00  0.00     0.001 A 
HETATM   16  C16 UNL     1      27.345   1.121  52.784  1.00  0.00     0.002 A 
HETATM   17  C17 UNL     1      26.399   2.118  52.850  1.00  0.00     0.030 A 
HETATM   18  C18 UNL     1      25.014   1.924  52.789  1.00  0.00     0.046 A 
HETATM   19  N5  UNL     1      23.924   2.711  52.831  1.00  0.00    -0.333 N 
HETATM   20  C19 UNL     1      24.038   4.157  53.006  1.00  0.00     0.131 C 
HETATM   21  C20 UNL     1      22.750   4.844  52.736  1.00  0.00     0.026 C 
HETATM   22  H16 UNL     1      21.286   2.421  53.600  1.00  0.00     0.162 HD
ENDROOT
BRANCH   1  23
HETATM   23  C3  UNL     1      23.279   5.482  50.367  1.00  0.00     0.127 C 
BRANCH  23  24
HETATM   24  N1  UNL     1      24.279   4.576  49.841  1.00  0.00    -0.361 N 
HETATM   25  C2  UNL     1      25.600   5.080  49.723  1.00  0.00     0.213 C 
HETATM   26  C1  UNL     1      26.742   4.268  49.198  1.00  0.00     0.117 C 
HETATM   27  O1  UNL     1      25.806   6.268  50.082  1.00  0.00    -0.274 OA
HETATM   28  H4  UNL     1      24.191   3.570  49.517  1.00  0.00     0.162 HD
ENDBRANCH  23  24
ENDBRANCH   1  23
TORSDOF 2
ENDMDL
MODEL 2
REMARK VINA RESULT:      -7.8      2.185      3.651
REMARK  2 active torsions:
REMARK  status: ('A' for Active; 'I' for Inactive)
REMARK       I    between atoms: C2_2  and  N1_4 
REMARK    1  A    between atoms: N1_4  and  C3_5 
REMARK    2  A    between atoms: C3_5  and  C4_6 
ROOT
HETATM    1  C4  UNL     1      24.352   3.370  51.258  1.00  0.00     0.005 C 
HETATM    2  C5  UNL     1      24.216   4.593  50.424  1.00  0.00     0.013 C 
HETATM    3  C6  UNL     1      23.990   4.263  48.957  1.00  0.00     0.079 C 
HETATM    4  C7  UNL     1      22.808   3.376  48.789  1.00  0.00     0.107 A 
HETATM    5  N2  UNL     1      22.821   2.366  47.900  1.00  0.00    -0.246 NA
HETATM    6  C8  UNL     1      21.674   1.681  47.910  1.00  0.00     0.136 A 
HETATM    7  C9  UNL     1      20.963   2.352  48.873  1.00  0.00     0.113 A 
HETATM    8  N3  UNL     1      21.631   3.413  49.445  1.00  0.00    -0.327 N 
HETATM    9  C10 UNL     1      20.926   4.142  50.438  1.00  0.00     0.254 C 
HETATM   10  N4  UNL     1      21.299   3.895  51.816  1.00  0.00    -0.360 N 
HETATM   11  C11 UNL     1      21.538   2.648  52.457  1.00  0.00     0.105 A 
HETATM   12  C12 UNL     1      20.433   1.827  52.403  1.00  0.00     0.062 A 
HETATM   13  C13 UNL     1      20.725   0.609  53.033  1.00  0.00    -0.006 A 
HETATM   14  C14 UNL     1      19.977  -0.525  53.242  1.00  0.00     0.014 A 
HETATM   15  C15 UNL     1      20.522  -1.592  53.900  1.00  0.00     0.001 A 
HETATM   16  C16 UNL     1      21.821  -1.493  54.338  1.00  0.00     0.002 A 
HETATM   17  C17 UNL     1      22.525  -0.334  54.102  1.00  0.00     0.030 A 
HETATM   18  C18 UNL     1      22.028   0.793  53.435  1.00  0.00     0.046 A 
HETATM   19  N5  UNL     1      22.505   2.003  53.093  1.00  0.00    -0.333 N 
HETATM   20  C19 UNL     1      23.859   2.415  53.455  1.00  0.00     0.131 C 
HETATM   21  C20 UNL     1      24.265   3.650  52.738  1.00  0.00     0.026 C 
HETATM   22  H16 UNL     1      21.434   4.507  52.629  1.00  0.00     0.162 HD
ENDROOT
BRANCH   1  23
HETATM   23  C3  UNL     1      25.528   2.491  50.904  1.00  0.00     0.127 C 
BRANCH  23  24
HETATM   24  N1  UNL     1      26.669   2.978  51.651  1.00  0.00    -0.361 N 
HETATM   25  C2  UNL     1      27.352   2.037  52.463  1.00  0.00     0.213 C 
HETATM   26  C1  UNL     1      28.547   2.386  53.292  1.00  0.00     0.117 C 
HETATM   27  O1  UNL     1      26.920   0.855  52.476  1.00  0.00    -0.274 OA
HETATM   28  H4  UNL     1      27.094   3.949  51.697  1.00  0.00     0.162 HD
ENDBRANCH  23  24
ENDBRANCH   1  23
TORSDOF 2
ENDMDL
MODEL 3
REMARK VINA RESULT:      -7.6      1.877      2.697
REMARK  2 active torsions:
REMARK  status: ('A' for Active; 'I' for Inactive)
REMARK       I    between atoms: C2_2  and  N1_4 
REMARK    1  A    between atoms: N1_4  and  C3_5 
REMARK    2  A    between atoms: C3_5  and  C4_6 
ROOT
HETATM    1  C4  UNL     1      23.627   4.822  50.124  1.00  0.00     0.005 C 
HETATM    2  C5  UNL     1      22.939   5.979  49.493  1.00  0.00     0.013 C 
HETATM    3  C6  UNL     1      22.320   5.616  48.152  1.00  0.00     0.079 C 
HETATM    4  C7  UNL     1      21.391   4.463  48.293  1.00  0.00     0.107 A 
HETATM    5  N2  UNL     1      21.341   3.496  47.358  1.00  0.00    -0.246 NA
HETATM    6  C8  UNL     1      20.456   2.546  47.673  1.00  0.00     0.136 A 
HETATM    7  C9  UNL     1      19.972   3.009  48.871  1.00  0.00     0.113 A 
HETATM    8  N3  UNL     1      20.526   4.199  49.293  1.00  0.00    -0.327 N 
HETATM    9  C10 UNL     1      20.044   4.720  50.522  1.00  0.00     0.254 C 
HETATM   10  N4  UNL     1      20.902   4.562  51.678  1.00  0.00    -0.360 N 
HETATM   11  C11 UNL     1      21.625   3.409  52.092  1.00  0.00     0.105 A 
HETATM   12  C12 UNL     1      20.789   2.339  52.320  1.00  0.00     0.062 A 
HETATM   13  C13 UNL     1      21.549   1.227  52.709  1.00  0.00    -0.006 A 
HETATM   14  C14 UNL     1      21.200  -0.059  53.043  1.00  0.00     0.014 A 
HETATM   15  C15 UNL     1      22.166  -0.962  53.391  1.00  0.00     0.001 A 
HETATM   16  C16 UNL     1      23.475  -0.545  53.395  1.00  0.00     0.002 A 
HETATM   17  C17 UNL     1      23.770   0.754  53.052  1.00  0.00     0.030 A 
HETATM   18  C18 UNL     1      22.832   1.727  52.687  1.00  0.00     0.046 A 
HETATM   19  N5  UNL     1      22.871   3.021  52.322  1.00  0.00    -0.333 N 
HETATM   20  C19 UNL     1      24.132   3.755  52.265  1.00  0.00     0.131 C 
HETATM   21  C20 UNL     1      23.976   5.059  51.572  1.00  0.00     0.026 C 
HETATM   22  H16 UNL     1      21.154   5.182  52.457  1.00  0.00     0.162 HD
ENDROOT
BRANCH   1  23
HETATM   23  C3  UNL     1      24.787   4.268  49.332  1.00  0.00     0.127 C 
BRANCH  23  24
HETATM   24  N1  UNL     1      25.619   5.389  48.946  1.00  0.00    -0.361 N 
HETATM   25  C2  UNL     1      27.003   5.130  48.775  1.00  0.00     0.213 C 
HETATM   26  C1  UNL     1      27.990   6.182  48.379  1.00  0.00     0.117 C 
HETATM   27  O1  UNL     1      27.405   3.953  48.969  1.00  0.00    -0.274 OA
HETATM   28  H4  UNL     1      25.363   6.402  48.765  1.00  0.00     0.162 HD
ENDBRANCH  23  24
ENDBRANCH   1  23
TORSDOF 2
ENDMDL
MODEL 4
REMARK VINA RESULT:      -7.6      3.212      5.509
REMARK  2 active torsions:
REMARK  status: ('A' for Active; 'I' for Inactive)
REMARK       I    between atoms: C2_2  and  N1_4 
REMARK    1  A    between atoms: N1_4  and  C3_5 
REMARK    2  A    between atoms: C3_5  and  C4_6 
ROOT
HETATM    1  C4  UNL     1      19.304   2.788  50.452  1.00  0.00     0.005 C 
HETATM    2  C5  UNL     1      19.518   3.676  49.279  1.00  0.00     0.013 C 
HETATM    3  C6  UNL     1      20.096   5.024  49.679  1.00  0.00     0.079 C 
HETATM    4  C7  UNL     1      21.357   4.852  50.448  1.00  0.00     0.107 A 
HETATM    5  N2  UNL     1      21.632   5.631  51.511  1.00  0.00    -0.246 NA
HETATM    6  C8  UNL     1      22.803   5.312  52.071  1.00  0.00     0.136 A 
HETATM    7  C9  UNL     1      23.218   4.279  51.268  1.00  0.00     0.113 A 
HETATM    8  N3  UNL     1      22.348   3.961  50.246  1.00  0.00    -0.327 N 
HETATM    9  C10 UNL     1      22.746   2.906  49.384  1.00  0.00     0.254 C 
HETATM   10  N4  UNL     1      22.095   1.627  49.577  1.00  0.00    -0.360 N 
HETATM   11  C11 UNL     1      21.827   0.946  50.798  1.00  0.00     0.105 A 
HETATM   12  C12 UNL     1      22.982   0.687  51.501  1.00  0.00     0.062 A 
HETATM   13  C13 UNL     1      22.662   0.032  52.698  1.00  0.00    -0.006 A 
HETATM   14  C14 UNL     1      23.439  -0.434  53.732  1.00  0.00     0.014 A 
HETATM   15  C15 UNL     1      22.854  -1.048  54.805  1.00  0.00     0.001 A 
HETATM   16  C16 UNL     1      21.487  -1.182  54.812  1.00  0.00     0.002 A 
HETATM   17  C17 UNL     1      20.756  -0.697  53.751  1.00  0.00     0.030 A 
HETATM   18  C18 UNL     1      21.291  -0.060  52.625  1.00  0.00     0.046 A 
HETATM   19  N5  UNL     1      20.801   0.482  51.496  1.00  0.00    -0.333 N 
HETATM   20  C19 UNL     1      19.370   0.462  51.203  1.00  0.00     0.131 C 
HETATM   21  C20 UNL     1      19.030   1.354  50.067  1.00  0.00     0.026 C 
HETATM   22  H16 UNL     1      21.729   0.919  48.930  1.00  0.00     0.162 HD
ENDROOT
BRANCH   1  23
HETATM   23  C3  UNL     1      18.318   3.311  51.469  1.00  0.00     0.127 C 
BRANCH  23  24
HETATM   24  N1  UNL     1      17.020   3.357  50.827  1.00  0.00    -0.361 N 
HETATM   25  C2  UNL     1      15.972   3.981  51.549  1.00  0.00     0.213 C 
HETATM   26  C1  UNL     1      14.578   4.107  51.022  1.00  0.00     0.117 C 
HETATM   27  O1  UNL     1      16.242   4.448  52.686  1.00  0.00    -0.274 OA
HETATM   28  H4  UNL     1      16.710   2.991  49.882  1.00  0.00     0.162 HD
ENDBRANCH  23  24
ENDBRANCH   1  23
TORSDOF 2
ENDMDL
MODEL 5
REMARK VINA RESULT:      -7.2      7.459     11.203
REMARK  2 active torsions:
REMARK  status: ('A' for Active; 'I' for Inactive)
REMARK       I    between atoms: C2_2  and  N1_4 
REMARK    1  A    between atoms: N1_4  and  C3_5 
REMARK    2  A    between atoms: C3_5  and  C4_6 
ROOT
HETATM    1  C4  UNL     1      33.046   7.688  46.737  1.00  0.00     0.005 C 
HETATM    2  C5  UNL     1      33.938   8.866  46.572  1.00  0.00     0.013 C 
HETATM    3  C6  UNL     1      33.601   9.671  45.327  1.00  0.00     0.079 C 
HETATM    4  C7  UNL     1      32.173  10.088  45.337  1.00  0.00     0.107 A 
HETATM    5  N2  UNL     1      31.437  10.068  44.210  1.00  0.00    -0.246 NA
HETATM    6  C8  UNL     1      30.181  10.465  44.430  1.00  0.00     0.136 A 
HETATM    7  C9  UNL     1      30.209  10.728  45.777  1.00  0.00     0.113 A 
HETATM    8  N3  UNL     1      31.429  10.508  46.380  1.00  0.00    -0.327 N 
HETATM    9  C10 UNL     1      31.504  10.780  47.771  1.00  0.00     0.254 C 
HETATM   10  N4  UNL     1      31.494   9.637  48.660  1.00  0.00    -0.360 N 
HETATM   11  C11 UNL     1      30.656   8.488  48.614  1.00  0.00     0.105 A 
HETATM   12  C12 UNL     1      29.324   8.826  48.711  1.00  0.00     0.062 A 
HETATM   13  C13 UNL     1      28.542   7.663  48.645  1.00  0.00    -0.006 A 
HETATM   14  C14 UNL     1      27.184   7.460  48.693  1.00  0.00     0.014 A 
HETATM   15  C15 UNL     1      26.678   6.193  48.603  1.00  0.00     0.001 A 
HETATM   16  C16 UNL     1      27.560   5.149  48.466  1.00  0.00     0.002 A 
HETATM   17  C17 UNL     1      28.911   5.408  48.423  1.00  0.00     0.030 A 
HETATM   18  C18 UNL     1      29.494   6.678  48.509  1.00  0.00     0.046 A 
HETATM   19  N5  UNL     1      30.745   7.172  48.493  1.00  0.00    -0.333 N 
HETATM   20  C19 UNL     1      31.906   6.293  48.390  1.00  0.00     0.131 C 
HETATM   21  C20 UNL     1      33.147   7.056  48.103  1.00  0.00     0.026 C 
HETATM   22  H16 UNL     1      32.019   9.403  49.510  1.00  0.00     0.162 HD
ENDROOT
BRANCH   1  23
HETATM   23  C3  UNL     1      33.127   6.673  45.622  1.00  0.00     0.127 C 
BRANCH  23  24
HETATM   24  N1  UNL     1      34.257   5.813  45.905  1.00  0.00    -0.361 N 
HETATM   25  C2  UNL     1      34.056   4.419  45.742  1.00  0.00     0.213 C 
HETATM   26  C1  UNL     1      35.124   3.402  45.995  1.00  0.00     0.117 C 
HETATM   27  O1  UNL     1      32.919   4.032  45.366  1.00  0.00    -0.274 OA
HETATM   28  H4  UNL     1      35.239   6.054  46.224  1.00  0.00     0.162 HD
ENDBRANCH  23  24
ENDBRANCH   1  23
TORSDOF 2
ENDMDL
MODEL 6
REMARK VINA RESULT:      -7.1      2.059      5.306
REMARK  2 active torsions:
REMARK  status: ('A' for Active; 'I' for Inactive)
REMARK       I    between atoms: C2_2  and  N1_4 
REMARK    1  A    between atoms: N1_4  and  C3_5 
REMARK    2  A    between atoms: C3_5  and  C4_6 
ROOT
HETATM    1  C4  UNL     1      24.262   2.249  51.643  1.00  0.00     0.005 C 
HETATM    2  C5  UNL     1      23.535   0.966  51.463  1.00  0.00     0.013 C 
HETATM    3  C6  UNL     1      22.164   0.986  52.122  1.00  0.00     0.079 C 
HETATM    4  C7  UNL     1      21.353   2.127  51.620  1.00  0.00     0.107 A 
HETATM    5  N2  UNL     1      20.571   2.839  52.453  1.00  0.00    -0.246 NA
HETATM    6  C8  UNL     1      19.936   3.826  51.814  1.00  0.00     0.136 A 
HETATM    7  C9  UNL     1      20.391   3.660  50.530  1.00  0.00     0.113 A 
HETATM    8  N3  UNL     1      21.275   2.614  50.366  1.00  0.00    -0.327 N 
HETATM    9  C10 UNL     1      21.761   2.399  49.050  1.00  0.00     0.254 C 
HETATM   10  N4  UNL     1      23.112   2.842  48.774  1.00  0.00    -0.360 N 
HETATM   11  C11 UNL     1      23.732   4.070  49.138  1.00  0.00     0.105 A 
HETATM   12  C12 UNL     1      23.059   5.154  48.616  1.00  0.00     0.062 A 
HETATM   13  C13 UNL     1      23.699   6.336  49.015  1.00  0.00    -0.006 A 
HETATM   14  C14 UNL     1      23.429   7.660  48.768  1.00  0.00     0.014 A 
HETATM   15  C15 UNL     1      24.234   8.633  49.294  1.00  0.00     0.001 A 
HETATM   16  C16 UNL     1      25.304   8.245  50.063  1.00  0.00     0.002 A 
HETATM   17  C17 UNL     1      25.529   6.905  50.279  1.00  0.00     0.030 A 
HETATM   18  C18 UNL     1      24.746   5.861  49.772  1.00  0.00     0.046 A 
HETATM   19  N5  UNL     1      24.762   4.518  49.841  1.00  0.00    -0.333 N 
HETATM   20  C19 UNL     1      25.810   3.808  50.568  1.00  0.00     0.131 C 
HETATM   21  C20 UNL     1      25.474   2.374  50.752  1.00  0.00     0.026 C 
HETATM   22  H16 UNL     1      23.894   2.433  48.250  1.00  0.00     0.162 HD
ENDROOT
BRANCH   1  23
HETATM   23  C3  UNL     1      24.562   2.611  53.079  1.00  0.00     0.127 C 
BRANCH  23  24
HETATM   24  N1  UNL     1      25.061   1.416  53.728  1.00  0.00    -0.361 N 
HETATM   25  C2  UNL     1      26.410   1.439  54.161  1.00  0.00     0.213 C 
HETATM   26  C1  UNL     1      27.070   0.285  54.847  1.00  0.00     0.117 C 
HETATM   27  O1  UNL     1      27.073   2.489  53.953  1.00  0.00    -0.274 OA
HETATM   28  H4  UNL     1      24.575   0.497  53.940  1.00  0.00     0.162 HD
ENDBRANCH  23  24
ENDBRANCH   1  23
TORSDOF 2
ENDMDL
MODEL 7
REMARK VINA RESULT:      -7.0      2.784      5.098
REMARK  2 active torsions:
REMARK  status: ('A' for Active; 'I' for Inactive)
REMARK       I    between atoms: C2_2  and  N1_4 
REMARK    1  A    between atoms: N1_4  and  C3_5 
REMARK    2  A    between atoms: C3_5  and  C4_6 
ROOT
HETATM    1  C4  UNL     1      21.551   3.716  47.728  1.00  0.00     0.005 C 
HETATM    2  C5  UNL     1      22.203   4.819  46.975  1.00  0.00     0.013 C 
HETATM    3  C6  UNL     1      21.871   6.185  47.555  1.00  0.00     0.079 C 
HETATM    4  C7  UNL     1      22.228   6.248  48.997  1.00  0.00     0.107 A 
HETATM    5  N2  UNL     1      21.430   6.876  49.881  1.00  0.00    -0.246 NA
HETATM    6  C8  UNL     1      21.918   6.811  51.123  1.00  0.00     0.136 A 
HETATM    7  C9  UNL     1      23.073   6.096  50.927  1.00  0.00     0.113 A 
HETATM    8  N3  UNL     1      23.304   5.727  49.619  1.00  0.00    -0.327 N 
HETATM    9  C10 UNL     1      24.496   4.996  49.371  1.00  0.00     0.254 C 
HETATM   10  N4  UNL     1      24.353   3.571  49.155  1.00  0.00    -0.360 N 
HETATM   11  C11 UNL     1      23.565   2.640  49.888  1.00  0.00     0.105 A 
HETATM   12  C12 UNL     1      23.926   2.603  51.217  1.00  0.00     0.062 A 
HETATM   13  C13 UNL     1      23.112   1.685  51.896  1.00  0.00    -0.006 A 
HETATM   14  C14 UNL     1      23.065   1.288  53.210  1.00  0.00     0.014 A 
HETATM   15  C15 UNL     1      22.150   0.355  53.612  1.00  0.00     0.001 A 
HETATM   16  C16 UNL     1      21.293  -0.162  52.671  1.00  0.00     0.002 A 
HETATM   17  C17 UNL     1      21.382   0.271  51.367  1.00  0.00     0.030 A 
HETATM   18  C18 UNL     1      22.293   1.221  50.891  1.00  0.00     0.046 A 
HETATM   19  N5  UNL     1      22.567   1.788  49.703  1.00  0.00    -0.333 N 
HETATM   20  C19 UNL     1      21.837   1.412  48.496  1.00  0.00     0.131 C 
HETATM   21  C20 UNL     1      22.100   2.354  47.380  1.00  0.00     0.026 C 
HETATM   22  H16 UNL     1      24.784   2.913  48.496  1.00  0.00     0.162 HD
ENDROOT
BRANCH   1  23
HETATM   23  C3  UNL     1      20.041   3.750  47.719  1.00  0.00     0.127 C 
BRANCH  23  24
HETATM   24  N1  UNL     1      19.611   4.099  49.057  1.00  0.00    -0.361 N 
HETATM   25  C2  UNL     1      18.837   3.135  49.751  1.00  0.00     0.213 C 
HETATM   26  C1  UNL     1      18.318   3.346  51.138  1.00  0.00     0.117 C 
HETATM   27  O1  UNL     1      18.583   2.054  49.160  1.00  0.00    -0.274 OA
HETATM   28  H4  UNL     1      19.779   4.979  49.624  1.00  0.00     0.162 HD
ENDBRANCH  23  24
ENDBRANCH   1  23
TORSDOF 2
ENDMDL
MODEL 8
REMARK VINA RESULT:      -6.9      3.439      6.936
REMARK  2 active torsions:
REMARK  status: ('A' for Active; 'I' for Inactive)
REMARK       I    between atoms: C2_2  and  N1_4 
REMARK    1  A    between atoms: N1_4  and  C3_5 
REMARK    2  A    between atoms: C3_5  and  C4_6 
ROOT
HETATM    1  C4  UNL     1      25.188   6.583  49.151  1.00  0.00     0.005 C 
HETATM    2  C5  UNL     1      25.753   5.217  48.994  1.00  0.00     0.013 C 
HETATM    3  C6  UNL     1      25.577   4.376  50.248  1.00  0.00     0.079 C 
HETATM    4  C7  UNL     1      24.146   4.311  50.646  1.00  0.00     0.107 A 
HETATM    5  N2  UNL     1      23.783   4.375  51.940  1.00  0.00    -0.246 NA
HETATM    6  C8  UNL     1      22.457   4.313  52.088  1.00  0.00     0.136 A 
HETATM    7  C9  UNL     1      22.041   4.209  50.785  1.00  0.00     0.113 A 
HETATM    8  N3  UNL     1      23.059   4.203  49.855  1.00  0.00    -0.327 N 
HETATM    9  C10 UNL     1      22.672   4.084  48.495  1.00  0.00     0.254 C 
HETATM   10  N4  UNL     1      22.713   5.292  47.698  1.00  0.00    -0.360 N 
HETATM   11  C11 UNL     1      22.249   6.593  48.039  1.00  0.00     0.105 A 
HETATM   12  C12 UNL     1      20.902   6.593  48.329  1.00  0.00     0.062 A 
HETATM   13  C13 UNL     1      20.499   7.891  48.673  1.00  0.00    -0.006 A 
HETATM   14  C14 UNL     1      19.283   8.414  49.040  1.00  0.00     0.014 A 
HETATM   15  C15 UNL     1      19.168   9.745  49.329  1.00  0.00     0.001 A 
HETATM   16  C16 UNL     1      20.293  10.529  49.242  1.00  0.00     0.002 A 
HETATM   17  C17 UNL     1      21.488   9.955  48.869  1.00  0.00     0.030 A 
HETATM   18  C18 UNL     1      21.673   8.602  48.561  1.00  0.00     0.046 A 
HETATM   19  N5  UNL     1      22.706   7.828  48.183  1.00  0.00    -0.333 N 
HETATM   20  C19 UNL     1      24.038   8.390  47.972  1.00  0.00     0.131 C 
HETATM   21  C20 UNL     1      25.067   7.328  47.844  1.00  0.00     0.026 C 
HETATM   22  H16 UNL     1      23.023   5.493  46.740  1.00  0.00     0.162 HD
ENDROOT
BRANCH   1  23
HETATM   23  C3  UNL     1      25.836   7.414  50.232  1.00  0.00     0.127 C 
BRANCH  23  24
HETATM   24  N1  UNL     1      27.179   7.725  49.789  1.00  0.00    -0.361 N 
HETATM   25  C2  UNL     1      27.586   9.080  49.883  1.00  0.00     0.213 C 
HETATM   26  C1  UNL     1      28.941   9.559  49.466  1.00  0.00     0.117 C 
HETATM   27  O1  UNL     1      26.757   9.909  50.341  1.00  0.00    -0.274 OA
HETATM   28  H4  UNL     1      27.934   7.094  49.394  1.00  0.00     0.162 HD
ENDBRANCH  23  24
ENDBRANCH   1  23
TORSDOF 2
ENDMDL
MODEL 9
REMARK VINA RESULT:      -6.8      7.928     11.342
REMARK  2 active torsions:
REMARK  status: ('A' for Active; 'I' for Inactive)
REMARK       I    between atoms: C2_2  and  N1_4 
REMARK    1  A    between atoms: N1_4  and  C3_5 
REMARK    2  A    between atoms: C3_5  and  C4_6 
ROOT
HETATM    1  C4  UNL     1      32.302   9.544  47.014  1.00  0.00     0.005 C 
HETATM    2  C5  UNL     1      32.890  10.907  47.095  1.00  0.00     0.013 C 
HETATM    3  C6  UNL     1      32.255  11.865  46.099  1.00  0.00     0.079 C 
HETATM    4  C7  UNL     1      30.780  11.915  46.279  1.00  0.00     0.107 A 
HETATM    5  N2  UNL     1      29.954  11.971  45.217  1.00  0.00    -0.246 NA
HETATM    6  C8  UNL     1      28.671  11.997  45.587  1.00  0.00     0.136 A 
HETATM    7  C9  UNL     1      28.779  11.952  46.955  1.00  0.00     0.113 A 
HETATM    8  N3  UNL     1      30.074  11.901  47.427  1.00  0.00    -0.327 N 
HETATM    9  C10 UNL     1      30.231  11.866  48.837  1.00  0.00     0.254 C 
HETATM   10  N4  UNL     1      30.565  10.585  49.423  1.00  0.00    -0.360 N 
HETATM   11  C11 UNL     1      30.002   9.309  49.142  1.00  0.00     0.105 A 
HETATM   12  C12 UNL     1      28.645   9.287  49.383  1.00  0.00     0.062 A 
HETATM   13  C13 UNL     1      28.138   8.017  49.076  1.00  0.00    -0.006 A 
HETATM   14  C14 UNL     1      26.870   7.489  49.139  1.00  0.00     0.014 A 
HETATM   15  C15 UNL     1      26.651   6.191  48.771  1.00  0.00     0.001 A 
HETATM   16  C16 UNL     1      27.722   5.446  48.343  1.00  0.00     0.002 A 
HETATM   17  C17 UNL     1      28.971   6.023  48.298  1.00  0.00     0.030 A 
HETATM   18  C18 UNL     1      29.264   7.344  48.660  1.00  0.00     0.046 A 
HETATM   19  N5  UNL     1      30.366   8.113  48.703  1.00  0.00    -0.333 N 
HETATM   20  C19 UNL     1      31.676   7.583  48.334  1.00  0.00     0.131 C 
HETATM   21  C20 UNL     1      32.681   8.665  48.180  1.00  0.00     0.026 C 
HETATM   22  H16 UNL     1      31.214  10.299  50.165  1.00  0.00     0.162 HD
ENDROOT
BRANCH   1  23
HETATM   23  C3  UNL     1      32.489   8.852  45.684  1.00  0.00     0.127 C 
BRANCH  23  24
HETATM   24  N1  UNL     1      33.914   8.772  45.438  1.00  0.00    -0.361 N 
HETATM   25  C2  UNL     1      34.383   9.311  44.214  1.00  0.00     0.213 C 
HETATM   26  C1  UNL     1      35.825   9.303  43.815  1.00  0.00     0.117 C 
HETATM   27  O1  UNL     1      33.535   9.817  43.435  1.00  0.00    -0.274 OA
HETATM   28  H4  UNL     1      34.691   8.365  46.035  1.00  0.00     0.162 HD
ENDBRANCH  23  24
ENDBRANCH   1  23
TORSDOF 2
ENDMDL
