MODEL 1
REMARK VINA RESULT:      -8.1      0.000      0.000
REMARK  2 active torsions:
REMARK  status: ('A' for Active; 'I' for Inactive)
REMARK    1  A    between atoms: C7_10  and  O2_11 
REMARK    2  A    between atoms: C8_12  and  C9_13 
ROOT
HETATM    1  N1  UNL     1      23.837   4.485  48.854  1.00  0.00    -0.192 NA
HETATM    2  C1  UNL     1      24.417   3.788  49.602  1.00  0.00     0.090 C 
HETATM    3  C2  UNL     1      25.112   2.926  50.516  1.00  0.00     0.128 C 
HETATM    4  C3  UNL     1      24.401   2.106  51.280  1.00  0.00     0.088 C 
HETATM    5  C4  UNL     1      22.922   2.141  51.132  1.00  0.00     0.243 C 
HETATM    6  O1  UNL     1      22.251   1.511  52.176  1.00  0.00    -0.326 OA
HETATM    7  C5  UNL     1      22.932   0.678  53.053  1.00  0.00     0.200 A 
HETATM    8  N2  UNL     1      22.143  -0.007  53.912  1.00  0.00    -0.232 NA
HETATM    9  C6  UNL     1      22.709  -0.851  54.812  1.00  0.00     0.157 A 
HETATM   10  C7  UNL     1      24.079  -1.031  54.876  1.00  0.00     0.097 A 
HETATM   11  C8  UNL     1      24.885  -0.331  53.998  1.00  0.00     0.047 A 
HETATM   12  C15 UNL     1      24.302   0.525  53.086  1.00  0.00     0.142 A 
HETATM   13  O3  UNL     1      25.052   1.257  52.176  1.00  0.00    -0.307 OA
ENDROOT
BRANCH  11  14
HETATM   14  C9  UNL     1      26.347  -0.410  53.937  1.00  0.00    -0.020 A 
HETATM   15  C10 UNL     1      27.041   0.375  54.802  1.00  0.00     0.012 A 
HETATM   16  C11 UNL     1      28.420   0.351  54.799  1.00  0.00     0.001 A 
HETATM   17  C12 UNL     1      29.086  -0.475  53.913  1.00  0.00     0.000 A 
HETATM   18  C13 UNL     1      28.364  -1.264  53.042  1.00  0.00     0.001 A 
HETATM   19  C14 UNL     1      26.969  -1.251  53.033  1.00  0.00     0.012 A 
ENDBRANCH  11  14
BRANCH  10  20
HETATM   20  O2  UNL     1      24.718  -1.875  55.768  1.00  0.00    -0.358 OA
HETATM   21  H5  UNL     1      25.342  -2.625  55.504  1.00  0.00     0.217 HD
ENDBRANCH  10  20
TORSDOF 2
ENDMDL
MODEL 2
REMARK VINA RESULT:      -7.6      1.623      2.085
REMARK  2 active torsions:
REMARK  status: ('A' for Active; 'I' for Inactive)
REMARK    1  A    between atoms: C7_10  and  O2_11 
REMARK    2  A    between atoms: C8_12  and  C9_13 
ROOT
HETATM    1  N1  UNL     1      20.784   2.521  48.601  1.00  0.00    -0.192 NA
HETATM    2  C1  UNL     1      21.678   2.250  49.314  1.00  0.00     0.090 C 
HETATM    3  C2  UNL     1      22.762   1.903  50.190  1.00  0.00     0.128 C 
HETATM    4  C3  UNL     1      22.528   1.053  51.183  1.00  0.00     0.088 C 
HETATM    5  C4  UNL     1      21.148   0.516  51.315  1.00  0.00     0.243 C 
HETATM    6  O1  UNL     1      20.911  -0.091  52.546  1.00  0.00    -0.326 OA
HETATM    7  C5  UNL     1      21.967  -0.423  53.384  1.00  0.00     0.200 A 
HETATM    8  N2  UNL     1      21.621  -1.160  54.465  1.00  0.00    -0.232 NA
HETATM    9  C6  UNL     1      22.579  -1.539  55.349  1.00  0.00     0.157 A 
HETATM   10  C7  UNL     1      23.906  -1.191  55.175  1.00  0.00     0.097 A 
HETATM   11  C8  UNL     1      24.259  -0.439  54.071  1.00  0.00     0.047 A 
HETATM   12  C15 UNL     1      23.280  -0.056  53.176  1.00  0.00     0.142 A 
HETATM   13  O3  UNL     1      23.565   0.699  52.048  1.00  0.00    -0.307 OA
ENDROOT
BRANCH  11  14
HETATM   14  C9  UNL     1      25.615   0.010  53.745  1.00  0.00    -0.020 A 
HETATM   15  C10 UNL     1      26.405  -0.864  53.068  1.00  0.00     0.012 A 
HETATM   16  C11 UNL     1      27.693  -0.507  52.728  1.00  0.00     0.001 A 
HETATM   17  C12 UNL     1      28.169   0.742  53.080  1.00  0.00     0.000 A 
HETATM   18  C13 UNL     1      27.353   1.615  53.766  1.00  0.00     0.001 A 
HETATM   19  C14 UNL     1      26.048   1.269  54.117  1.00  0.00     0.012 A 
ENDBRANCH  11  14
BRANCH  10  20
HETATM   20  O2  UNL     1      24.928  -1.546  56.038  1.00  0.00    -0.358 OA
HETATM   21  H5  UNL     1      24.831  -2.193  56.809  1.00  0.00     0.217 HD
ENDBRANCH  10  20
TORSDOF 2
ENDMDL
MODEL 3
REMARK VINA RESULT:      -7.4      1.422      2.085
REMARK  2 active torsions:
REMARK  status: ('A' for Active; 'I' for Inactive)
REMARK    1  A    between atoms: C7_10  and  O2_11 
REMARK    2  A    between atoms: C8_12  and  C9_13 
ROOT
HETATM    1  N1  UNL     1      26.254   5.849  48.388  1.00  0.00    -0.192 NA
HETATM    2  C1  UNL     1      26.416   4.988  49.171  1.00  0.00     0.090 C 
HETATM    3  C2  UNL     1      26.597   3.928  50.123  1.00  0.00     0.128 C 
HETATM    4  C3  UNL     1      25.530   3.246  50.524  1.00  0.00     0.088 C 
HETATM    5  C4  UNL     1      24.214   3.634  49.952  1.00  0.00     0.243 C 
HETATM    6  O1  UNL     1      23.133   3.108  50.655  1.00  0.00    -0.326 OA
HETATM    7  C5  UNL     1      23.320   2.082  51.572  1.00  0.00     0.200 A 
HETATM    8  N2  UNL     1      22.178   1.543  52.058  1.00  0.00    -0.232 NA
HETATM    9  C6  UNL     1      22.248   0.532  52.961  1.00  0.00     0.157 A 
HETATM   10  C7  UNL     1      23.462   0.034  53.401  1.00  0.00     0.097 A 
HETATM   11  C8  UNL     1      24.628   0.585  52.904  1.00  0.00     0.047 A 
HETATM   12  C15 UNL     1      24.549   1.613  51.986  1.00  0.00     0.142 A 
HETATM   13  O3  UNL     1      25.679   2.211  51.447  1.00  0.00    -0.307 OA
ENDROOT
BRANCH  11  14
HETATM   14  C9  UNL     1      25.987   0.173  53.267  1.00  0.00    -0.020 A 
HETATM   15  C10 UNL     1      26.533  -0.843  52.549  1.00  0.00     0.012 A 
HETATM   16  C11 UNL     1      27.808  -1.281  52.837  1.00  0.00     0.001 A 
HETATM   17  C12 UNL     1      28.522  -0.680  53.857  1.00  0.00     0.000 A 
HETATM   18  C13 UNL     1      27.951   0.349  54.575  1.00  0.00     0.001 A 
HETATM   19  C14 UNL     1      26.661   0.804  54.295  1.00  0.00     0.012 A 
ENDBRANCH  11  14
BRANCH  10  20
HETATM   20  O2  UNL     1      23.601  -0.993  54.318  1.00  0.00    -0.358 OA
HETATM   21  H5  UNL     1      23.891  -0.872  55.279  1.00  0.00     0.217 HD
ENDBRANCH  10  20
TORSDOF 2
ENDMDL
MODEL 4
REMARK VINA RESULT:      -7.2      2.504      6.489
REMARK  2 active torsions:
REMARK  status: ('A' for Active; 'I' for Inactive)
REMARK    1  A    between atoms: C7_10  and  O2_11 
REMARK    2  A    between atoms: C8_12  and  C9_13 
ROOT
HETATM    1  N1  UNL     1      28.352  -0.177  55.019  1.00  0.00    -0.192 NA
HETATM    2  C1  UNL     1      27.305   0.093  54.559  1.00  0.00     0.090 C 
HETATM    3  C2  UNL     1      26.034   0.427  53.981  1.00  0.00     0.128 C 
HETATM    4  C3  UNL     1      26.010   1.196  52.899  1.00  0.00     0.088 C 
HETATM    5  C4  UNL     1      27.316   1.659  52.360  1.00  0.00     0.243 C 
HETATM    6  O1  UNL     1      27.193   2.705  51.449  1.00  0.00    -0.326 OA
HETATM    7  C5  UNL     1      25.959   3.018  50.895  1.00  0.00     0.200 A 
HETATM    8  N2  UNL     1      26.001   3.934  49.900  1.00  0.00    -0.232 NA
HETATM    9  C6  UNL     1      24.848   4.311  49.290  1.00  0.00     0.157 A 
HETATM   10  C7  UNL     1      23.625   3.781  49.659  1.00  0.00     0.097 A 
HETATM   11  C8  UNL     1      23.583   2.846  50.675  1.00  0.00     0.047 A 
HETATM   12  C15 UNL     1      24.759   2.468  51.292  1.00  0.00     0.142 A 
HETATM   13  O3  UNL     1      24.788   1.534  52.318  1.00  0.00    -0.307 OA
ENDROOT
BRANCH  11  14
HETATM   14  C9  UNL     1      22.372   2.193  51.182  1.00  0.00    -0.020 A 
HETATM   15  C10 UNL     1      21.985   1.048  50.560  1.00  0.00     0.012 A 
HETATM   16  C11 UNL     1      20.855   0.382  50.985  1.00  0.00     0.001 A 
HETATM   17  C12 UNL     1      20.125   0.885  52.045  1.00  0.00     0.000 A 
HETATM   18  C13 UNL     1      20.533   2.048  52.664  1.00  0.00     0.001 A 
HETATM   19  C14 UNL     1      21.674   2.734  52.245  1.00  0.00     0.012 A 
ENDBRANCH  11  14
BRANCH  10  20
HETATM   20  O2  UNL     1      22.416   4.122  49.077  1.00  0.00    -0.358 OA
HETATM   21  H5  UNL     1      21.540   3.647  49.250  1.00  0.00     0.217 HD
ENDBRANCH  10  20
TORSDOF 2
ENDMDL
MODEL 5
REMARK VINA RESULT:      -7.0      2.558      5.429
REMARK  2 active torsions:
REMARK  status: ('A' for Active; 'I' for Inactive)
REMARK    1  A    between atoms: C7_10  and  O2_11 
REMARK    2  A    between atoms: C8_12  and  C9_13 
ROOT
HETATM    1  N1  UNL     1      29.059   2.563  53.458  1.00  0.00    -0.192 NA
HETATM    2  C1  UNL     1      27.953   2.169  53.505  1.00  0.00     0.090 C 
HETATM    3  C2  UNL     1      26.601   1.687  53.544  1.00  0.00     0.128 C 
HETATM    4  C3  UNL     1      25.834   1.860  52.474  1.00  0.00     0.088 C 
HETATM    5  C4  UNL     1      26.438   2.547  51.302  1.00  0.00     0.243 C 
HETATM    6  O1  UNL     1      25.495   2.976  50.372  1.00  0.00    -0.326 OA
HETATM    7  C5  UNL     1      24.191   2.502  50.418  1.00  0.00     0.200 A 
HETATM    8  N2  UNL     1      23.421   2.858  49.364  1.00  0.00    -0.232 NA
HETATM    9  C6  UNL     1      22.129   2.446  49.311  1.00  0.00     0.157 A 
HETATM   10  C7  UNL     1      21.573   1.669  50.311  1.00  0.00     0.097 A 
HETATM   11  C8  UNL     1      22.359   1.306  51.388  1.00  0.00     0.047 A 
HETATM   12  C15 UNL     1      23.672   1.729  51.436  1.00  0.00     0.142 A 
HETATM   13  O3  UNL     1      24.517   1.401  52.487  1.00  0.00    -0.307 OA
ENDROOT
BRANCH  11  14
HETATM   14  C9  UNL     1      21.923   0.490  52.525  1.00  0.00    -0.020 A 
HETATM   15  C10 UNL     1      22.299  -0.816  52.524  1.00  0.00     0.012 A 
HETATM   16  C11 UNL     1      21.923  -1.641  53.563  1.00  0.00     0.001 A 
HETATM   17  C12 UNL     1      21.165  -1.130  54.599  1.00  0.00     0.000 A 
HETATM   18  C13 UNL     1      20.792   0.197  54.583  1.00  0.00     0.001 A 
HETATM   19  C14 UNL     1      21.165   1.045  53.539  1.00  0.00     0.012 A 
ENDBRANCH  11  14
BRANCH  10  20
HETATM   20  O2  UNL     1      20.264   1.217  50.316  1.00  0.00    -0.358 OA
HETATM   21  H5  UNL     1      19.986   0.259  50.153  1.00  0.00     0.217 HD
ENDBRANCH  10  20
TORSDOF 2
ENDMDL
MODEL 6
REMARK VINA RESULT:      -7.0      2.381      5.024
REMARK  2 active torsions:
REMARK  status: ('A' for Active; 'I' for Inactive)
REMARK    1  A    between atoms: C7_10  and  O2_11 
REMARK    2  A    between atoms: C8_12  and  C9_13 
ROOT
HETATM    1  N1  UNL     1      27.455   4.241  49.283  1.00  0.00    -0.192 NA
HETATM    2  C1  UNL     1      26.413   3.801  49.601  1.00  0.00     0.090 C 
HETATM    3  C2  UNL     1      25.146   3.261  50.007  1.00  0.00     0.128 C 
HETATM    4  C3  UNL     1      25.105   2.466  51.069  1.00  0.00     0.088 C 
HETATM    5  C4  UNL     1      26.388   2.191  51.768  1.00  0.00     0.243 C 
HETATM    6  O1  UNL     1      26.314   1.111  52.645  1.00  0.00    -0.326 OA
HETATM    7  C5  UNL     1      25.084   0.599  53.032  1.00  0.00     0.200 A 
HETATM    8  N2  UNL     1      25.141  -0.330  54.014  1.00  0.00    -0.232 NA
HETATM    9  C6  UNL     1      23.992  -0.895  54.467  1.00  0.00     0.157 A 
HETATM   10  C7  UNL     1      22.758  -0.546  53.948  1.00  0.00     0.097 A 
HETATM   11  C8  UNL     1      22.701   0.401  52.944  1.00  0.00     0.047 A 
HETATM   12  C15 UNL     1      23.872   0.971  52.489  1.00  0.00     0.142 A 
HETATM   13  O3  UNL     1      23.886   1.929  51.484  1.00  0.00    -0.307 OA
ENDROOT
BRANCH  11  14
HETATM   14  C9  UNL     1      21.478   0.877  52.292  1.00  0.00    -0.020 A 
HETATM   15  C10 UNL     1      21.113   0.254  51.141  1.00  0.00     0.012 A 
HETATM   16  C11 UNL     1      19.973   0.651  50.474  1.00  0.00     0.001 A 
HETATM   17  C12 UNL     1      19.209   1.683  50.985  1.00  0.00     0.000 A 
HETATM   18  C13 UNL     1      19.595   2.304  52.154  1.00  0.00     0.001 A 
HETATM   19  C14 UNL     1      20.746   1.914  52.840  1.00  0.00     0.012 A 
ENDBRANCH  11  14
BRANCH  10  20
HETATM   20  O2  UNL     1      21.553  -1.085  54.366  1.00  0.00    -0.358 OA
HETATM   21  H5  UNL     1      20.849  -0.581  54.888  1.00  0.00     0.217 HD
ENDBRANCH  10  20
TORSDOF 2
ENDMDL
MODEL 7
REMARK VINA RESULT:      -6.9      2.305      4.210
REMARK  2 active torsions:
REMARK  status: ('A' for Active; 'I' for Inactive)
REMARK    1  A    between atoms: C7_10  and  O2_11 
REMARK    2  A    between atoms: C8_12  and  C9_13 
ROOT
HETATM    1  N1  UNL     1      21.428   6.289  50.880  1.00  0.00    -0.192 NA
HETATM    2  C1  UNL     1      21.586   5.217  51.335  1.00  0.00     0.090 C 
HETATM    3  C2  UNL     1      21.797   3.912  51.895  1.00  0.00     0.128 C 
HETATM    4  C3  UNL     1      23.031   3.421  51.914  1.00  0.00     0.088 C 
HETATM    5  C4  UNL     1      24.114   4.269  51.351  1.00  0.00     0.243 C 
HETATM    6  O1  UNL     1      25.292   3.566  51.111  1.00  0.00    -0.326 OA
HETATM    7  C5  UNL     1      25.486   2.305  51.659  1.00  0.00     0.200 A 
HETATM    8  N2  UNL     1      26.731   1.802  51.496  1.00  0.00    -0.232 NA
HETATM    9  C6  UNL     1      27.027   0.575  51.995  1.00  0.00     0.157 A 
HETATM   10  C7  UNL     1      26.085  -0.181  52.668  1.00  0.00     0.097 A 
HETATM   11  C8  UNL     1      24.812   0.332  52.833  1.00  0.00     0.047 A 
HETATM   12  C15 UNL     1      24.519   1.581  52.323  1.00  0.00     0.142 A 
HETATM   13  O3  UNL     1      23.262   2.155  52.453  1.00  0.00    -0.307 OA
ENDROOT
BRANCH  11  14
HETATM   14  C9  UNL     1      23.705  -0.341  53.518  1.00  0.00    -0.020 A 
HETATM   15  C10 UNL     1      22.566  -0.534  52.802  1.00  0.00     0.012 A 
HETATM   16  C11 UNL     1      21.485  -1.160  53.385  1.00  0.00     0.001 A 
HETATM   17  C12 UNL     1      21.570  -1.588  54.697  1.00  0.00     0.000 A 
HETATM   18  C13 UNL     1      22.734  -1.383  55.407  1.00  0.00     0.001 A 
HETATM   19  C14 UNL     1      23.836  -0.751  54.832  1.00  0.00     0.012 A 
ENDBRANCH  11  14
BRANCH  10  20
HETATM   20  O2  UNL     1      26.323  -1.437  53.200  1.00  0.00    -0.358 OA
HETATM   21  H5  UNL     1      27.239  -1.811  53.403  1.00  0.00     0.217 HD
ENDBRANCH  10  20
TORSDOF 2
ENDMDL
MODEL 8
REMARK VINA RESULT:      -6.8      7.798     10.206
REMARK  2 active torsions:
REMARK  status: ('A' for Active; 'I' for Inactive)
REMARK    1  A    between atoms: C7_10  and  O2_11 
REMARK    2  A    between atoms: C8_12  and  C9_13 
ROOT
HETATM    1  N1  UNL     1      25.882   6.283  49.107  1.00  0.00    -0.192 NA
HETATM    2  C1  UNL     1      26.838   5.660  48.828  1.00  0.00     0.090 C 
HETATM    3  C2  UNL     1      28.017   4.911  48.491  1.00  0.00     0.128 C 
HETATM    4  C3  UNL     1      29.134   5.575  48.219  1.00  0.00     0.088 C 
HETATM    5  C4  UNL     1      29.082   7.060  48.284  1.00  0.00     0.243 C 
HETATM    6  O1  UNL     1      30.174   7.674  47.675  1.00  0.00    -0.326 OA
HETATM    7  C5  UNL     1      31.308   6.941  47.356  1.00  0.00     0.200 A 
HETATM    8  N2  UNL     1      32.359   7.681  46.931  1.00  0.00    -0.232 NA
HETATM    9  C6  UNL     1      33.519   7.062  46.593  1.00  0.00     0.157 A 
HETATM   10  C7  UNL     1      33.658   5.688  46.672  1.00  0.00     0.097 A 
HETATM   11  C8  UNL     1      32.585   4.933  47.105  1.00  0.00     0.047 A 
HETATM   12  C15 UNL     1      31.408   5.569  47.447  1.00  0.00     0.142 A 
HETATM   13  O3  UNL     1      30.293   4.872  47.890  1.00  0.00    -0.307 OA
ENDROOT
BRANCH  11  14
HETATM   14  C9  UNL     1      32.570   3.474  47.243  1.00  0.00    -0.020 A 
HETATM   15  C10 UNL     1      31.822   2.780  46.345  1.00  0.00     0.012 A 
HETATM   16  C11 UNL     1      31.763   1.403  46.417  1.00  0.00     0.001 A 
HETATM   17  C12 UNL     1      32.469   0.741  47.404  1.00  0.00     0.000 A 
HETATM   18  C13 UNL     1      33.222   1.463  48.305  1.00  0.00     0.001 A 
HETATM   19  C14 UNL     1      33.291   2.855  48.247  1.00  0.00     0.012 A 
ENDBRANCH  11  14
BRANCH  10  20
HETATM   20  O2  UNL     1      34.812   4.997  46.343  1.00  0.00    -0.358 OA
HETATM   21  H5  UNL     1      35.204   4.942  45.413  1.00  0.00     0.217 HD
ENDBRANCH  10  20
TORSDOF 2
ENDMDL
MODEL 9
REMARK VINA RESULT:      -6.8      2.560      3.254
REMARK  2 active torsions:
REMARK  status: ('A' for Active; 'I' for Inactive)
REMARK    1  A    between atoms: C7_10  and  O2_11 
REMARK    2  A    between atoms: C8_12  and  C9_13 
ROOT
HETATM    1  N1  UNL     1      21.141   7.734  50.443  1.00  0.00    -0.192 NA
HETATM    2  C1  UNL     1      21.873   6.889  50.803  1.00  0.00     0.090 C 
HETATM    3  C2  UNL     1      22.756   5.843  51.239  1.00  0.00     0.128 C 
HETATM    4  C3  UNL     1      22.236   4.661  51.547  1.00  0.00     0.088 C 
HETATM    5  C4  UNL     1      20.763   4.505  51.415  1.00  0.00     0.243 C 
HETATM    6  O1  UNL     1      20.272   3.372  52.059  1.00  0.00    -0.326 OA
HETATM    7  C5  UNL     1      21.135   2.366  52.473  1.00  0.00     0.200 A 
HETATM    8  N2  UNL     1      20.524   1.247  52.926  1.00  0.00    -0.232 NA
HETATM    9  C6  UNL     1      21.276   0.202  53.356  1.00  0.00     0.157 A 
HETATM   10  C7  UNL     1      22.658   0.250  53.345  1.00  0.00     0.097 A 
HETATM   11  C8  UNL     1      23.282   1.393  52.883  1.00  0.00     0.047 A 
HETATM   12  C15 UNL     1      22.511   2.452  52.448  1.00  0.00     0.142 A 
HETATM   13  O3  UNL     1      23.072   3.628  51.971  1.00  0.00    -0.307 OA
ENDROOT
BRANCH  11  14
HETATM   14  C9  UNL     1      24.731   1.601  52.807  1.00  0.00    -0.020 A 
HETATM   15  C10 UNL     1      25.339   1.266  51.638  1.00  0.00     0.012 A 
HETATM   16  C11 UNL     1      26.700   1.436  51.498  1.00  0.00     0.001 A 
HETATM   17  C12 UNL     1      27.436   1.948  52.550  1.00  0.00     0.000 A 
HETATM   18  C13 UNL     1      26.801   2.281  53.728  1.00  0.00     0.001 A 
HETATM   19  C14 UNL     1      25.425   2.115  53.886  1.00  0.00     0.012 A 
ENDBRANCH  11  14
BRANCH  10  20
HETATM   20  O2  UNL     1      23.481  -0.780  53.768  1.00  0.00    -0.358 OA
HETATM   21  H5  UNL     1      24.481  -0.704  53.890  1.00  0.00     0.217 HD
ENDBRANCH  10  20
TORSDOF 2
ENDMDL
