MODEL 1
REMARK VINA RESULT:      -8.0      0.000      0.000
REMARK  3 active torsions:
REMARK  status: ('A' for Active; 'I' for Inactive)
REMARK    1  A    between atoms: C4_5  and  C5_6 
REMARK    2  A    between atoms: N1_17  and  C15_18 
REMARK    3  A    between atoms: C15_18  and  S1_19 
ROOT
HETATM    1  C5  UNL     1      23.144   3.793  52.492  1.00  0.00     0.113 C 
HETATM    2  C6  UNL     1      21.819   4.319  52.287  1.00  0.00     0.031 C 
HETATM    3  C7  UNL     1      21.022   4.066  51.018  1.00  0.00     0.017 C 
HETATM    4  C8  UNL     1      20.792   2.551  50.931  1.00  0.00    -0.009 A 
HETATM    5  C9  UNL     1      21.404   2.374  49.729  1.00  0.00     0.031 A 
HETATM    6  C10 UNL     1      22.311   1.376  49.906  1.00  0.00    -0.034 A 
HETATM    7  C11 UNL     1      21.738   1.513  51.123  1.00  0.00     0.001 A 
HETATM    8  C12 UNL     1      21.101   1.721  52.327  1.00  0.00     0.031 A 
HETATM    9  C13 UNL     1      20.174   2.709  52.202  1.00  0.00    -0.035 A 
HETATM   10  O1  UNL     1      22.366   0.703  52.144  1.00  0.00     0.000 OA
HETATM   11  C14 UNL     1      23.636   1.304  52.531  1.00  0.00     0.137 C 
HETATM   12  N1  UNL     1      23.660   2.613  52.941  1.00  0.00    -0.394 N 
ENDROOT
BRANCH   1  13
HETATM   13  C4  UNL     1      24.047   4.396  51.430  1.00  0.00    -0.036 A 
HETATM   14  C3  UNL     1      24.165   5.786  51.372  1.00  0.00     0.010 A 
HETATM   15  C2  UNL     1      24.924   6.530  50.502  1.00  0.00     0.019 A 
HETATM   16  C1  UNL     1      25.651   5.829  49.580  1.00  0.00     0.011 A 
HETATM   17 BR1  UNL     1      26.742   6.730  48.314  1.00  0.00    -0.051 Br
HETATM   18  C20 UNL     1      25.591   4.470  49.568  1.00  0.00     0.019 A 
HETATM   19  C19 UNL     1      24.808   3.797  50.474  1.00  0.00     0.010 A 
ENDBRANCH   1  13
BRANCH  12  20
HETATM   20  C15 UNL     1      25.037   2.957  53.445  1.00  0.00     0.205 C 
BRANCH  20  21
HETATM   21  S1  UNL     1      26.122   1.548  53.677  1.00  0.00    -0.061 SA
HETATM   22  N2  UNL     1      26.334   0.860  55.135  1.00  0.00    -0.030 NA
HETATM   23  O2  UNL     1      27.214  -0.226  55.130  1.00  0.00    -0.272 OA
HETATM   24  C16 UNL     1      28.469  -0.158  54.504  1.00  0.00     0.224 C 
HETATM   25  C17 UNL     1      28.435   0.394  53.125  1.00  0.00     0.008 C 
HETATM   26  C18 UNL     1      27.486   1.171  52.564  1.00  0.00     0.053 C 
ENDBRANCH  20  21
ENDBRANCH  12  20
TORSDOF 3
ENDMDL
MODEL 2
REMARK VINA RESULT:      -7.9      2.896      4.681
REMARK  3 active torsions:
REMARK  status: ('A' for Active; 'I' for Inactive)
REMARK    1  A    between atoms: C4_5  and  C5_6 
REMARK    2  A    between atoms: N1_17  and  C15_18 
REMARK    3  A    between atoms: C15_18  and  S1_19 
ROOT
HETATM    1  C5  UNL     1      23.530   2.888  50.841  1.00  0.00     0.113 C 
HETATM    2  C6  UNL     1      23.773   3.136  49.444  1.00  0.00     0.031 C 
HETATM    3  C7  UNL     1      22.952   4.122  48.630  1.00  0.00     0.017 C 
HETATM    4  C8  UNL     1      23.171   5.507  49.253  1.00  0.00    -0.009 A 
HETATM    5  C9  UNL     1      21.864   5.753  49.539  1.00  0.00     0.031 A 
HETATM    6  C10 UNL     1      21.820   6.098  50.854  1.00  0.00    -0.034 A 
HETATM    7  C11 UNL     1      23.131   5.862  50.624  1.00  0.00     0.001 A 
HETATM    8  C12 UNL     1      24.446   5.602  50.301  1.00  0.00     0.031 A 
HETATM    9  C13 UNL     1      24.546   5.259  48.989  1.00  0.00    -0.035 A 
HETATM   10  O1  UNL     1      23.939   5.912  51.823  1.00  0.00     0.000 OA
HETATM   11  C14 UNL     1      23.726   4.701  52.606  1.00  0.00     0.137 C 
HETATM   12  N1  UNL     1      23.908   3.479  52.011  1.00  0.00    -0.394 N 
ENDROOT
BRANCH   1  13
HETATM   13  C4  UNL     1      22.131   2.310  50.969  1.00  0.00    -0.036 A 
HETATM   14  C3  UNL     1      21.873   1.067  50.389  1.00  0.00     0.010 A 
HETATM   15  C2  UNL     1      20.691   0.367  50.390  1.00  0.00     0.019 A 
HETATM   16  C1  UNL     1      19.638   0.957  51.034  1.00  0.00     0.011 A 
HETATM   17 BR1  UNL     1      17.944   0.103  51.112  1.00  0.00    -0.051 Br
HETATM   18  C20 UNL     1      19.806   2.171  51.625  1.00  0.00     0.019 A 
HETATM   19  C19 UNL     1      21.023   2.807  51.581  1.00  0.00     0.010 A 
ENDBRANCH   1  13
BRANCH  12  20
HETATM   20  C15 UNL     1      23.797   2.393  53.049  1.00  0.00     0.205 C 
BRANCH  20  21
HETATM   21  S1  UNL     1      25.334   1.539  53.405  1.00  0.00    -0.061 SA
HETATM   22  N2  UNL     1      26.567   2.274  54.169  1.00  0.00    -0.030 NA
HETATM   23  O2  UNL     1      27.685   1.458  54.361  1.00  0.00    -0.272 OA
HETATM   24  C16 UNL     1      28.227   0.689  53.320  1.00  0.00     0.224 C 
HETATM   25  C17 UNL     1      27.226  -0.101  52.558  1.00  0.00     0.008 C 
HETATM   26  C18 UNL     1      25.897   0.110  52.466  1.00  0.00     0.053 C 
ENDBRANCH  20  21
ENDBRANCH  12  20
TORSDOF 3
ENDMDL
MODEL 3
REMARK VINA RESULT:      -7.7      2.947      5.262
REMARK  3 active torsions:
REMARK  status: ('A' for Active; 'I' for Inactive)
REMARK    1  A    between atoms: C4_5  and  C5_6 
REMARK    2  A    between atoms: N1_17  and  C15_18 
REMARK    3  A    between atoms: C15_18  and  S1_19 
ROOT
HETATM    1  C5  UNL     1      23.255   3.606  51.518  1.00  0.00     0.113 C 
HETATM    2  C6  UNL     1      23.181   4.895  52.157  1.00  0.00     0.031 C 
HETATM    3  C7  UNL     1      24.166   6.014  51.864  1.00  0.00     0.017 C 
HETATM    4  C8  UNL     1      24.007   6.373  50.381  1.00  0.00    -0.009 A 
HETATM    5  C9  UNL     1      25.293   6.114  50.023  1.00  0.00     0.031 A 
HETATM    6  C10 UNL     1      25.230   5.270  48.958  1.00  0.00    -0.034 A 
HETATM    7  C11 UNL     1      23.934   5.491  49.274  1.00  0.00     0.001 A 
HETATM    8  C12 UNL     1      22.643   5.771  49.665  1.00  0.00     0.031 A 
HETATM    9  C13 UNL     1      22.650   6.621  50.727  1.00  0.00    -0.035 A 
HETATM   10  O1  UNL     1      23.014   4.679  48.507  1.00  0.00     0.000 OA
HETATM   11  C14 UNL     1      23.037   3.310  49.007  1.00  0.00     0.137 C 
HETATM   12  N1  UNL     1      22.811   3.081  50.341  1.00  0.00    -0.394 N 
ENDROOT
BRANCH   1  13
HETATM   13  C4  UNL     1      24.577   2.972  51.916  1.00  0.00    -0.036 A 
HETATM   14  C3  UNL     1      24.793   2.680  53.264  1.00  0.00     0.010 A 
HETATM   15  C2  UNL     1      25.904   2.107  53.833  1.00  0.00     0.019 A 
HETATM   16  C1  UNL     1      26.923   1.783  52.980  1.00  0.00     0.011 A 
HETATM   17 BR1  UNL     1      28.519   0.987  53.630  1.00  0.00    -0.051 Br
HETATM   18  C20 UNL     1      26.793   2.036  51.650  1.00  0.00     0.019 A 
HETATM   19  C19 UNL     1      25.647   2.612  51.156  1.00  0.00     0.010 A 
ENDBRANCH   1  13
BRANCH  12  20
HETATM   20  C15 UNL     1      22.717   1.598  50.587  1.00  0.00     0.205 C 
BRANCH  20  21
HETATM   21  S1  UNL     1      21.429   1.111  51.736  1.00  0.00    -0.061 SA
HETATM   22  N2  UNL     1      21.773   0.548  53.222  1.00  0.00    -0.030 NA
HETATM   23  O2  UNL     1      20.647   0.217  53.981  1.00  0.00    -0.272 OA
HETATM   24  C16 UNL     1      19.608  -0.569  53.457  1.00  0.00     0.224 C 
HETATM   25  C17 UNL     1      19.132  -0.139  52.117  1.00  0.00     0.008 C 
HETATM   26  C18 UNL     1      19.784   0.607  51.204  1.00  0.00     0.053 C 
ENDBRANCH  20  21
ENDBRANCH  12  20
TORSDOF 3
ENDMDL
MODEL 4
REMARK VINA RESULT:      -7.4      3.312      5.442
REMARK  3 active torsions:
REMARK  status: ('A' for Active; 'I' for Inactive)
REMARK    1  A    between atoms: C4_5  and  C5_6 
REMARK    2  A    between atoms: N1_17  and  C15_18 
REMARK    3  A    between atoms: C15_18  and  S1_19 
ROOT
HETATM    1  C5  UNL     1      22.680   3.036  50.819  1.00  0.00     0.113 C 
HETATM    2  C6  UNL     1      22.328   1.960  49.929  1.00  0.00     0.031 C 
HETATM    3  C7  UNL     1      21.967   0.570  50.425  1.00  0.00     0.017 C 
HETATM    4  C8  UNL     1      20.703   0.716  51.282  1.00  0.00    -0.009 A 
HETATM    5  C9  UNL     1      21.235   0.207  52.425  1.00  0.00     0.031 A 
HETATM    6  C10 UNL     1      20.985   1.120  53.403  1.00  0.00    -0.034 A 
HETATM    7  C11 UNL     1      20.442   1.672  52.295  1.00  0.00     0.001 A 
HETATM    8  C12 UNL     1      19.916   2.161  51.118  1.00  0.00     0.031 A 
HETATM    9  C13 UNL     1      20.134   1.278  50.106  1.00  0.00    -0.035 A 
HETATM   10  O1  UNL     1      19.956   3.019  52.508  1.00  0.00     0.000 OA
HETATM   11  C14 UNL     1      21.084   3.940  52.572  1.00  0.00     0.137 C 
HETATM   12  N1  UNL     1      21.989   3.964  51.541  1.00  0.00    -0.394 N 
ENDROOT
BRANCH   1  13
HETATM   13  C4  UNL     1      23.945   2.629  51.554  1.00  0.00    -0.036 A 
HETATM   14  C3  UNL     1      25.136   2.548  50.830  1.00  0.00     0.010 A 
HETATM   15  C2  UNL     1      26.382   2.207  51.295  1.00  0.00     0.019 A 
HETATM   16  C1  UNL     1      26.471   1.908  52.627  1.00  0.00     0.011 A 
HETATM   17 BR1  UNL     1      28.132   1.418  53.405  1.00  0.00    -0.051 Br
HETATM   18  C20 UNL     1      25.356   1.961  53.404  1.00  0.00     0.019 A 
HETATM   19  C19 UNL     1      24.143   2.314  52.863  1.00  0.00     0.010 A 
ENDBRANCH   1  13
BRANCH  12  20
HETATM   20  C15 UNL     1      22.958   5.098  51.748  1.00  0.00     0.205 C 
BRANCH  20  21
HETATM   21  S1  UNL     1      23.230   6.122  50.301  1.00  0.00    -0.061 SA
HETATM   22  N2  UNL     1      24.414   5.801  49.234  1.00  0.00    -0.030 NA
HETATM   23  O2  UNL     1      24.480   6.703  48.168  1.00  0.00    -0.272 OA
HETATM   24  C16 UNL     1      24.454   8.092  48.372  1.00  0.00     0.224 C 
HETATM   25  C17 UNL     1      23.376   8.556  49.283  1.00  0.00     0.008 C 
HETATM   26  C18 UNL     1      22.705   7.842  50.208  1.00  0.00     0.053 C 
ENDBRANCH  20  21
ENDBRANCH  12  20
TORSDOF 3
ENDMDL
MODEL 5
REMARK VINA RESULT:      -7.2      6.965      9.616
REMARK  3 active torsions:
REMARK  status: ('A' for Active; 'I' for Inactive)
REMARK    1  A    between atoms: C4_5  and  C5_6 
REMARK    2  A    between atoms: N1_17  and  C15_18 
REMARK    3  A    between atoms: C15_18  and  S1_19 
ROOT
HETATM    1  C5  UNL     1      30.024   7.611  47.473  1.00  0.00     0.113 C 
HETATM    2  C6  UNL     1      29.654   8.114  46.175  1.00  0.00     0.031 C 
HETATM    3  C7  UNL     1      28.581   9.171  45.980  1.00  0.00     0.017 C 
HETATM    4  C8  UNL     1      29.065  10.438  46.698  1.00  0.00    -0.009 A 
HETATM    5  C9  UNL     1      28.008  10.545  47.546  1.00  0.00     0.031 A 
HETATM    6  C10 UNL     1      28.532  10.652  48.797  1.00  0.00    -0.034 A 
HETATM    7  C11 UNL     1      29.618  10.545  47.998  1.00  0.00     0.001 A 
HETATM    8  C12 UNL     1      30.666  10.432  47.111  1.00  0.00     0.031 A 
HETATM    9  C13 UNL     1      30.194  10.329  45.839  1.00  0.00    -0.035 A 
HETATM   10  O1  UNL     1      30.860  10.438  48.733  1.00  0.00     0.000 OA
HETATM   11  C14 UNL     1      30.980   9.098  49.294  1.00  0.00     0.137 C 
HETATM   12  N1  UNL     1      30.873   8.012  48.462  1.00  0.00    -0.394 N 
ENDROOT
BRANCH   1  13
HETATM   13  C4  UNL     1      28.804   6.930  48.066  1.00  0.00    -0.036 A 
HETATM   14  C3  UNL     1      28.762   5.535  48.077  1.00  0.00     0.010 A 
HETATM   15  C2  UNL     1      27.766   4.726  48.565  1.00  0.00     0.019 A 
HETATM   16  C1  UNL     1      26.681   5.360  49.105  1.00  0.00     0.011 A 
HETATM   17 BR1  UNL     1      25.228   4.366  49.816  1.00  0.00    -0.051 Br
HETATM   18  C20 UNL     1      26.642   6.719  49.133  1.00  0.00     0.019 A 
HETATM   19  C19 UNL     1      27.682   7.460  48.625  1.00  0.00     0.010 A 
ENDBRANCH   1  13
BRANCH  12  20
HETATM   20  C15 UNL     1      31.197   6.757  49.230  1.00  0.00     0.205 C 
BRANCH  20  21
HETATM   21  S1  UNL     1      32.472   5.736  48.489  1.00  0.00    -0.061 SA
HETATM   22  N2  UNL     1      32.219   4.170  48.136  1.00  0.00    -0.030 NA
HETATM   23  O2  UNL     1      33.323   3.529  47.565  1.00  0.00    -0.272 OA
HETATM   24  C16 UNL     1      34.609   3.639  48.116  1.00  0.00     0.224 C 
HETATM   25  C17 UNL     1      35.019   5.031  48.438  1.00  0.00     0.008 C 
HETATM   26  C18 UNL     1      34.228   6.104  48.641  1.00  0.00     0.053 C 
ENDBRANCH  20  21
ENDBRANCH  12  20
TORSDOF 3
ENDMDL
MODEL 6
REMARK VINA RESULT:      -7.1      3.837      5.685
REMARK  3 active torsions:
REMARK  status: ('A' for Active; 'I' for Inactive)
REMARK    1  A    between atoms: C4_5  and  C5_6 
REMARK    2  A    between atoms: N1_17  and  C15_18 
REMARK    3  A    between atoms: C15_18  and  S1_19 
ROOT
HETATM    1  C5  UNL     1      21.018   1.180  50.573  1.00  0.00     0.113 C 
HETATM    2  C6  UNL     1      21.275   1.130  49.157  1.00  0.00     0.031 C 
HETATM    3  C7  UNL     1      21.008   2.305  48.232  1.00  0.00     0.017 C 
HETATM    4  C8  UNL     1      21.918   3.451  48.691  1.00  0.00    -0.009 A 
HETATM    5  C9  UNL     1      20.924   4.344  48.943  1.00  0.00     0.031 A 
HETATM    6  C10 UNL     1      21.129   4.797  50.209  1.00  0.00    -0.034 A 
HETATM    7  C11 UNL     1      22.136   3.916  50.012  1.00  0.00     0.001 A 
HETATM    8  C12 UNL     1      23.128   3.004  49.725  1.00  0.00     0.031 A 
HETATM    9  C13 UNL     1      22.973   2.524  48.462  1.00  0.00    -0.035 A 
HETATM   10  O1  UNL     1      22.927   3.678  51.200  1.00  0.00     0.000 OA
HETATM   11  C14 UNL     1      22.185   2.823  52.117  1.00  0.00     0.137 C 
HETATM   12  N1  UNL     1      21.704   1.619  51.668  1.00  0.00    -0.394 N 
ENDROOT
BRANCH   1  13
HETATM   13  C4  UNL     1      19.527   1.393  50.762  1.00  0.00    -0.036 A 
HETATM   14  C3  UNL     1      18.657   0.371  50.377  1.00  0.00     0.010 A 
HETATM   15  C2  UNL     1      17.287   0.355  50.464  1.00  0.00     0.019 A 
HETATM   16  C1  UNL     1      16.700   1.473  50.989  1.00  0.00     0.011 A 
HETATM   17 BR1  UNL     1      14.813   1.588  51.167  1.00  0.00    -0.051 Br
HETATM   18  C20 UNL     1      17.476   2.516  51.389  1.00  0.00     0.019 A 
HETATM   19  C19 UNL     1      18.844   2.455  51.270  1.00  0.00     0.010 A 
ENDBRANCH   1  13
BRANCH  12  20
HETATM   20  C15 UNL     1      21.126   0.845  52.824  1.00  0.00     0.205 C 
BRANCH  20  21
HETATM   21  S1  UNL     1      22.294  -0.226  53.665  1.00  0.00    -0.061 SA
HETATM   22  N2  UNL     1      21.955  -0.902  55.104  1.00  0.00    -0.030 NA
HETATM   23  O2  UNL     1      22.980  -1.705  55.611  1.00  0.00    -0.272 OA
HETATM   24  C16 UNL     1      24.313  -1.268  55.649  1.00  0.00     0.224 C 
HETATM   25  C17 UNL     1      24.799  -0.677  54.375  1.00  0.00     0.008 C 
HETATM   26  C18 UNL     1      24.068  -0.161  53.367  1.00  0.00     0.053 C 
ENDBRANCH  20  21
ENDBRANCH  12  20
TORSDOF 3
ENDMDL
MODEL 7
REMARK VINA RESULT:      -6.8     10.343     12.812
REMARK  3 active torsions:
REMARK  status: ('A' for Active; 'I' for Inactive)
REMARK    1  A    between atoms: C4_5  and  C5_6 
REMARK    2  A    between atoms: N1_17  and  C15_18 
REMARK    3  A    between atoms: C15_18  and  S1_19 
ROOT
HETATM    1  C5  UNL     1      33.854   6.484  46.493  1.00  0.00     0.113 C 
HETATM    2  C6  UNL     1      34.601   5.851  47.549  1.00  0.00     0.031 C 
HETATM    3  C7  UNL     1      34.056   4.684  48.355  1.00  0.00     0.017 C 
HETATM    4  C8  UNL     1      33.831   3.528  47.372  1.00  0.00    -0.009 A 
HETATM    5  C9  UNL     1      32.500   3.386  47.607  1.00  0.00     0.031 A 
HETATM    6  C10 UNL     1      31.891   3.424  46.391  1.00  0.00    -0.034 A 
HETATM    7  C11 UNL     1      33.204   3.573  46.102  1.00  0.00     0.001 A 
HETATM    8  C12 UNL     1      34.559   3.719  45.899  1.00  0.00     0.031 A 
HETATM    9  C13 UNL     1      35.217   3.679  47.089  1.00  0.00    -0.035 A 
HETATM   10  O1  UNL     1      33.453   3.854  44.705  1.00  0.00     0.000 OA
HETATM   11  C14 UNL     1      33.099   5.238  44.415  1.00  0.00     0.137 C 
HETATM   12  N1  UNL     1      33.656   6.242  45.165  1.00  0.00    -0.394 N 
ENDROOT
BRANCH   1  13
HETATM   13  C4  UNL     1      32.606   7.089  47.112  1.00  0.00    -0.036 A 
HETATM   14  C3  UNL     1      32.760   8.114  48.047  1.00  0.00     0.010 A 
HETATM   15  C2  UNL     1      31.775   8.796  48.718  1.00  0.00     0.019 A 
HETATM   16  C1  UNL     1      30.487   8.428  48.440  1.00  0.00     0.011 A 
HETATM   17 BR1  UNL     1      29.025   9.286  49.297  1.00  0.00    -0.051 Br
HETATM   18  C20 UNL     1      30.250   7.436  47.541  1.00  0.00     0.019 A 
HETATM   19  C19 UNL     1      31.292   6.801  46.909  1.00  0.00     0.010 A 
ENDBRANCH   1  13
BRANCH  12  20
HETATM   20  C15 UNL     1      33.278   7.577  44.578  1.00  0.00     0.205 C 
BRANCH  20  21
HETATM   21  S1  UNL     1      34.618   8.436  43.750  1.00  0.00    -0.061 SA
HETATM   22  N2  UNL     1      35.436   7.762  42.518  1.00  0.00    -0.030 NA
HETATM   23  O2  UNL     1      36.447   8.573  41.994  1.00  0.00    -0.272 OA
HETATM   24  C16 UNL     1      37.378   9.221  42.820  1.00  0.00     0.224 C 
HETATM   25  C17 UNL     1      36.776   9.946  43.969  1.00  0.00     0.008 C 
HETATM   26  C18 UNL     1      35.567   9.751  44.532  1.00  0.00     0.053 C 
ENDBRANCH  20  21
ENDBRANCH  12  20
TORSDOF 3
ENDMDL
MODEL 8
REMARK VINA RESULT:      -6.8      2.797      5.699
REMARK  3 active torsions:
REMARK  status: ('A' for Active; 'I' for Inactive)
REMARK    1  A    between atoms: C4_5  and  C5_6 
REMARK    2  A    between atoms: N1_17  and  C15_18 
REMARK    3  A    between atoms: C15_18  and  S1_19 
ROOT
HETATM    1  C5  UNL     1      25.111   2.889  49.905  1.00  0.00     0.113 C 
HETATM    2  C6  UNL     1      26.320   2.291  50.408  1.00  0.00     0.031 C 
HETATM    3  C7  UNL     1      26.798   2.483  51.838  1.00  0.00     0.017 C 
HETATM    4  C8  UNL     1      25.726   1.877  52.753  1.00  0.00    -0.009 A 
HETATM    5  C9  UNL     1      25.458   3.016  53.446  1.00  0.00     0.031 A 
HETATM    6  C10 UNL     1      24.110   3.189  53.389  1.00  0.00    -0.034 A 
HETATM    7  C11 UNL     1      24.322   2.054  52.685  1.00  0.00     0.001 A 
HETATM    8  C12 UNL     1      24.628   0.906  51.987  1.00  0.00     0.031 A 
HETATM    9  C13 UNL     1      25.970   0.682  52.020  1.00  0.00    -0.035 A 
HETATM   10  O1  UNL     1      23.128   1.551  52.039  1.00  0.00     0.000 OA
HETATM   11  C14 UNL     1      22.823   2.370  50.873  1.00  0.00     0.137 C 
HETATM   12  N1  UNL     1      23.788   2.558  49.916  1.00  0.00    -0.394 N 
ENDROOT
BRANCH   1  13
HETATM   13  C4  UNL     1      25.280   4.397  49.978  1.00  0.00    -0.036 A 
HETATM   14  C3  UNL     1      26.258   4.993  49.181  1.00  0.00     0.010 A 
HETATM   15  C2  UNL     1      26.572   6.327  49.091  1.00  0.00     0.019 A 
HETATM   16  C1  UNL     1      25.840   7.176  49.875  1.00  0.00     0.011 A 
HETATM   17 BR1  UNL     1      26.168   9.046  49.852  1.00  0.00    -0.051 Br
HETATM   18  C20 UNL     1      24.867   6.675  50.683  1.00  0.00     0.019 A 
HETATM   19  C19 UNL     1      24.612   5.325  50.716  1.00  0.00     0.010 A 
ENDBRANCH   1  13
BRANCH  12  20
HETATM   20  C15 UNL     1      23.194   3.289  48.740  1.00  0.00     0.205 C 
BRANCH  20  21
HETATM   21  S1  UNL     1      21.438   3.627  48.880  1.00  0.00    -0.061 SA
HETATM   22  N2  UNL     1      20.872   4.875  49.755  1.00  0.00    -0.030 NA
HETATM   23  O2  UNL     1      19.478   4.986  49.752  1.00  0.00    -0.272 OA
HETATM   24  C16 UNL     1      18.647   3.882  49.997  1.00  0.00     0.224 C 
HETATM   25  C17 UNL     1      18.998   2.667  49.216  1.00  0.00     0.008 C 
HETATM   26  C18 UNL     1      20.177   2.364  48.638  1.00  0.00     0.053 C 
ENDBRANCH  20  21
ENDBRANCH  12  20
TORSDOF 3
ENDMDL
MODEL 9
REMARK VINA RESULT:      -6.7      9.900     12.027
REMARK  3 active torsions:
REMARK  status: ('A' for Active; 'I' for Inactive)
REMARK    1  A    between atoms: C4_5  and  C5_6 
REMARK    2  A    between atoms: N1_17  and  C15_18 
REMARK    3  A    between atoms: C15_18  and  S1_19 
ROOT
HETATM    1  C5  UNL     1      32.400   5.925  45.636  1.00  0.00     0.113 C 
HETATM    2  C6  UNL     1      32.982   4.679  45.210  1.00  0.00     0.031 C 
HETATM    3  C7  UNL     1      34.272   4.132  45.798  1.00  0.00     0.017 C 
HETATM    4  C8  UNL     1      34.011   3.880  47.289  1.00  0.00    -0.009 A 
HETATM    5  C9  UNL     1      34.986   4.704  47.756  1.00  0.00     0.031 A 
HETATM    6  C10 UNL     1      34.389   5.532  48.655  1.00  0.00    -0.034 A 
HETATM    7  C11 UNL     1      33.381   4.741  48.222  1.00  0.00     0.001 A 
HETATM    8  C12 UNL     1      32.415   3.893  47.726  1.00  0.00     0.031 A 
HETATM    9  C13 UNL     1      32.965   3.035  46.824  1.00  0.00    -0.035 A 
HETATM   10  O1  UNL     1      32.085   5.140  48.728  1.00  0.00     0.000 OA
HETATM   11  C14 UNL     1      31.630   6.329  48.020  1.00  0.00     0.137 C 
HETATM   12  N1  UNL     1      31.573   6.313  46.650  1.00  0.00    -0.394 N 
ENDROOT
BRANCH   1  13
HETATM   13  C4  UNL     1      33.387   7.031  45.307  1.00  0.00    -0.036 A 
HETATM   14  C3  UNL     1      33.741   7.228  43.971  1.00  0.00     0.010 A 
HETATM   15  C2  UNL     1      34.604   8.165  43.458  1.00  0.00     0.019 A 
HETATM   16  C1  UNL     1      35.191   9.007  44.362  1.00  0.00     0.011 A 
HETATM   17 BR1  UNL     1      36.407  10.349  43.793  1.00  0.00    -0.051 Br
HETATM   18  C20 UNL     1      34.901   8.881  45.685  1.00  0.00     0.019 A 
HETATM   19  C19 UNL     1      34.024   7.917  46.120  1.00  0.00     0.010 A 
ENDBRANCH   1  13
BRANCH  12  20
HETATM   20  C15 UNL     1      30.920   7.577  46.158  1.00  0.00     0.205 C 
BRANCH  20  21
HETATM   21  S1  UNL     1      30.568   8.783  47.438  1.00  0.00    -0.061 SA
HETATM   22  N2  UNL     1      29.056   9.044  47.978  1.00  0.00    -0.030 NA
HETATM   23  O2  UNL     1      28.969  10.019  48.976  1.00  0.00    -0.272 OA
HETATM   24  C16 UNL     1      29.596  11.268  48.847  1.00  0.00     0.224 C 
HETATM   25  C17 UNL     1      31.017  11.197  48.418  1.00  0.00     0.008 C 
HETATM   26  C18 UNL     1      31.642  10.186  47.781  1.00  0.00     0.053 C 
ENDBRANCH  20  21
ENDBRANCH  12  20
TORSDOF 3
ENDMDL
