MODEL 1
REMARK VINA RESULT:      -7.3      0.000      0.000
REMARK  9 active torsions:
REMARK  status: ('A' for Active; 'I' for Inactive)
REMARK    1  A    between atoms: C1_2  and  N1_3 
REMARK    2  A    between atoms: N1_3  and  C2_4 
REMARK    3  A    between atoms: C7_9  and  C8_10 
REMARK    4  A    between atoms: C8_10  and  C9_11 
REMARK    5  A    between atoms: C9_11  and  C10_12 
REMARK    6  A    between atoms: C14_16  and  C15_17 
REMARK    7  A    between atoms: C15_17  and  C16_18 
REMARK    8  A    between atoms: C16_18  and  C17_19 
REMARK    9  A    between atoms: C17_19  and  O3_21 
ROOT
HETATM    1  C9  UNL     1      25.734   1.029  52.195  1.00  0.00     0.044 C 
ENDROOT
BRANCH   1   2
HETATM    2  C8  UNL     1      25.946   0.267  53.465  1.00  0.00     0.045 C 
BRANCH   2   3
HETATM    3  C7  UNL     1      27.200  -0.552  53.461  1.00  0.00    -0.031 A 
HETATM    4  C2  UNL     1      28.412  -0.173  53.962  1.00  0.00     0.040 A 
HETATM    5  C3  UNL     1      29.440  -1.072  53.829  1.00  0.00     0.030 A 
HETATM    6  C4  UNL     1      29.347  -2.301  53.243  1.00  0.00     0.002 A 
HETATM    7  C5  UNL     1      28.113  -2.701  52.726  1.00  0.00     0.001 A 
HETATM    8  C6  UNL     1      27.072  -1.807  52.854  1.00  0.00     0.009 A 
BRANCH   4   9
HETATM    9  N1  UNL     1      28.501   1.098  54.577  1.00  0.00    -0.334 N 
HETATM   10  H2  UNL     1      28.113   1.279  55.518  1.00  0.00     0.168 HD
BRANCH   9  11
HETATM   11  C1  UNL     1      29.097   2.284  54.094  1.00  0.00     0.353 C 
HETATM   12  O1  UNL     1      28.771   2.753  52.977  1.00  0.00    -0.283 OA
ENDBRANCH   9  11
ENDBRANCH   4   9
ENDBRANCH   2   3
ENDBRANCH   1   2
BRANCH   1  13
HETATM   13  C10 UNL     1      24.312   1.399  51.948  1.00  0.00    -0.040 C 
HETATM   14  C11 UNL     1      23.242   0.783  52.437  1.00  0.00    -0.018 C 
HETATM   15  C12 UNL     1      22.231   0.748  51.577  1.00  0.00     0.013 C 
HETATM   16  C13 UNL     1      22.458   2.058  50.929  1.00  0.00     0.008 C 
HETATM   17  C14 UNL     1      23.716   2.473  51.144  1.00  0.00    -0.051 C 
BRANCH  17  18
HETATM   18  C15 UNL     1      24.429   3.687  50.739  1.00  0.00     0.049 C 
BRANCH  18  19
HETATM   19  C16 UNL     1      25.173   3.466  49.432  1.00  0.00     0.114 C 
BRANCH  19  20
HETATM   20  C17 UNL     1      26.591   3.913  49.499  1.00  0.00     0.139 C 
HETATM   21  O2  UNL     1      27.368   4.517  48.685  1.00  0.00    -0.650 OA
BRANCH  20  22
HETATM   22  O3  UNL     1      27.233   3.623  50.694  1.00  0.00    -0.776 OA
HETATM   23  H17 UNL     1      28.216   3.850  50.846  1.00  0.00     0.167 HD
ENDBRANCH  20  22
ENDBRANCH  19  20
ENDBRANCH  18  19
ENDBRANCH  17  18
ENDBRANCH   1  13
TORSDOF 9
ENDMDL
MODEL 2
REMARK VINA RESULT:      -7.3      1.752      2.577
REMARK  9 active torsions:
REMARK  status: ('A' for Active; 'I' for Inactive)
REMARK    1  A    between atoms: C1_2  and  N1_3 
REMARK    2  A    between atoms: N1_3  and  C2_4 
REMARK    3  A    between atoms: C7_9  and  C8_10 
REMARK    4  A    between atoms: C8_10  and  C9_11 
REMARK    5  A    between atoms: C9_11  and  C10_12 
REMARK    6  A    between atoms: C14_16  and  C15_17 
REMARK    7  A    between atoms: C15_17  and  C16_18 
REMARK    8  A    between atoms: C16_18  and  C17_19 
REMARK    9  A    between atoms: C17_19  and  O3_21 
ROOT
HETATM    1  C9  UNL     1      24.917  -0.503  54.376  1.00  0.00     0.044 C 
ENDROOT
BRANCH   1   2
HETATM    2  C8  UNL     1      25.736  -0.335  53.134  1.00  0.00     0.045 C 
BRANCH   2   3
HETATM    3  C7  UNL     1      27.134  -0.855  53.273  1.00  0.00    -0.031 A 
HETATM    4  C2  UNL     1      28.211  -0.156  53.738  1.00  0.00     0.040 A 
HETATM    5  C3  UNL     1      29.412  -0.821  53.756  1.00  0.00     0.030 A 
HETATM    6  C4  UNL     1      29.611  -2.109  53.351  1.00  0.00     0.002 A 
HETATM    7  C5  UNL     1      28.518  -2.834  52.873  1.00  0.00     0.001 A 
HETATM    8  C6  UNL     1      27.306  -2.178  52.850  1.00  0.00     0.009 A 
BRANCH   4   9
HETATM    9  N1  UNL     1      27.998   1.174  54.166  1.00  0.00    -0.334 N 
HETATM   10  H2  UNL     1      27.571   1.393  55.082  1.00  0.00     0.168 HD
BRANCH   9  11
HETATM   11  C1  UNL     1      28.304   2.385  53.505  1.00  0.00     0.353 C 
HETATM   12  O1  UNL     1      27.930   2.580  52.324  1.00  0.00    -0.283 OA
ENDBRANCH   9  11
ENDBRANCH   4   9
ENDBRANCH   2   3
ENDBRANCH   1   2
BRANCH   1  13
HETATM   13  C10 UNL     1      23.451  -0.564  54.123  1.00  0.00    -0.040 C 
HETATM   14  C11 UNL     1      22.533  -1.081  54.932  1.00  0.00    -0.018 C 
HETATM   15  C12 UNL     1      21.557  -1.696  54.275  1.00  0.00     0.013 C 
HETATM   16  C13 UNL     1      21.504  -0.809  53.093  1.00  0.00     0.008 C 
HETATM   17  C14 UNL     1      22.645  -0.111  52.982  1.00  0.00    -0.051 C 
BRANCH  17  18
HETATM   18  C15 UNL     1      23.086   0.896  52.014  1.00  0.00     0.049 C 
BRANCH  18  19
HETATM   19  C16 UNL     1      23.033   2.288  52.622  1.00  0.00     0.114 C 
BRANCH  19  20
HETATM   20  C17 UNL     1      24.294   3.051  52.416  1.00  0.00     0.139 C 
HETATM   21  O2  UNL     1      24.841   3.603  51.402  1.00  0.00    -0.650 OA
BRANCH  20  22
HETATM   22  O3  UNL     1      25.065   3.212  53.559  1.00  0.00    -0.776 OA
HETATM   23  H17 UNL     1      26.028   2.878  53.609  1.00  0.00     0.167 HD
ENDBRANCH  20  22
ENDBRANCH  19  20
ENDBRANCH  18  19
ENDBRANCH  17  18
ENDBRANCH   1  13
TORSDOF 9
ENDMDL
MODEL 3
REMARK VINA RESULT:      -7.2      2.598      5.177
REMARK  9 active torsions:
REMARK  status: ('A' for Active; 'I' for Inactive)
REMARK    1  A    between atoms: C1_2  and  N1_3 
REMARK    2  A    between atoms: N1_3  and  C2_4 
REMARK    3  A    between atoms: C7_9  and  C8_10 
REMARK    4  A    between atoms: C8_10  and  C9_11 
REMARK    5  A    between atoms: C9_11  and  C10_12 
REMARK    6  A    between atoms: C14_16  and  C15_17 
REMARK    7  A    between atoms: C15_17  and  C16_18 
REMARK    8  A    between atoms: C16_18  and  C17_19 
REMARK    9  A    between atoms: C17_19  and  O3_21 
ROOT
HETATM    1  C9  UNL     1      23.566   1.637  51.299  1.00  0.00     0.044 C 
ENDROOT
BRANCH   1   2
HETATM    2  C8  UNL     1      23.058   1.862  52.689  1.00  0.00     0.045 C 
BRANCH   2   3
HETATM    3  C7  UNL     1      22.364   0.667  53.266  1.00  0.00    -0.031 A 
HETATM    4  C2  UNL     1      22.961  -0.381  53.905  1.00  0.00     0.040 A 
HETATM    5  C3  UNL     1      22.134  -1.390  54.333  1.00  0.00     0.030 A 
HETATM    6  C4  UNL     1      20.779  -1.426  54.173  1.00  0.00     0.002 A 
HETATM    7  C5  UNL     1      20.157  -0.360  53.520  1.00  0.00     0.001 A 
HETATM    8  C6  UNL     1      20.976   0.659  53.086  1.00  0.00     0.009 A 
BRANCH   4   9
HETATM    9  N1  UNL     1      24.363  -0.334  54.078  1.00  0.00    -0.334 N 
HETATM   10  H2  UNL     1      24.977   0.192  53.435  1.00  0.00     0.168 HD
BRANCH   9  11
HETATM   11  C1  UNL     1      25.160  -0.930  55.081  1.00  0.00     0.353 C 
HETATM   12  O1  UNL     1      26.336  -0.542  55.277  1.00  0.00    -0.283 OA
ENDBRANCH   9  11
ENDBRANCH   4   9
ENDBRANCH   2   3
ENDBRANCH   1   2
BRANCH   1  13
HETATM   13  C10 UNL     1      24.663   2.564  50.905  1.00  0.00    -0.040 C 
HETATM   14  C11 UNL     1      24.521   3.751  50.325  1.00  0.00    -0.018 C 
HETATM   15  C12 UNL     1      25.477   4.008  49.440  1.00  0.00     0.013 C 
HETATM   16  C13 UNL     1      26.595   3.327  50.130  1.00  0.00     0.008 C 
HETATM   17  C14 UNL     1      26.122   2.446  51.026  1.00  0.00    -0.051 C 
BRANCH  17  18
HETATM   18  C15 UNL     1      26.798   1.544  51.962  1.00  0.00     0.049 C 
BRANCH  18  19
HETATM   19  C16 UNL     1      26.981   2.211  53.315  1.00  0.00     0.114 C 
BRANCH  19  20
HETATM   20  C17 UNL     1      28.402   2.228  53.757  1.00  0.00     0.139 C 
HETATM   21  O2  UNL     1      29.036   1.683  54.723  1.00  0.00    -0.650 OA
BRANCH  20  22
HETATM   22  O3  UNL     1      29.244   2.996  52.966  1.00  0.00    -0.776 OA
HETATM   23  H17 UNL     1      28.897   3.782  52.415  1.00  0.00     0.167 HD
ENDBRANCH  20  22
ENDBRANCH  19  20
ENDBRANCH  18  19
ENDBRANCH  17  18
ENDBRANCH   1  13
TORSDOF 9
ENDMDL
MODEL 4
REMARK VINA RESULT:      -7.2      3.228      4.667
REMARK  9 active torsions:
REMARK  status: ('A' for Active; 'I' for Inactive)
REMARK    1  A    between atoms: C1_2  and  N1_3 
REMARK    2  A    between atoms: N1_3  and  C2_4 
REMARK    3  A    between atoms: C7_9  and  C8_10 
REMARK    4  A    between atoms: C8_10  and  C9_11 
REMARK    5  A    between atoms: C9_11  and  C10_12 
REMARK    6  A    between atoms: C14_16  and  C15_17 
REMARK    7  A    between atoms: C15_17  and  C16_18 
REMARK    8  A    between atoms: C16_18  and  C17_19 
REMARK    9  A    between atoms: C17_19  and  O3_21 
ROOT
HETATM    1  C9  UNL     1      24.705   1.790  52.590  1.00  0.00     0.044 C 
ENDROOT
BRANCH   1   2
HETATM    2  C8  UNL     1      25.806   0.931  52.049  1.00  0.00     0.045 C 
BRANCH   2   3
HETATM    3  C7  UNL     1      27.052   0.976  52.877  1.00  0.00    -0.031 A 
HETATM    4  C2  UNL     1      27.611  -0.073  53.549  1.00  0.00     0.040 A 
HETATM    5  C3  UNL     1      28.746   0.196  54.273  1.00  0.00     0.030 A 
HETATM    6  C4  UNL     1      29.352   1.415  54.372  1.00  0.00     0.002 A 
HETATM    7  C5  UNL     1      28.790   2.496  53.689  1.00  0.00     0.001 A 
HETATM    8  C6  UNL     1      27.651   2.238  52.959  1.00  0.00     0.009 A 
BRANCH   4   9
HETATM    9  N1  UNL     1      26.986  -1.336  53.435  1.00  0.00    -0.334 N 
HETATM   10  H2  UNL     1      26.169  -1.596  54.013  1.00  0.00     0.168 HD
BRANCH   9  11
HETATM   11  C1  UNL     1      27.300  -2.415  52.579  1.00  0.00     0.353 C 
HETATM   12  O1  UNL     1      28.282  -3.156  52.820  1.00  0.00    -0.283 OA
ENDBRANCH   9  11
ENDBRANCH   4   9
ENDBRANCH   2   3
ENDBRANCH   1   2
BRANCH   1  13
HETATM   13  C10 UNL     1      23.371   1.501  51.993  1.00  0.00    -0.040 C 
HETATM   14  C11 UNL     1      23.017   1.694  50.727  1.00  0.00    -0.018 C 
HETATM   15  C12 UNL     1      21.759   2.099  50.602  1.00  0.00     0.013 C 
HETATM   16  C13 UNL     1      21.177   1.339  51.730  1.00  0.00     0.008 C 
HETATM   17  C14 UNL     1      22.140   0.965  52.586  1.00  0.00    -0.051 C 
BRANCH  17  18
HETATM   18  C15 UNL     1      22.097   0.194  53.831  1.00  0.00     0.049 C 
BRANCH  18  19
HETATM   19  C16 UNL     1      22.995  -1.028  53.740  1.00  0.00     0.114 C 
BRANCH  19  20
HETATM   20  C17 UNL     1      23.705  -1.313  55.017  1.00  0.00     0.139 C 
HETATM   21  O2  UNL     1      24.895  -1.109  55.434  1.00  0.00    -0.650 OA
BRANCH  20  22
HETATM   22  O3  UNL     1      22.929  -1.938  55.983  1.00  0.00    -0.776 OA
HETATM   23  H17 UNL     1      22.346  -2.747  55.764  1.00  0.00     0.167 HD
ENDBRANCH  20  22
ENDBRANCH  19  20
ENDBRANCH  18  19
ENDBRANCH  17  18
ENDBRANCH   1  13
TORSDOF 9
ENDMDL
MODEL 5
REMARK VINA RESULT:      -7.2      2.428      5.905
REMARK  9 active torsions:
REMARK  status: ('A' for Active; 'I' for Inactive)
REMARK    1  A    between atoms: C1_2  and  N1_3 
REMARK    2  A    between atoms: N1_3  and  C2_4 
REMARK    3  A    between atoms: C7_9  and  C8_10 
REMARK    4  A    between atoms: C8_10  and  C9_11 
REMARK    5  A    between atoms: C9_11  and  C10_12 
REMARK    6  A    between atoms: C14_16  and  C15_17 
REMARK    7  A    between atoms: C15_17  and  C16_18 
REMARK    8  A    between atoms: C16_18  and  C17_19 
REMARK    9  A    between atoms: C17_19  and  O3_21 
ROOT
HETATM    1  C9  UNL     1      25.437  -0.221  54.222  1.00  0.00     0.044 C 
ENDROOT
BRANCH   1   2
HETATM    2  C8  UNL     1      24.534   0.515  53.282  1.00  0.00     0.045 C 
BRANCH   2   3
HETATM    3  C7  UNL     1      23.108   0.066  53.359  1.00  0.00    -0.031 A 
HETATM    4  C2  UNL     1      22.087   0.483  52.554  1.00  0.00     0.040 A 
HETATM    5  C3  UNL     1      20.845  -0.040  52.817  1.00  0.00     0.030 A 
HETATM    6  C4  UNL     1      20.555  -0.933  53.808  1.00  0.00     0.002 A 
HETATM    7  C5  UNL     1      21.590  -1.368  54.637  1.00  0.00     0.001 A 
HETATM    8  C6  UNL     1      22.842  -0.850  54.383  1.00  0.00     0.009 A 
BRANCH   4   9
HETATM    9  N1  UNL     1      22.394   1.401  51.523  1.00  0.00    -0.334 N 
HETATM   10  H2  UNL     1      22.914   1.119  50.676  1.00  0.00     0.168 HD
BRANCH   9  11
HETATM   11  C1  UNL     1      22.077   2.774  51.427  1.00  0.00     0.353 C 
HETATM   12  O1  UNL     1      22.476   3.585  52.296  1.00  0.00    -0.283 OA
ENDBRANCH   9  11
ENDBRANCH   4   9
ENDBRANCH   2   3
ENDBRANCH   1   2
BRANCH   1  13
HETATM   13  C10 UNL     1      26.660  -0.770  53.572  1.00  0.00    -0.040 C 
HETATM   14  C11 UNL     1      26.699  -1.523  52.478  1.00  0.00    -0.018 C 
HETATM   15  C12 UNL     1      27.646  -2.452  52.528  1.00  0.00     0.013 C 
HETATM   16  C13 UNL     1      28.659  -1.683  53.285  1.00  0.00     0.008 C 
HETATM   17  C14 UNL     1      28.080  -0.656  53.926  1.00  0.00    -0.051 C 
BRANCH  17  18
HETATM   18  C15 UNL     1      28.630   0.397  54.784  1.00  0.00     0.049 C 
BRANCH  18  19
HETATM   19  C16 UNL     1      29.145   1.557  53.950  1.00  0.00     0.114 C 
BRANCH  19  20
HETATM   20  C17 UNL     1      28.053   2.292  53.255  1.00  0.00     0.139 C 
HETATM   21  O2  UNL     1      27.784   2.527  52.028  1.00  0.00    -0.650 OA
BRANCH  20  22
HETATM   22  O3  UNL     1      27.107   2.855  54.099  1.00  0.00    -0.776 OA
HETATM   23  H17 UNL     1      26.598   3.703  53.848  1.00  0.00     0.167 HD
ENDBRANCH  20  22
ENDBRANCH  19  20
ENDBRANCH  18  19
ENDBRANCH  17  18
ENDBRANCH   1  13
TORSDOF 9
ENDMDL
MODEL 6
REMARK VINA RESULT:      -7.1      2.342      6.206
REMARK  9 active torsions:
REMARK  status: ('A' for Active; 'I' for Inactive)
REMARK    1  A    between atoms: C1_2  and  N1_3 
REMARK    2  A    between atoms: N1_3  and  C2_4 
REMARK    3  A    between atoms: C7_9  and  C8_10 
REMARK    4  A    between atoms: C8_10  and  C9_11 
REMARK    5  A    between atoms: C9_11  and  C10_12 
REMARK    6  A    between atoms: C14_16  and  C15_17 
REMARK    7  A    between atoms: C15_17  and  C16_18 
REMARK    8  A    between atoms: C16_18  and  C17_19 
REMARK    9  A    between atoms: C17_19  and  O3_21 
ROOT
HETATM    1  C9  UNL     1      26.431   2.742  51.274  1.00  0.00     0.044 C 
ENDROOT
BRANCH   1   2
HETATM    2  C8  UNL     1      26.442   2.883  49.784  1.00  0.00     0.045 C 
BRANCH   2   3
HETATM    3  C7  UNL     1      25.910   4.199  49.310  1.00  0.00    -0.031 A 
HETATM    4  C2  UNL     1      26.650   5.305  49.006  1.00  0.00     0.040 A 
HETATM    5  C3  UNL     1      25.953   6.421  48.614  1.00  0.00     0.030 A 
HETATM    6  C4  UNL     1      24.595   6.510  48.505  1.00  0.00     0.002 A 
HETATM    7  C5  UNL     1      23.827   5.386  48.814  1.00  0.00     0.001 A 
HETATM    8  C6  UNL     1      24.515   4.259  49.208  1.00  0.00     0.009 A 
BRANCH   4   9
HETATM    9  N1  UNL     1      28.057   5.206  49.110  1.00  0.00    -0.334 N 
HETATM   10  H2  UNL     1      28.519   4.866  49.969  1.00  0.00     0.168 HD
BRANCH   9  11
HETATM   11  C1  UNL     1      29.047   5.507  48.148  1.00  0.00     0.353 C 
HETATM   12  O1  UNL     1      30.260   5.311  48.399  1.00  0.00    -0.283 OA
ENDBRANCH   9  11
ENDBRANCH   4   9
ENDBRANCH   2   3
ENDBRANCH   1   2
BRANCH   1  13
HETATM   13  C10 UNL     1      25.545   1.650  51.766  1.00  0.00    -0.040 C 
HETATM   14  C11 UNL     1      24.236   1.548  51.567  1.00  0.00    -0.018 C 
HETATM   15  C12 UNL     1      23.595   1.042  52.614  1.00  0.00     0.013 C 
HETATM   16  C13 UNL     1      24.642   0.103  53.071  1.00  0.00     0.008 C 
HETATM   17  C14 UNL     1      25.836   0.454  52.566  1.00  0.00    -0.051 C 
BRANCH  17  18
HETATM   18  C15 UNL     1      27.167  -0.143  52.697  1.00  0.00     0.049 C 
BRANCH  18  19
HETATM   19  C16 UNL     1      27.775   0.187  54.050  1.00  0.00     0.114 C 
BRANCH  19  20
HETATM   20  C17 UNL     1      28.818   1.246  53.966  1.00  0.00     0.139 C 
HETATM   21  O2  UNL     1      28.849   2.486  54.271  1.00  0.00    -0.650 OA
BRANCH  20  22
HETATM   22  O3  UNL     1      30.032   0.820  53.444  1.00  0.00    -0.776 OA
HETATM   23  H17 UNL     1      30.737   0.366  54.025  1.00  0.00     0.167 HD
ENDBRANCH  20  22
ENDBRANCH  19  20
ENDBRANCH  18  19
ENDBRANCH  17  18
ENDBRANCH   1  13
TORSDOF 9
ENDMDL
MODEL 7
REMARK VINA RESULT:      -7.0      3.053      5.651
REMARK  9 active torsions:
REMARK  status: ('A' for Active; 'I' for Inactive)
REMARK    1  A    between atoms: C1_2  and  N1_3 
REMARK    2  A    between atoms: N1_3  and  C2_4 
REMARK    3  A    between atoms: C7_9  and  C8_10 
REMARK    4  A    between atoms: C8_10  and  C9_11 
REMARK    5  A    between atoms: C9_11  and  C10_12 
REMARK    6  A    between atoms: C14_16  and  C15_17 
REMARK    7  A    between atoms: C15_17  and  C16_18 
REMARK    8  A    between atoms: C16_18  and  C17_19 
REMARK    9  A    between atoms: C17_19  and  O3_21 
ROOT
HETATM    1  C9  UNL     1      23.758   2.700  52.276  1.00  0.00     0.044 C 
ENDROOT
BRANCH   1   2
HETATM    2  C8  UNL     1      23.155   1.388  51.882  1.00  0.00     0.045 C 
BRANCH   2   3
HETATM    3  C7  UNL     1      22.894   0.483  53.047  1.00  0.00    -0.031 A 
HETATM    4  C2  UNL     1      21.686   0.268  53.646  1.00  0.00     0.040 A 
HETATM    5  C3  UNL     1      21.678  -0.585  54.721  1.00  0.00     0.030 A 
HETATM    6  C4  UNL     1      22.768  -1.228  55.231  1.00  0.00     0.002 A 
HETATM    7  C5  UNL     1      24.009  -1.017  54.627  1.00  0.00     0.001 A 
HETATM    8  C6  UNL     1      24.031  -0.162  53.547  1.00  0.00     0.009 A 
BRANCH   4   9
HETATM    9  N1  UNL     1      20.557   0.929  53.107  1.00  0.00    -0.334 N 
HETATM   10  H2  UNL     1      20.367   1.927  53.295  1.00  0.00     0.168 HD
BRANCH   9  11
HETATM   11  C1  UNL     1      19.544   0.422  52.263  1.00  0.00     0.353 C 
HETATM   12  O1  UNL     1      19.752   0.273  51.035  1.00  0.00    -0.283 OA
ENDBRANCH   9  11
ENDBRANCH   4   9
ENDBRANCH   2   3
ENDBRANCH   1   2
BRANCH   1  13
HETATM   13  C10 UNL     1      24.868   3.141  51.387  1.00  0.00    -0.040 C 
HETATM   14  C11 UNL     1      24.882   4.229  50.625  1.00  0.00    -0.018 C 
HETATM   15  C12 UNL     1      25.504   4.038  49.468  1.00  0.00     0.013 C 
HETATM   16  C13 UNL     1      26.545   3.097  49.938  1.00  0.00     0.008 C 
HETATM   17  C14 UNL     1      26.178   2.542  51.104  1.00  0.00    -0.051 C 
BRANCH  17  18
HETATM   18  C15 UNL     1      26.846   1.576  51.980  1.00  0.00     0.049 C 
BRANCH  18  19
HETATM   19  C16 UNL     1      27.042   2.156  53.371  1.00  0.00     0.114 C 
BRANCH  19  20
HETATM   20  C17 UNL     1      28.474   2.206  53.774  1.00  0.00     0.139 C 
HETATM   21  O2  UNL     1      29.151   1.660  54.709  1.00  0.00    -0.650 OA
BRANCH  20  22
HETATM   22  O3  UNL     1      29.271   3.015  52.976  1.00  0.00    -0.776 OA
HETATM   23  H17 UNL     1      28.896   3.505  52.163  1.00  0.00     0.167 HD
ENDBRANCH  20  22
ENDBRANCH  19  20
ENDBRANCH  18  19
ENDBRANCH  17  18
ENDBRANCH   1  13
TORSDOF 9
ENDMDL
MODEL 8
REMARK VINA RESULT:      -7.0      2.217      6.034
REMARK  9 active torsions:
REMARK  status: ('A' for Active; 'I' for Inactive)
REMARK    1  A    between atoms: C1_2  and  N1_3 
REMARK    2  A    between atoms: N1_3  and  C2_4 
REMARK    3  A    between atoms: C7_9  and  C8_10 
REMARK    4  A    between atoms: C8_10  and  C9_11 
REMARK    5  A    between atoms: C9_11  and  C10_12 
REMARK    6  A    between atoms: C14_16  and  C15_17 
REMARK    7  A    between atoms: C15_17  and  C16_18 
REMARK    8  A    between atoms: C16_18  and  C17_19 
REMARK    9  A    between atoms: C17_19  and  O3_21 
ROOT
HETATM    1  C9  UNL     1      23.818   1.921  51.633  1.00  0.00     0.044 C 
ENDROOT
BRANCH   1   2
HETATM    2  C8  UNL     1      24.251   3.191  52.297  1.00  0.00     0.045 C 
BRANCH   2   3
HETATM    3  C7  UNL     1      23.759   4.421  51.599  1.00  0.00    -0.031 A 
HETATM    4  C2  UNL     1      24.488   5.221  50.767  1.00  0.00     0.040 A 
HETATM    5  C3  UNL     1      23.845   6.320  50.253  1.00  0.00     0.030 A 
HETATM    6  C4  UNL     1      22.549   6.670  50.505  1.00  0.00     0.002 A 
HETATM    7  C5  UNL     1      21.794   5.860  51.355  1.00  0.00     0.001 A 
HETATM    8  C6  UNL     1      22.428   4.754  51.877  1.00  0.00     0.009 A 
BRANCH   4   9
HETATM    9  N1  UNL     1      25.826   4.849  50.500  1.00  0.00    -0.334 N 
HETATM   10  H2  UNL     1      26.589   5.037  51.170  1.00  0.00     0.168 HD
BRANCH   9  11
HETATM   11  C1  UNL     1      26.361   4.187  49.372  1.00  0.00     0.353 C 
HETATM   12  O1  UNL     1      26.791   3.013  49.466  1.00  0.00    -0.283 OA
ENDBRANCH   9  11
ENDBRANCH   4   9
ENDBRANCH   2   3
ENDBRANCH   1   2
BRANCH   1  13
HETATM   13  C10 UNL     1      24.109   0.698  52.431  1.00  0.00    -0.040 C 
HETATM   14  C11 UNL     1      23.214  -0.098  53.006  1.00  0.00    -0.018 C 
HETATM   15  C12 UNL     1      23.627  -0.575  54.174  1.00  0.00     0.013 C 
HETATM   16  C13 UNL     1      25.066  -0.705  53.855  1.00  0.00     0.008 C 
HETATM   17  C14 UNL     1      25.379   0.060  52.797  1.00  0.00    -0.051 C 
BRANCH  17  18
HETATM   18  C15 UNL     1      26.641   0.274  52.085  1.00  0.00     0.049 C 
BRANCH  18  19
HETATM   19  C16 UNL     1      27.774   0.541  53.062  1.00  0.00     0.114 C 
BRANCH  19  20
HETATM   20  C17 UNL     1      28.046   1.994  53.238  1.00  0.00     0.139 C 
HETATM   21  O2  UNL     1      28.549   2.693  54.181  1.00  0.00    -0.650 OA
BRANCH  20  22
HETATM   22  O3  UNL     1      27.682   2.785  52.158  1.00  0.00    -0.776 OA
HETATM   23  H17 UNL     1      27.969   2.560  51.205  1.00  0.00     0.167 HD
ENDBRANCH  20  22
ENDBRANCH  19  20
ENDBRANCH  18  19
ENDBRANCH  17  18
ENDBRANCH   1  13
TORSDOF 9
ENDMDL
MODEL 9
REMARK VINA RESULT:      -7.0      2.661      5.926
REMARK  9 active torsions:
REMARK  status: ('A' for Active; 'I' for Inactive)
REMARK    1  A    between atoms: C1_2  and  N1_3 
REMARK    2  A    between atoms: N1_3  and  C2_4 
REMARK    3  A    between atoms: C7_9  and  C8_10 
REMARK    4  A    between atoms: C8_10  and  C9_11 
REMARK    5  A    between atoms: C9_11  and  C10_12 
REMARK    6  A    between atoms: C14_16  and  C15_17 
REMARK    7  A    between atoms: C15_17  and  C16_18 
REMARK    8  A    between atoms: C16_18  and  C17_19 
REMARK    9  A    between atoms: C17_19  and  O3_21 
ROOT
HETATM    1  C9  UNL     1      24.472   2.912  52.897  1.00  0.00     0.044 C 
ENDROOT
BRANCH   1   2
HETATM    2  C8  UNL     1      23.819   3.542  51.706  1.00  0.00     0.045 C 
BRANCH   2   3
HETATM    3  C7  UNL     1      24.793   4.190  50.771  1.00  0.00    -0.031 A 
HETATM    4  C2  UNL     1      24.797   5.501  50.392  1.00  0.00     0.040 A 
HETATM    5  C3  UNL     1      25.768   5.879  49.499  1.00  0.00     0.030 A 
HETATM    6  C4  UNL     1      26.721   5.057  48.969  1.00  0.00     0.002 A 
HETATM    7  C5  UNL     1      26.728   3.714  49.349  1.00  0.00     0.001 A 
HETATM    8  C6  UNL     1      25.757   3.322  50.245  1.00  0.00     0.009 A 
BRANCH   4   9
HETATM    9  N1  UNL     1      23.814   6.351  50.951  1.00  0.00    -0.334 N 
HETATM   10  H2  UNL     1      23.899   6.727  51.910  1.00  0.00     0.168 HD
BRANCH   9  11
HETATM   11  C1  UNL     1      22.621   6.838  50.373  1.00  0.00     0.353 C 
HETATM   12  O1  UNL     1      21.611   7.058  51.084  1.00  0.00    -0.283 OA
ENDBRANCH   9  11
ENDBRANCH   4   9
ENDBRANCH   2   3
ENDBRANCH   1   2
BRANCH   1  13
HETATM   13  C10 UNL     1      24.401   1.424  52.902  1.00  0.00    -0.040 C 
HETATM   14  C11 UNL     1      23.298   0.689  52.971  1.00  0.00    -0.018 C 
HETATM   15  C12 UNL     1      23.461  -0.416  53.688  1.00  0.00     0.013 C 
HETATM   16  C13 UNL     1      24.866  -0.701  53.325  1.00  0.00     0.008 C 
HETATM   17  C14 UNL     1      25.456   0.405  52.843  1.00  0.00    -0.051 C 
BRANCH  17  18
HETATM   18  C15 UNL     1      26.809   0.650  52.338  1.00  0.00     0.049 C 
BRANCH  18  19
HETATM   19  C16 UNL     1      27.817   0.653  53.474  1.00  0.00     0.114 C 
BRANCH  19  20
HETATM   20  C17 UNL     1      28.498   1.967  53.633  1.00  0.00     0.139 C 
HETATM   21  O2  UNL     1      29.256   2.470  54.529  1.00  0.00    -0.650 OA
BRANCH  20  22
HETATM   22  O3  UNL     1      28.277   2.860  52.594  1.00  0.00    -0.776 OA
HETATM   23  H17 UNL     1      28.966   3.569  52.338  1.00  0.00     0.167 HD
ENDBRANCH  20  22
ENDBRANCH  19  20
ENDBRANCH  18  19
ENDBRANCH  17  18
ENDBRANCH   1  13
TORSDOF 9
ENDMDL
