MODEL 1
REMARK VINA RESULT:      -6.4      0.000      0.000
REMARK  7 active torsions:
REMARK  status: ('A' for Active; 'I' for Inactive)
REMARK    1  A    between atoms: C2_2  and  N1_3 
REMARK    2  A    between atoms: N1_3  and  C4_5 
REMARK    3  A    between atoms: C4_5  and  C5_6 
REMARK    4  A    between atoms: C5_6  and  C6_7 
REMARK    5  A    between atoms: C6_7  and  N2_8 
REMARK    6  A    between atoms: C8_10  and  C9_11 
REMARK    7  A    between atoms: C12_16  and  C13_17 
ROOT
HETATM    1  N2  UNL     1      24.508   1.740  52.350  1.00  0.00    -0.280 N 
HETATM    2  C7  UNL     1      25.129   0.662  52.889  1.00  0.00     0.125 A 
HETATM    3  C8  UNL     1      26.444   0.579  52.418  1.00  0.00     0.010 A 
HETATM    4  C14 UNL     1      26.554   1.664  51.576  1.00  0.00     0.152 A 
HETATM    5  N5  UNL     1      25.384   2.314  51.573  1.00  0.00    -0.184 NA
ENDROOT
BRANCH   3   6
HETATM    6  C9  UNL     1      27.420  -0.473  52.761  1.00  0.00    -0.003 C 
HETATM    7  C10 UNL     1      27.029  -1.729  52.673  1.00  0.00     0.128 C 
HETATM    8  N3  UNL     1      27.961  -2.756  52.990  1.00  0.00    -0.256 NA
HETATM    9  C11 UNL     1      29.171  -2.526  53.349  1.00  0.00     0.202 C 
HETATM   10  N4  UNL     1      29.590  -1.170  53.425  1.00  0.00    -0.373 N 
HETATM   11  C12 UNL     1      28.735   0.022  53.246  1.00  0.00     0.146 C 
HETATM   12  H18 UNL     1      30.584  -0.927  53.624  1.00  0.00     0.161 HD
BRANCH  11  13
HETATM   13  C13 UNL     1      28.488   0.468  54.687  1.00  0.00     0.252 C 
HETATM   14  F1  UNL     1      27.537  -0.236  55.345  1.00  0.00    -0.253 F 
ENDBRANCH  11  13
ENDBRANCH   3   6
BRANCH   1  15
HETATM   15  C6  UNL     1      23.142   2.156  52.601  1.00  0.00     0.152 C 
BRANCH  15  16
HETATM   16  C5  UNL     1      22.431   0.937  53.160  1.00  0.00     0.052 C 
BRANCH  16  17
HETATM   17  C4  UNL     1      20.935   1.095  53.106  1.00  0.00     0.273 C 
BRANCH  17  18
HETATM   18  N1  UNL     1      20.329   0.122  53.965  1.00  0.00     0.083 N 
HETATM   19  C3  UNL     1      21.350  -0.735  54.512  1.00  0.00     0.309 C 
BRANCH  18  20
HETATM   20  C2  UNL     1      19.281  -0.574  53.269  1.00  0.00     0.267 C 
HETATM   21  C1  UNL     1      19.118   0.013  51.865  1.00  0.00     0.037 C 
ENDBRANCH  18  20
ENDBRANCH  17  18
ENDBRANCH  16  17
ENDBRANCH  15  16
ENDBRANCH   1  15
TORSDOF 7
ENDMDL
MODEL 2
REMARK VINA RESULT:      -6.3      3.348      6.067
REMARK  7 active torsions:
REMARK  status: ('A' for Active; 'I' for Inactive)
REMARK    1  A    between atoms: C2_2  and  N1_3 
REMARK    2  A    between atoms: N1_3  and  C4_5 
REMARK    3  A    between atoms: C4_5  and  C5_6 
REMARK    4  A    between atoms: C5_6  and  C6_7 
REMARK    5  A    between atoms: C6_7  and  N2_8 
REMARK    6  A    between atoms: C8_10  and  C9_11 
REMARK    7  A    between atoms: C12_16  and  C13_17 
ROOT
HETATM    1  N2  UNL     1      24.487   3.234  51.047  1.00  0.00    -0.280 N 
HETATM    2  C7  UNL     1      25.639   2.631  51.432  1.00  0.00     0.125 A 
HETATM    3  C8  UNL     1      25.529   2.182  52.753  1.00  0.00     0.010 A 
HETATM    4  C14 UNL     1      24.254   2.555  53.115  1.00  0.00     0.152 A 
HETATM    5  N5  UNL     1      23.684   3.172  52.073  1.00  0.00    -0.184 NA
ENDROOT
BRANCH   3   6
HETATM    6  C9  UNL     1      26.587   1.503  53.524  1.00  0.00    -0.003 C 
HETATM    7  C10 UNL     1      27.772   2.077  53.584  1.00  0.00     0.128 C 
HETATM    8  N3  UNL     1      28.801   1.440  54.334  1.00  0.00    -0.256 NA
HETATM    9  C11 UNL     1      28.634   0.336  54.966  1.00  0.00     0.202 C 
HETATM   10  N4  UNL     1      27.349  -0.269  54.910  1.00  0.00    -0.373 N 
HETATM   11  C12 UNL     1      26.202   0.185  54.094  1.00  0.00     0.146 C 
HETATM   12  H18 UNL     1      27.131  -1.116  55.476  1.00  0.00     0.161 HD
BRANCH  11  13
HETATM   13  C13 UNL     1      26.235  -0.787  52.915  1.00  0.00     0.252 C 
HETATM   14  F1  UNL     1      27.172  -0.511  51.977  1.00  0.00    -0.253 F 
ENDBRANCH  11  13
ENDBRANCH   3   6
BRANCH   1  15
HETATM   15  C6  UNL     1      24.219   3.822  49.750  1.00  0.00     0.152 C 
BRANCH  15  16
HETATM   16  C5  UNL     1      25.550   4.353  49.251  1.00  0.00     0.052 C 
BRANCH  16  17
HETATM   17  C4  UNL     1      25.696   5.826  49.525  1.00  0.00     0.273 C 
BRANCH  17  18
HETATM   18  N1  UNL     1      26.924   6.291  48.951  1.00  0.00     0.083 N 
HETATM   19  C3  UNL     1      26.635   7.238  47.906  1.00  0.00     0.309 C 
BRANCH  18  20
HETATM   20  C2  UNL     1      27.733   5.177  48.535  1.00  0.00     0.267 C 
HETATM   21  C1  UNL     1      29.143   5.665  48.194  1.00  0.00     0.037 C 
ENDBRANCH  18  20
ENDBRANCH  17  18
ENDBRANCH  16  17
ENDBRANCH  15  16
ENDBRANCH   1  15
TORSDOF 7
ENDMDL
MODEL 3
REMARK VINA RESULT:      -6.3      1.841      2.668
REMARK  7 active torsions:
REMARK  status: ('A' for Active; 'I' for Inactive)
REMARK    1  A    between atoms: C2_2  and  N1_3 
REMARK    2  A    between atoms: N1_3  and  C4_5 
REMARK    3  A    between atoms: C4_5  and  C5_6 
REMARK    4  A    between atoms: C5_6  and  C6_7 
REMARK    5  A    between atoms: C6_7  and  N2_8 
REMARK    6  A    between atoms: C8_10  and  C9_11 
REMARK    7  A    between atoms: C12_16  and  C13_17 
ROOT
HETATM    1  N2  UNL     1      23.389   2.860  51.993  1.00  0.00    -0.280 N 
HETATM    2  C7  UNL     1      24.081   2.238  52.979  1.00  0.00     0.125 A 
HETATM    3  C8  UNL     1      25.429   2.125  52.622  1.00  0.00     0.010 A 
HETATM    4  C14 UNL     1      25.484   2.712  51.378  1.00  0.00     0.152 A 
HETATM    5  N5  UNL     1      24.254   3.128  51.054  1.00  0.00    -0.184 NA
ENDROOT
BRANCH   3   6
HETATM    6  C9  UNL     1      26.485   1.483  53.429  1.00  0.00    -0.003 C 
HETATM    7  C10 UNL     1      27.652   2.090  53.511  1.00  0.00     0.128 C 
HETATM    8  N3  UNL     1      28.678   1.490  54.295  1.00  0.00    -0.256 NA
HETATM    9  C11 UNL     1      28.525   0.388  54.935  1.00  0.00     0.202 C 
HETATM   10  N4  UNL     1      27.258  -0.251  54.854  1.00  0.00    -0.373 N 
HETATM   11  C12 UNL     1      26.121   0.162  54.004  1.00  0.00     0.146 C 
HETATM   12  H18 UNL     1      27.049  -1.098  55.424  1.00  0.00     0.161 HD
BRANCH  11  13
HETATM   13  C13 UNL     1      26.211  -0.822  52.837  1.00  0.00     0.252 C 
HETATM   14  F1  UNL     1      27.191  -0.555  51.943  1.00  0.00    -0.253 F 
ENDBRANCH  11  13
ENDBRANCH   3   6
BRANCH   1  15
HETATM   15  C6  UNL     1      21.971   3.160  51.999  1.00  0.00     0.152 C 
BRANCH  15  16
HETATM   16  C5  UNL     1      21.263   1.829  51.831  1.00  0.00     0.052 C 
BRANCH  16  17
HETATM   17  C4  UNL     1      20.420   1.494  53.033  1.00  0.00     0.273 C 
BRANCH  17  18
HETATM   18  N1  UNL     1      20.560   0.099  53.329  1.00  0.00     0.083 N 
HETATM   19  C3  UNL     1      19.273  -0.540  53.240  1.00  0.00     0.309 C 
BRANCH  18  20
HETATM   20  C2  UNL     1      21.225  -0.078  54.592  1.00  0.00     0.267 C 
HETATM   21  C1  UNL     1      22.487  -0.921  54.395  1.00  0.00     0.037 C 
ENDBRANCH  18  20
ENDBRANCH  17  18
ENDBRANCH  16  17
ENDBRANCH  15  16
ENDBRANCH   1  15
TORSDOF 7
ENDMDL
MODEL 4
REMARK VINA RESULT:      -6.1      2.547      4.296
REMARK  7 active torsions:
REMARK  status: ('A' for Active; 'I' for Inactive)
REMARK    1  A    between atoms: C2_2  and  N1_3 
REMARK    2  A    between atoms: N1_3  and  C4_5 
REMARK    3  A    between atoms: C4_5  and  C5_6 
REMARK    4  A    between atoms: C5_6  and  C6_7 
REMARK    5  A    between atoms: C6_7  and  N2_8 
REMARK    6  A    between atoms: C8_10  and  C9_11 
REMARK    7  A    between atoms: C12_16  and  C13_17 
ROOT
HETATM    1  N2  UNL     1      23.046   1.416  51.272  1.00  0.00    -0.280 N 
HETATM    2  C7  UNL     1      24.370   1.469  51.555  1.00  0.00     0.125 A 
HETATM    3  C8  UNL     1      24.623   0.853  52.786  1.00  0.00     0.010 A 
HETATM    4  C14 UNL     1      23.377   0.441  53.203  1.00  0.00     0.152 A 
HETATM    5  N5  UNL     1      22.483   0.799  52.273  1.00  0.00    -0.184 NA
ENDROOT
BRANCH   3   6
HETATM    6  C9  UNL     1      25.941   0.737  53.440  1.00  0.00    -0.003 C 
HETATM    7  C10 UNL     1      26.626   1.844  53.645  1.00  0.00     0.128 C 
HETATM    8  N3  UNL     1      27.895   1.751  54.285  1.00  0.00    -0.256 NA
HETATM    9  C11 UNL     1      28.406   0.644  54.683  1.00  0.00     0.202 C 
HETATM   10  N4  UNL     1      27.653  -0.543  54.473  1.00  0.00    -0.373 N 
HETATM   11  C12 UNL     1      26.380  -0.653  53.729  1.00  0.00     0.146 C 
HETATM   12  H18 UNL     1      27.977  -1.457  54.854  1.00  0.00     0.161 HD
BRANCH  11  13
HETATM   13  C13 UNL     1      26.835  -1.218  52.383  1.00  0.00     0.252 C 
HETATM   14  F1  UNL     1      26.891  -2.569  52.323  1.00  0.00    -0.253 F 
ENDBRANCH  11  13
ENDBRANCH   3   6
BRANCH   1  15
HETATM   15  C6  UNL     1      22.402   1.946  50.086  1.00  0.00     0.152 C 
BRANCH  15  16
HETATM   16  C5  UNL     1      23.291   3.075  49.598  1.00  0.00     0.052 C 
BRANCH  16  17
HETATM   17  C4  UNL     1      22.551   4.385  49.559  1.00  0.00     0.273 C 
BRANCH  17  18
HETATM   18  N1  UNL     1      23.131   5.280  50.515  1.00  0.00     0.083 N 
HETATM   19  C3  UNL     1      24.553   5.060  50.576  1.00  0.00     0.309 C 
BRANCH  18  20
HETATM   20  C2  UNL     1      22.458   5.164  51.780  1.00  0.00     0.267 C 
HETATM   21  C1  UNL     1      23.458   4.742  52.858  1.00  0.00     0.037 C 
ENDBRANCH  18  20
ENDBRANCH  17  18
ENDBRANCH  16  17
ENDBRANCH  15  16
ENDBRANCH   1  15
TORSDOF 7
ENDMDL
MODEL 5
REMARK VINA RESULT:      -6.1      2.408      6.662
REMARK  7 active torsions:
REMARK  status: ('A' for Active; 'I' for Inactive)
REMARK    1  A    between atoms: C2_2  and  N1_3 
REMARK    2  A    between atoms: N1_3  and  C4_5 
REMARK    3  A    between atoms: C4_5  and  C5_6 
REMARK    4  A    between atoms: C5_6  and  C6_7 
REMARK    5  A    between atoms: C6_7  and  N2_8 
REMARK    6  A    between atoms: C8_10  and  C9_11 
REMARK    7  A    between atoms: C12_16  and  C13_17 
ROOT
HETATM    1  N2  UNL     1      24.989   2.339  51.898  1.00  0.00    -0.280 N 
HETATM    2  C7  UNL     1      24.379   1.177  52.239  1.00  0.00     0.125 A 
HETATM    3  C8  UNL     1      23.105   1.437  52.756  1.00  0.00     0.010 A 
HETATM    4  C14 UNL     1      23.007   2.809  52.700  1.00  0.00     0.152 A 
HETATM    5  N5  UNL     1      24.145   3.291  52.186  1.00  0.00    -0.184 NA
ENDROOT
BRANCH   3   6
HETATM    6  C9  UNL     1      22.154   0.426  53.258  1.00  0.00    -0.003 C 
HETATM    7  C10 UNL     1      22.595  -0.805  53.427  1.00  0.00     0.128 C 
HETATM    8  N3  UNL     1      21.694  -1.790  53.921  1.00  0.00    -0.256 NA
HETATM    9  C11 UNL     1      20.471  -1.542  54.220  1.00  0.00     0.202 C 
HETATM   10  N4  UNL     1      20.008  -0.209  54.051  1.00  0.00    -0.373 N 
HETATM   11  C12 UNL     1      20.762   0.910  53.447  1.00  0.00     0.146 C 
HETATM   12  H18 UNL     1      19.053   0.069  54.361  1.00  0.00     0.161 HD
BRANCH  11  13
HETATM   13  C13 UNL     1      20.169   0.983  52.040  1.00  0.00     0.252 C 
HETATM   14  F1  UNL     1      20.174  -0.187  51.360  1.00  0.00    -0.253 F 
ENDBRANCH  11  13
ENDBRANCH   3   6
BRANCH   1  15
HETATM   15  C6  UNL     1      26.314   2.476  51.328  1.00  0.00     0.152 C 
BRANCH  15  16
HETATM   16  C5  UNL     1      27.095   1.261  51.792  1.00  0.00     0.052 C 
BRANCH  16  17
HETATM   17  C4  UNL     1      27.762   1.505  53.119  1.00  0.00     0.273 C 
BRANCH  17  18
HETATM   18  N1  UNL     1      27.765   0.288  53.874  1.00  0.00     0.083 N 
HETATM   19  C3  UNL     1      26.707   0.328  54.850  1.00  0.00     0.309 C 
BRANCH  18  20
HETATM   20  C2  UNL     1      29.071   0.045  54.425  1.00  0.00     0.267 C 
HETATM   21  C1  UNL     1      29.804  -0.992  53.571  1.00  0.00     0.037 C 
ENDBRANCH  18  20
ENDBRANCH  17  18
ENDBRANCH  16  17
ENDBRANCH  15  16
ENDBRANCH   1  15
TORSDOF 7
ENDMDL
MODEL 6
REMARK VINA RESULT:      -5.8      2.627      3.625
REMARK  7 active torsions:
REMARK  status: ('A' for Active; 'I' for Inactive)
REMARK    1  A    between atoms: C2_2  and  N1_3 
REMARK    2  A    between atoms: N1_3  and  C4_5 
REMARK    3  A    between atoms: C4_5  and  C5_6 
REMARK    4  A    between atoms: C5_6  and  C6_7 
REMARK    5  A    between atoms: C6_7  and  N2_8 
REMARK    6  A    between atoms: C8_10  and  C9_11 
REMARK    7  A    between atoms: C12_16  and  C13_17 
ROOT
HETATM    1  N2  UNL     1      24.533   3.371  51.042  1.00  0.00    -0.280 N 
HETATM    2  C7  UNL     1      25.644   2.671  51.379  1.00  0.00     0.125 A 
HETATM    3  C8  UNL     1      25.596   2.315  52.732  1.00  0.00     0.010 A 
HETATM    4  C14 UNL     1      24.401   2.845  53.163  1.00  0.00     0.152 A 
HETATM    5  N5  UNL     1      23.814   3.457  52.127  1.00  0.00    -0.184 NA
ENDROOT
BRANCH   3   6
HETATM    6  C9  UNL     1      26.637   1.571  53.467  1.00  0.00    -0.003 C 
HETATM    7  C10 UNL     1      27.885   1.981  53.352  1.00  0.00     0.128 C 
HETATM    8  N3  UNL     1      28.900   1.282  54.063  1.00  0.00    -0.256 NA
HETATM    9  C11 UNL     1      28.664   0.273  54.821  1.00  0.00     0.202 C 
HETATM   10  N4  UNL     1      27.315  -0.153  54.952  1.00  0.00    -0.373 N 
HETATM   11  C12 UNL     1      26.153   0.376  54.206  1.00  0.00     0.146 C 
HETATM   12  H18 UNL     1      27.055  -0.908  55.621  1.00  0.00     0.161 HD
BRANCH  11  13
HETATM   13  C13 UNL     1      25.936  -0.695  53.137  1.00  0.00     0.252 C 
HETATM   14  F1  UNL     1      26.881  -0.733  52.169  1.00  0.00    -0.253 F 
ENDBRANCH  11  13
ENDBRANCH   3   6
BRANCH   1  15
HETATM   15  C6  UNL     1      24.223   3.907  49.732  1.00  0.00     0.152 C 
BRANCH  15  16
HETATM   16  C5  UNL     1      22.771   3.554  49.469  1.00  0.00     0.052 C 
BRANCH  16  17
HETATM   17  C4  UNL     1      22.624   2.132  48.995  1.00  0.00     0.273 C 
BRANCH  17  18
HETATM   18  N1  UNL     1      21.283   1.692  49.242  1.00  0.00     0.083 N 
HETATM   19  C3  UNL     1      20.372   2.449  48.423  1.00  0.00     0.309 C 
BRANCH  18  20
HETATM   20  C2  UNL     1      20.994   1.739  50.650  1.00  0.00     0.267 C 
HETATM   21  C1  UNL     1      21.548   0.485  51.331  1.00  0.00     0.037 C 
ENDBRANCH  18  20
ENDBRANCH  17  18
ENDBRANCH  16  17
ENDBRANCH  15  16
ENDBRANCH   1  15
TORSDOF 7
ENDMDL
MODEL 7
REMARK VINA RESULT:      -5.7      2.269      3.653
REMARK  7 active torsions:
REMARK  status: ('A' for Active; 'I' for Inactive)
REMARK    1  A    between atoms: C2_2  and  N1_3 
REMARK    2  A    between atoms: N1_3  and  C4_5 
REMARK    3  A    between atoms: C4_5  and  C5_6 
REMARK    4  A    between atoms: C5_6  and  C6_7 
REMARK    5  A    between atoms: C6_7  and  N2_8 
REMARK    6  A    between atoms: C8_10  and  C9_11 
REMARK    7  A    between atoms: C12_16  and  C13_17 
ROOT
HETATM    1  N2  UNL     1      24.604   1.839  51.955  1.00  0.00    -0.280 N 
HETATM    2  C7  UNL     1      25.124   0.675  52.415  1.00  0.00     0.125 A 
HETATM    3  C8  UNL     1      26.520   0.703  52.320  1.00  0.00     0.010 A 
HETATM    4  C14 UNL     1      26.783   1.942  51.781  1.00  0.00     0.152 A 
HETATM    5  N5  UNL     1      25.618   2.571  51.585  1.00  0.00    -0.184 NA
ENDROOT
BRANCH   3   6
HETATM    6  C9  UNL     1      27.433  -0.393  52.699  1.00  0.00    -0.003 C 
HETATM    7  C10 UNL     1      26.985  -1.629  52.605  1.00  0.00     0.128 C 
HETATM    8  N3  UNL     1      27.857  -2.698  52.955  1.00  0.00    -0.256 NA
HETATM    9  C11 UNL     1      29.065  -2.524  53.352  1.00  0.00     0.202 C 
HETATM   10  N4  UNL     1      29.546  -1.189  53.435  1.00  0.00    -0.373 N 
HETATM   11  C12 UNL     1      28.754   0.042  53.223  1.00  0.00     0.146 C 
HETATM   12  H18 UNL     1      30.543  -0.993  53.665  1.00  0.00     0.161 HD
BRANCH  11  13
HETATM   13  C13 UNL     1      28.484   0.507  54.654  1.00  0.00     0.252 C 
HETATM   14  F1  UNL     1      27.513  -0.179  55.301  1.00  0.00    -0.253 F 
ENDBRANCH  11  13
ENDBRANCH   3   6
BRANCH   1  15
HETATM   15  C6  UNL     1      23.197   2.184  51.896  1.00  0.00     0.152 C 
BRANCH  15  16
HETATM   16  C5  UNL     1      22.987   2.849  50.549  1.00  0.00     0.052 C 
BRANCH  16  17
HETATM   17  C4  UNL     1      22.202   4.127  50.678  1.00  0.00     0.273 C 
BRANCH  17  18
HETATM   18  N1  UNL     1      22.722   5.093  49.757  1.00  0.00     0.083 N 
HETATM   19  C3  UNL     1      23.850   4.530  49.061  1.00  0.00     0.309 C 
BRANCH  18  20
HETATM   20  C2  UNL     1      23.001   6.330  50.435  1.00  0.00     0.267 C 
HETATM   21  C1  UNL     1      21.686   7.017  50.811  1.00  0.00     0.037 C 
ENDBRANCH  18  20
ENDBRANCH  17  18
ENDBRANCH  16  17
ENDBRANCH  15  16
ENDBRANCH   1  15
TORSDOF 7
ENDMDL
MODEL 8
REMARK VINA RESULT:      -5.5      3.693      4.971
REMARK  7 active torsions:
REMARK  status: ('A' for Active; 'I' for Inactive)
REMARK    1  A    between atoms: C2_2  and  N1_3 
REMARK    2  A    between atoms: N1_3  and  C4_5 
REMARK    3  A    between atoms: C4_5  and  C5_6 
REMARK    4  A    between atoms: C5_6  and  C6_7 
REMARK    5  A    between atoms: C6_7  and  N2_8 
REMARK    6  A    between atoms: C8_10  and  C9_11 
REMARK    7  A    between atoms: C12_16  and  C13_17 
ROOT
HETATM    1  N2  UNL     1      24.662   3.243  50.782  1.00  0.00    -0.280 N 
HETATM    2  C7  UNL     1      25.727   2.531  51.225  1.00  0.00     0.125 A 
HETATM    3  C8  UNL     1      25.586   2.253  52.589  1.00  0.00     0.010 A 
HETATM    4  C14 UNL     1      24.385   2.841  52.915  1.00  0.00     0.152 A 
HETATM    5  N5  UNL     1      23.882   3.411  51.813  1.00  0.00    -0.184 NA
ENDROOT
BRANCH   3   6
HETATM    6  C9  UNL     1      26.556   1.521  53.426  1.00  0.00    -0.003 C 
HETATM    7  C10 UNL     1      27.774   2.013  53.531  1.00  0.00     0.128 C 
HETATM    8  N3  UNL     1      28.719   1.326  54.344  1.00  0.00    -0.256 NA
HETATM    9  C11 UNL     1      28.445   0.252  54.991  1.00  0.00     0.202 C 
HETATM   10  N4  UNL     1      27.125  -0.263  54.886  1.00  0.00    -0.373 N 
HETATM   11  C12 UNL     1      26.053   0.248  54.006  1.00  0.00     0.146 C 
HETATM   12  H18 UNL     1      26.822  -1.079  55.459  1.00  0.00     0.161 HD
BRANCH  11  13
HETATM   13  C13 UNL     1      26.073  -0.753  52.851  1.00  0.00     0.252 C 
HETATM   14  F1  UNL     1      27.126  -0.629  52.009  1.00  0.00    -0.253 F 
ENDBRANCH  11  13
ENDBRANCH   3   6
BRANCH   1  15
HETATM   15  C6  UNL     1      24.450   3.714  49.427  1.00  0.00     0.152 C 
BRANCH  15  16
HETATM   16  C5  UNL     1      23.073   3.221  49.026  1.00  0.00     0.052 C 
BRANCH  16  17
HETATM   17  C4  UNL     1      22.141   4.365  48.726  1.00  0.00     0.273 C 
BRANCH  17  18
HETATM   18  N1  UNL     1      22.526   4.971  47.486  1.00  0.00     0.083 N 
HETATM   19  C3  UNL     1      22.906   6.341  47.721  1.00  0.00     0.309 C 
BRANCH  18  20
HETATM   20  C2  UNL     1      21.488   4.803  46.505  1.00  0.00     0.267 C 
HETATM   21  C1  UNL     1      21.887   3.705  45.517  1.00  0.00     0.037 C 
ENDBRANCH  18  20
ENDBRANCH  17  18
ENDBRANCH  16  17
ENDBRANCH  15  16
ENDBRANCH   1  15
TORSDOF 7
ENDMDL
MODEL 9
REMARK VINA RESULT:      -5.3      4.482      6.382
REMARK  7 active torsions:
REMARK  status: ('A' for Active; 'I' for Inactive)
REMARK    1  A    between atoms: C2_2  and  N1_3 
REMARK    2  A    between atoms: N1_3  and  C4_5 
REMARK    3  A    between atoms: C4_5  and  C5_6 
REMARK    4  A    between atoms: C5_6  and  C6_7 
REMARK    5  A    between atoms: C6_7  and  N2_8 
REMARK    6  A    between atoms: C8_10  and  C9_11 
REMARK    7  A    between atoms: C12_16  and  C13_17 
ROOT
HETATM    1  N2  UNL     1      24.697   2.783  50.721  1.00  0.00    -0.280 N 
HETATM    2  C7  UNL     1      25.823   3.483  50.438  1.00  0.00     0.125 A 
HETATM    3  C8  UNL     1      25.562   4.433  49.445  1.00  0.00     0.010 A 
HETATM    4  C14 UNL     1      24.227   4.249  49.165  1.00  0.00     0.152 A 
HETATM    5  N5  UNL     1      23.766   3.263  49.945  1.00  0.00    -0.184 NA
ENDROOT
BRANCH   3   6
HETATM    6  C9  UNL     1      26.547   5.362  48.859  1.00  0.00    -0.003 C 
HETATM    7  C10 UNL     1      27.773   4.920  48.666  1.00  0.00     0.128 C 
HETATM    8  N3  UNL     1      28.733   5.800  48.091  1.00  0.00    -0.256 NA
HETATM    9  C11 UNL     1      28.465   7.005  47.740  1.00  0.00     0.202 C 
HETATM   10  N4  UNL     1      27.136   7.470  47.936  1.00  0.00    -0.373 N 
HETATM   11  C12 UNL     1      26.045   6.741  48.619  1.00  0.00     0.146 C 
HETATM   12  H18 UNL     1      26.840   8.406  47.589  1.00  0.00     0.161 HD
BRANCH  11  13
HETATM   13  C13 UNL     1      26.021   7.404  49.996  1.00  0.00     0.252 C 
HETATM   14  F1  UNL     1      25.750   8.730  49.984  1.00  0.00    -0.253 F 
ENDBRANCH  11  13
ENDBRANCH   3   6
BRANCH   1  15
HETATM   15  C6  UNL     1      24.573   1.717  51.696  1.00  0.00     0.152 C 
BRANCH  15  16
HETATM   16  C5  UNL     1      23.104   1.339  51.715  1.00  0.00     0.052 C 
BRANCH  16  17
HETATM   17  C4  UNL     1      22.700   0.751  53.041  1.00  0.00     0.273 C 
BRANCH  17  18
HETATM   18  N1  UNL     1      21.272   0.649  53.094  1.00  0.00     0.083 N 
HETATM   19  C3  UNL     1      20.689   1.915  52.731  1.00  0.00     0.309 C 
BRANCH  18  20
HETATM   20  C2  UNL     1      20.855   0.149  54.376  1.00  0.00     0.267 C 
HETATM   21  C1  UNL     1      21.873  -0.873  54.885  1.00  0.00     0.037 C 
ENDBRANCH  18  20
ENDBRANCH  17  18
ENDBRANCH  16  17
ENDBRANCH  15  16
ENDBRANCH   1  15
TORSDOF 7
ENDMDL
