MODEL 1
REMARK VINA RESULT:      -7.7      0.000      0.000
REMARK  9 active torsions:
REMARK  status: ('A' for Active; 'I' for Inactive)
REMARK    1  A    between atoms: O1_2  and  C2_3 
REMARK    2  A    between atoms: C6_9  and  N3_10 
REMARK    3  A    between atoms: N3_10  and  C7_11 
REMARK    4  A    between atoms: C7_11  and  C8_12 
REMARK    5  A    between atoms: C12_18  and  O2_19 
REMARK    6  A    between atoms: O2_19  and  C13_20 
REMARK    7  A    between atoms: C13_20  and  C14_21 
REMARK    8  A    between atoms: C14_21  and  C15_22 
REMARK    9  A    between atoms: C15_22  and  N4_23 
ROOT
HETATM    1  C2  UNL     1      21.579   0.560  52.285  1.00  0.00     0.103 A 
HETATM    2  C3  UNL     1      21.480  -0.168  53.465  1.00  0.00     0.072 A 
HETATM    3  C4  UNL     1      22.655  -0.507  54.100  1.00  0.00     0.075 A 
HETATM    4  N1  UNL     1      22.557  -1.210  55.243  1.00  0.00    -0.241 NA
HETATM    5  C5  UNL     1      23.711  -1.528  55.842  1.00  0.00     0.235 A 
HETATM    6  N2  UNL     1      24.895  -1.172  55.346  1.00  0.00    -0.224 NA
HETATM    7  C6  UNL     1      25.054  -0.472  54.215  1.00  0.00     0.137 A 
HETATM    8  C10 UNL     1      23.878  -0.138  53.586  1.00  0.00     0.041 A 
HETATM    9  C11 UNL     1      23.935   0.583  52.413  1.00  0.00     0.057 A 
HETATM   10  C12 UNL     1      22.785   0.946  51.740  1.00  0.00     0.103 A 
ENDROOT
BRANCH  10  11
HETATM   11  O2  UNL     1      22.682   1.656  50.575  1.00  0.00    -0.348 OA
BRANCH  11  12
HETATM   12  C13 UNL     1      22.954   3.040  50.432  1.00  0.00     0.177 C 
BRANCH  12  13
HETATM   13  C14 UNL     1      23.626   3.342  49.116  1.00  0.00     0.057 C 
BRANCH  13  14
HETATM   14  C15 UNL     1      24.276   4.684  49.044  1.00  0.00     0.274 C 
BRANCH  14  15
HETATM   15  N4  UNL     1      25.295   4.948  50.002  1.00  0.00     0.092 N 
HETATM   16  C16 UNL     1      26.532   4.251  49.758  1.00  0.00     0.298 C 
HETATM   17  C17 UNL     1      27.346   4.828  48.641  1.00  0.00     0.198 C 
HETATM   18  O3  UNL     1      27.568   6.191  48.845  1.00  0.00    -0.388 OA
HETATM   19  C18 UNL     1      26.304   6.806  48.759  1.00  0.00     0.198 C 
HETATM   20  C19 UNL     1      25.554   6.374  49.987  1.00  0.00     0.298 C 
ENDBRANCH  14  15
ENDBRANCH  13  14
ENDBRANCH  12  13
ENDBRANCH  11  12
ENDBRANCH  10  11
BRANCH   1  21
HETATM   21  O1  UNL     1      20.349   0.873  51.685  1.00  0.00    -0.353 OA
HETATM   22  C1  UNL     1      19.204   0.089  51.886  1.00  0.00     0.210 C 
ENDBRANCH   1  21
BRANCH   7  23
HETATM   23  N3  UNL     1      26.368  -0.125  53.733  1.00  0.00    -0.369 N 
HETATM   24  H6  UNL     1      26.632  -0.088  52.746  1.00  0.00     0.161 HD
BRANCH  23  25
HETATM   25  C7  UNL     1      27.372   0.190  54.732  1.00  0.00     0.174 C 
BRANCH  25  26
HETATM   26  C8  UNL     1      28.687   0.470  54.130  1.00  0.00     0.056 C 
HETATM   27 CL1  UNL     1      29.820  -0.829  53.833  1.00  0.00    -0.085 Cl
HETATM   28  C9  UNL     1      29.040   1.703  53.800  1.00  0.00     0.209 C 
HETATM   29  F1  UNL     1      28.353   2.853  53.927  1.00  0.00    -0.218 F 
ENDBRANCH  25  26
ENDBRANCH  23  25
ENDBRANCH   7  23
TORSDOF 9
ENDMDL
MODEL 2
REMARK VINA RESULT:      -7.5      1.945      2.524
REMARK  9 active torsions:
REMARK  status: ('A' for Active; 'I' for Inactive)
REMARK    1  A    between atoms: O1_2  and  C2_3 
REMARK    2  A    between atoms: C6_9  and  N3_10 
REMARK    3  A    between atoms: N3_10  and  C7_11 
REMARK    4  A    between atoms: C7_11  and  C8_12 
REMARK    5  A    between atoms: C12_18  and  O2_19 
REMARK    6  A    between atoms: O2_19  and  C13_20 
REMARK    7  A    between atoms: C13_20  and  C14_21 
REMARK    8  A    between atoms: C14_21  and  C15_22 
REMARK    9  A    between atoms: C15_22  and  N4_23 
ROOT
HETATM    1  C2  UNL     1      23.198   1.683  51.761  1.00  0.00     0.103 A 
HETATM    2  C3  UNL     1      22.555   0.940  52.744  1.00  0.00     0.072 A 
HETATM    3  C4  UNL     1      23.340   0.159  53.563  1.00  0.00     0.075 A 
HETATM    4  N1  UNL     1      22.716  -0.559  54.514  1.00  0.00    -0.241 NA
HETATM    5  C5  UNL     1      23.499  -1.310  55.298  1.00  0.00     0.235 A 
HETATM    6  N2  UNL     1      24.824  -1.351  55.155  1.00  0.00    -0.224 NA
HETATM    7  C6  UNL     1      25.499  -0.659  54.228  1.00  0.00     0.137 A 
HETATM    8  C10 UNL     1      24.709   0.118  53.414  1.00  0.00     0.041 A 
HETATM    9  C11 UNL     1      25.311   0.869  52.427  1.00  0.00     0.057 A 
HETATM   10  C12 UNL     1      24.565   1.667  51.582  1.00  0.00     0.103 A 
ENDROOT
BRANCH  10  11
HETATM   11  O2  UNL     1      25.015   2.464  50.565  1.00  0.00    -0.348 OA
BRANCH  11  12
HETATM   12  C13 UNL     1      26.213   3.221  50.586  1.00  0.00     0.177 C 
BRANCH  12  13
HETATM   13  C14 UNL     1      26.244   4.246  49.481  1.00  0.00     0.057 C 
BRANCH  13  14
HETATM   14  C15 UNL     1      25.168   5.277  49.559  1.00  0.00     0.274 C 
BRANCH  14  15
HETATM   15  N4  UNL     1      25.375   6.344  50.478  1.00  0.00     0.092 N 
HETATM   16  C16 UNL     1      25.759   7.589  49.862  1.00  0.00     0.298 C 
HETATM   17  C17 UNL     1      24.631   8.307  49.187  1.00  0.00     0.198 C 
HETATM   18  O3  UNL     1      23.564   8.490  50.068  1.00  0.00    -0.388 OA
HETATM   19  C18 UNL     1      23.079   7.199  50.360  1.00  0.00     0.198 C 
HETATM   20  C19 UNL     1      24.137   6.546  51.204  1.00  0.00     0.298 C 
ENDBRANCH  14  15
ENDBRANCH  13  14
ENDBRANCH  12  13
ENDBRANCH  11  12
ENDBRANCH  10  11
BRANCH   1  21
HETATM   21  O1  UNL     1      22.345   2.456  50.959  1.00  0.00    -0.353 OA
HETATM   22  C1  UNL     1      21.810   3.675  51.404  1.00  0.00     0.210 C 
ENDBRANCH   1  21
BRANCH   7  23
HETATM   23  N3  UNL     1      26.935  -0.754  54.127  1.00  0.00    -0.369 N 
HETATM   24  H6  UNL     1      27.431  -1.459  53.577  1.00  0.00     0.161 HD
BRANCH  23  25
HETATM   25  C7  UNL     1      27.711   0.225  54.865  1.00  0.00     0.174 C 
BRANCH  25  26
HETATM   26  C8  UNL     1      28.748   0.855  54.030  1.00  0.00     0.056 C 
HETATM   27 CL1  UNL     1      28.607   2.535  53.560  1.00  0.00    -0.085 Cl
HETATM   28  C9  UNL     1      29.805   0.171  53.618  1.00  0.00     0.209 C 
HETATM   29  F1  UNL     1      30.133  -1.114  53.844  1.00  0.00    -0.218 F 
ENDBRANCH  25  26
ENDBRANCH  23  25
ENDBRANCH   7  23
TORSDOF 9
ENDMDL
MODEL 3
REMARK VINA RESULT:      -7.5      1.687      1.970
REMARK  9 active torsions:
REMARK  status: ('A' for Active; 'I' for Inactive)
REMARK    1  A    between atoms: O1_2  and  C2_3 
REMARK    2  A    between atoms: C6_9  and  N3_10 
REMARK    3  A    between atoms: N3_10  and  C7_11 
REMARK    4  A    between atoms: C7_11  and  C8_12 
REMARK    5  A    between atoms: C12_18  and  O2_19 
REMARK    6  A    between atoms: O2_19  and  C13_20 
REMARK    7  A    between atoms: C13_20  and  C14_21 
REMARK    8  A    between atoms: C14_21  and  C15_22 
REMARK    9  A    between atoms: C15_22  and  N4_23 
ROOT
HETATM    1  C2  UNL     1      20.773  -0.228  53.183  1.00  0.00     0.103 A 
HETATM    2  C3  UNL     1      21.237  -0.818  54.352  1.00  0.00     0.072 A 
HETATM    3  C4  UNL     1      22.601  -0.864  54.540  1.00  0.00     0.075 A 
HETATM    4  N1  UNL     1      23.048  -1.434  55.674  1.00  0.00    -0.241 NA
HETATM    5  C5  UNL     1      24.377  -1.468  55.835  1.00  0.00     0.235 A 
HETATM    6  N2  UNL     1      25.218  -0.966  54.931  1.00  0.00    -0.224 NA
HETATM    7  C6  UNL     1      24.831  -0.387  53.787  1.00  0.00     0.137 A 
HETATM    8  C10 UNL     1      23.470  -0.345  53.606  1.00  0.00     0.041 A 
HETATM    9  C11 UNL     1      22.971   0.232  52.458  1.00  0.00     0.057 A 
HETATM   10  C12 UNL     1      21.611   0.302  52.225  1.00  0.00     0.103 A 
ENDROOT
BRANCH  10  11
HETATM   11  O2  UNL     1      20.971   0.840  51.142  1.00  0.00    -0.348 OA
BRANCH  11  12
HETATM   12  C13 UNL     1      21.042   2.197  50.740  1.00  0.00     0.177 C 
BRANCH  12  13
HETATM   13  C14 UNL     1      21.722   2.347  49.403  1.00  0.00     0.057 C 
BRANCH  13  14
HETATM   14  C15 UNL     1      23.179   2.664  49.478  1.00  0.00     0.274 C 
BRANCH  14  15
HETATM   15  N4  UNL     1      23.593   3.498  50.554  1.00  0.00     0.092 N 
HETATM   16  C16 UNL     1      24.895   3.178  51.083  1.00  0.00     0.298 C 
HETATM   17  C17 UNL     1      26.031   3.627  50.216  1.00  0.00     0.198 C 
HETATM   18  O3  UNL     1      25.925   4.988  49.928  1.00  0.00    -0.388 OA
HETATM   19  C18 UNL     1      24.763   5.129  49.144  1.00  0.00     0.198 C 
HETATM   20  C19 UNL     1      23.610   4.864  50.071  1.00  0.00     0.298 C 
ENDBRANCH  14  15
ENDBRANCH  13  14
ENDBRANCH  12  13
ENDBRANCH  11  12
ENDBRANCH  10  11
BRANCH   1  21
HETATM   21  O1  UNL     1      19.376  -0.212  53.048  1.00  0.00    -0.353 OA
HETATM   22  C1  UNL     1      18.586  -1.323  53.379  1.00  0.00     0.210 C 
ENDBRANCH   1  21
BRANCH   7  23
HETATM   23  N3  UNL     1      25.799   0.131  52.851  1.00  0.00    -0.369 N 
HETATM   24  H6  UNL     1      25.602   0.855  52.156  1.00  0.00     0.161 HD
BRANCH  23  25
HETATM   25  C7  UNL     1      27.137  -0.426  52.915  1.00  0.00     0.174 C 
BRANCH  25  26
HETATM   26  C8  UNL     1      28.127   0.560  53.386  1.00  0.00     0.056 C 
HETATM   27 CL1  UNL     1      27.706   2.255  53.495  1.00  0.00    -0.085 Cl
HETATM   28  C9  UNL     1      29.349   0.189  53.736  1.00  0.00     0.209 C 
HETATM   29  F1  UNL     1      29.903  -1.038  53.740  1.00  0.00    -0.218 F 
ENDBRANCH  25  26
ENDBRANCH  23  25
ENDBRANCH   7  23
TORSDOF 9
ENDMDL
MODEL 4
REMARK VINA RESULT:      -7.4      3.473      5.708
REMARK  9 active torsions:
REMARK  status: ('A' for Active; 'I' for Inactive)
REMARK    1  A    between atoms: O1_2  and  C2_3 
REMARK    2  A    between atoms: C6_9  and  N3_10 
REMARK    3  A    between atoms: N3_10  and  C7_11 
REMARK    4  A    between atoms: C7_11  and  C8_12 
REMARK    5  A    between atoms: C12_18  and  O2_19 
REMARK    6  A    between atoms: O2_19  and  C13_20 
REMARK    7  A    between atoms: C13_20  and  C14_21 
REMARK    8  A    between atoms: C14_21  and  C15_22 
REMARK    9  A    between atoms: C15_22  and  N4_23 
ROOT
HETATM    1  C2  UNL     1      26.955   0.513  53.221  1.00  0.00     0.103 A 
HETATM    2  C3  UNL     1      26.574  -0.194  54.356  1.00  0.00     0.072 A 
HETATM    3  C4  UNL     1      25.240  -0.511  54.486  1.00  0.00     0.075 A 
HETATM    4  N1  UNL     1      24.874  -1.196  55.585  1.00  0.00    -0.241 NA
HETATM    5  C5  UNL     1      23.573  -1.493  55.690  1.00  0.00     0.235 A 
HETATM    6  N2  UNL     1      22.682  -1.137  54.765  1.00  0.00    -0.224 NA
HETATM    7  C6  UNL     1      22.988  -0.456  53.653  1.00  0.00     0.137 A 
HETATM    8  C10 UNL     1      24.321  -0.143  53.530  1.00  0.00     0.041 A 
HETATM    9  C11 UNL     1      24.737   0.559  52.418  1.00  0.00     0.057 A 
HETATM   10  C12 UNL     1      26.064   0.899  52.243  1.00  0.00     0.103 A 
ENDROOT
BRANCH  10  11
HETATM   11  O2  UNL     1      26.625   1.586  51.201  1.00  0.00    -0.348 OA
BRANCH  11  12
HETATM   12  C13 UNL     1      26.482   2.977  50.966  1.00  0.00     0.177 C 
BRANCH  12  13
HETATM   13  C14 UNL     1      25.610   3.252  49.767  1.00  0.00     0.057 C 
BRANCH  13  14
HETATM   14  C15 UNL     1      24.196   3.602  50.094  1.00  0.00     0.274 C 
BRANCH  14  15
HETATM   15  N4  UNL     1      23.962   4.160  51.382  1.00  0.00     0.092 N 
HETATM   16  C16 UNL     1      23.850   5.597  51.394  1.00  0.00     0.298 C 
HETATM   17  C17 UNL     1      22.547   6.111  50.866  1.00  0.00     0.198 C 
HETATM   18  O3  UNL     1      21.475   5.517  51.535  1.00  0.00    -0.388 OA
HETATM   19  C18 UNL     1      21.516   4.150  51.196  1.00  0.00     0.198 C 
HETATM   20  C19 UNL     1      22.727   3.593  51.889  1.00  0.00     0.298 C 
ENDBRANCH  14  15
ENDBRANCH  13  14
ENDBRANCH  12  13
ENDBRANCH  11  12
ENDBRANCH  10  11
BRANCH   1  21
HETATM   21  O1  UNL     1      28.325   0.807  53.146  1.00  0.00    -0.353 OA
HETATM   22  C1  UNL     1      29.153   0.781  54.279  1.00  0.00     0.210 C 
ENDBRANCH   1  21
BRANCH   7  23
HETATM   23  N3  UNL     1      21.970  -0.100  52.694  1.00  0.00    -0.369 N 
HETATM   24  H6  UNL     1      22.065  -0.208  51.682  1.00  0.00     0.161 HD
BRANCH  23  25
HETATM   25  C7  UNL     1      20.736   0.450  53.222  1.00  0.00     0.174 C 
BRANCH  25  26
HETATM   26  C8  UNL     1      19.556  -0.005  52.465  1.00  0.00     0.056 C 
HETATM   27 CL1  UNL     1      18.383  -1.069  53.208  1.00  0.00    -0.085 Cl
HETATM   28  C9  UNL     1      19.357   0.378  51.213  1.00  0.00     0.209 C 
HETATM   29  F1  UNL     1      20.106   1.181  50.435  1.00  0.00    -0.218 F 
ENDBRANCH  25  26
ENDBRANCH  23  25
ENDBRANCH   7  23
TORSDOF 9
ENDMDL
MODEL 5
REMARK VINA RESULT:      -7.3      2.064      2.465
REMARK  9 active torsions:
REMARK  status: ('A' for Active; 'I' for Inactive)
REMARK    1  A    between atoms: O1_2  and  C2_3 
REMARK    2  A    between atoms: C6_9  and  N3_10 
REMARK    3  A    between atoms: N3_10  and  C7_11 
REMARK    4  A    between atoms: C7_11  and  C8_12 
REMARK    5  A    between atoms: C12_18  and  O2_19 
REMARK    6  A    between atoms: O2_19  and  C13_20 
REMARK    7  A    between atoms: C13_20  and  C14_21 
REMARK    8  A    between atoms: C14_21  and  C15_22 
REMARK    9  A    between atoms: C15_22  and  N4_23 
ROOT
HETATM    1  C2  UNL     1      21.342   0.765  52.727  1.00  0.00     0.103 A 
HETATM    2  C3  UNL     1      21.368  -0.089  53.823  1.00  0.00     0.072 A 
HETATM    3  C4  UNL     1      22.603  -0.460  54.308  1.00  0.00     0.075 A 
HETATM    4  N1  UNL     1      22.626  -1.286  55.370  1.00  0.00    -0.241 NA
HETATM    5  C5  UNL     1      23.837  -1.633  55.823  1.00  0.00     0.235 A 
HETATM    6  N2  UNL     1      24.963  -1.191  55.263  1.00  0.00    -0.224 NA
HETATM    7  C6  UNL     1      25.001  -0.368  54.207  1.00  0.00     0.137 A 
HETATM    8  C10 UNL     1      23.766  -0.003  53.729  1.00  0.00     0.041 A 
HETATM    9  C11 UNL     1      23.699   0.843  52.642  1.00  0.00     0.057 A 
HETATM   10  C12 UNL     1      22.484   1.243  52.121  1.00  0.00     0.103 A 
ENDROOT
BRANCH  10  11
HETATM   11  O2  UNL     1      22.259   2.072  51.056  1.00  0.00    -0.348 OA
BRANCH  11  12
HETATM   12  C13 UNL     1      23.034   2.111  49.870  1.00  0.00     0.177 C 
BRANCH  12  13
HETATM   13  C14 UNL     1      24.022   3.250  49.888  1.00  0.00     0.057 C 
BRANCH  13  14
HETATM   14  C15 UNL     1      23.405   4.609  49.861  1.00  0.00     0.274 C 
BRANCH  14  15
HETATM   15  N4  UNL     1      23.334   5.300  51.103  1.00  0.00     0.092 N 
HETATM   16  C16 UNL     1      23.997   6.580  51.107  1.00  0.00     0.298 C 
HETATM   17  C17 UNL     1      23.241   7.658  50.393  1.00  0.00     0.198 C 
HETATM   18  O3  UNL     1      21.942   7.763  50.892  1.00  0.00    -0.388 OA
HETATM   19  C18 UNL     1      21.300   6.555  50.554  1.00  0.00     0.198 C 
HETATM   20  C19 UNL     1      21.934   5.500  51.417  1.00  0.00     0.298 C 
ENDBRANCH  14  15
ENDBRANCH  13  14
ENDBRANCH  12  13
ENDBRANCH  11  12
ENDBRANCH  10  11
BRANCH   1  21
HETATM   21  O1  UNL     1      20.056   1.105  52.280  1.00  0.00    -0.353 OA
HETATM   22  C1  UNL     1      19.242   0.190  51.596  1.00  0.00     0.210 C 
ENDBRANCH   1  21
BRANCH   7  23
HETATM   23  N3  UNL     1      26.258   0.068  53.649  1.00  0.00    -0.369 N 
HETATM   24  H6  UNL     1      26.401   0.316  52.668  1.00  0.00     0.161 HD
BRANCH  23  25
HETATM   25  C7  UNL     1      27.386   0.153  54.559  1.00  0.00     0.174 C 
BRANCH  25  26
HETATM   26  C8  UNL     1      28.557   0.791  53.932  1.00  0.00     0.056 C 
HETATM   27 CL1  UNL     1      28.565   2.511  53.612  1.00  0.00    -0.085 Cl
HETATM   28  C9  UNL     1      29.626   0.082  53.600  1.00  0.00     0.209 C 
HETATM   29  F1  UNL     1      29.857  -1.236  53.743  1.00  0.00    -0.218 F 
ENDBRANCH  25  26
ENDBRANCH  23  25
ENDBRANCH   7  23
TORSDOF 9
ENDMDL
MODEL 6
REMARK VINA RESULT:      -7.2      3.474      5.499
REMARK  9 active torsions:
REMARK  status: ('A' for Active; 'I' for Inactive)
REMARK    1  A    between atoms: O1_2  and  C2_3 
REMARK    2  A    between atoms: C6_9  and  N3_10 
REMARK    3  A    between atoms: N3_10  and  C7_11 
REMARK    4  A    between atoms: C7_11  and  C8_12 
REMARK    5  A    between atoms: C12_18  and  O2_19 
REMARK    6  A    between atoms: O2_19  and  C13_20 
REMARK    7  A    between atoms: C13_20  and  C14_21 
REMARK    8  A    between atoms: C14_21  and  C15_22 
REMARK    9  A    between atoms: C15_22  and  N4_23 
ROOT
HETATM    1  C2  UNL     1      27.469   1.437  53.113  1.00  0.00     0.103 A 
HETATM    2  C3  UNL     1      27.201   0.575  54.171  1.00  0.00     0.072 A 
HETATM    3  C4  UNL     1      25.927   0.057  54.260  1.00  0.00     0.075 A 
HETATM    4  N1  UNL     1      25.671  -0.777  55.284  1.00  0.00    -0.241 NA
HETATM    5  C5  UNL     1      24.427  -1.267  55.350  1.00  0.00     0.235 A 
HETATM    6  N2  UNL     1      23.488  -0.955  54.456  1.00  0.00    -0.224 NA
HETATM    7  C6  UNL     1      23.686  -0.133  53.418  1.00  0.00     0.137 A 
HETATM    8  C10 UNL     1      24.958   0.380  53.336  1.00  0.00     0.041 A 
HETATM    9  C11 UNL     1      25.262   1.239  52.301  1.00  0.00     0.057 A 
HETATM   10  C12 UNL     1      26.525   1.783  52.170  1.00  0.00     0.103 A 
ENDROOT
BRANCH  10  11
HETATM   11  O2  UNL     1      26.974   2.641  51.204  1.00  0.00    -0.348 OA
BRANCH  11  12
HETATM   12  C13 UNL     1      26.351   2.861  49.950  1.00  0.00     0.177 C 
BRANCH  12  13
HETATM   13  C14 UNL     1      26.785   4.167  49.334  1.00  0.00     0.057 C 
BRANCH  13  14
HETATM   14  C15 UNL     1      25.892   5.324  49.636  1.00  0.00     0.274 C 
BRANCH  14  15
HETATM   15  N4  UNL     1      24.573   5.012  50.070  1.00  0.00     0.092 N 
HETATM   16  C16 UNL     1      24.117   5.798  51.189  1.00  0.00     0.298 C 
HETATM   17  C17 UNL     1      23.735   7.202  50.832  1.00  0.00     0.198 C 
HETATM   18  O3  UNL     1      22.800   7.210  49.797  1.00  0.00    -0.388 OA
HETATM   19  C18 UNL     1      23.466   6.694  48.668  1.00  0.00     0.198 C 
HETATM   20  C19 UNL     1      23.678   5.233  48.951  1.00  0.00     0.298 C 
ENDBRANCH  14  15
ENDBRANCH  13  14
ENDBRANCH  12  13
ENDBRANCH  11  12
ENDBRANCH  10  11
BRANCH   1  21
HETATM   21  O1  UNL     1      28.781   1.931  53.078  1.00  0.00    -0.353 OA
HETATM   22  C1  UNL     1      29.541   2.105  54.245  1.00  0.00     0.210 C 
ENDBRANCH   1  21
BRANCH   7  23
HETATM   23  N3  UNL     1      22.621   0.164  52.490  1.00  0.00    -0.369 N 
HETATM   24  H6  UNL     1      22.550  -0.223  51.547  1.00  0.00     0.161 HD
BRANCH  23  25
HETATM   25  C7  UNL     1      21.590   1.078  52.946  1.00  0.00     0.174 C 
BRANCH  25  26
HETATM   26  C8  UNL     1      20.235   0.567  52.671  1.00  0.00     0.056 C 
HETATM   27 CL1  UNL     1      19.201   1.377  51.515  1.00  0.00    -0.085 Cl
HETATM   28  C9  UNL     1      19.771  -0.509  53.287  1.00  0.00     0.209 C 
HETATM   29  F1  UNL     1      20.367  -1.293  54.204  1.00  0.00    -0.218 F 
ENDBRANCH  25  26
ENDBRANCH  23  25
ENDBRANCH   7  23
TORSDOF 9
ENDMDL
MODEL 7
REMARK VINA RESULT:      -7.2      2.698      3.901
REMARK  9 active torsions:
REMARK  status: ('A' for Active; 'I' for Inactive)
REMARK    1  A    between atoms: O1_2  and  C2_3 
REMARK    2  A    between atoms: C6_9  and  N3_10 
REMARK    3  A    between atoms: N3_10  and  C7_11 
REMARK    4  A    between atoms: C7_11  and  C8_12 
REMARK    5  A    between atoms: C12_18  and  O2_19 
REMARK    6  A    between atoms: O2_19  and  C13_20 
REMARK    7  A    between atoms: C13_20  and  C14_21 
REMARK    8  A    between atoms: C14_21  and  C15_22 
REMARK    9  A    between atoms: C15_22  and  N4_23 
ROOT
HETATM    1  C2  UNL     1      23.701   3.850  50.860  1.00  0.00     0.103 A 
HETATM    2  C3  UNL     1      22.907   3.052  51.676  1.00  0.00     0.072 A 
HETATM    3  C4  UNL     1      23.479   1.913  52.198  1.00  0.00     0.075 A 
HETATM    4  N1  UNL     1      22.710   1.142  52.987  1.00  0.00    -0.241 NA
HETATM    5  C5  UNL     1      23.287   0.041  53.484  1.00  0.00     0.235 A 
HETATM    6  N2  UNL     1      24.553  -0.283  53.219  1.00  0.00    -0.224 NA
HETATM    7  C6  UNL     1      25.365   0.445  52.442  1.00  0.00     0.137 A 
HETATM    8  C10 UNL     1      24.787   1.579  51.924  1.00  0.00     0.041 A 
HETATM    9  C11 UNL     1      25.543   2.396  51.110  1.00  0.00     0.057 A 
HETATM   10  C12 UNL     1      25.013   3.549  50.564  1.00  0.00     0.103 A 
ENDROOT
BRANCH  10  11
HETATM   11  O2  UNL     1      25.634   4.453  49.746  1.00  0.00    -0.348 OA
BRANCH  11  12
HETATM   12  C13 UNL     1      26.926   4.298  49.185  1.00  0.00     0.177 C 
BRANCH  12  13
HETATM   13  C14 UNL     1      27.404   5.568  48.527  1.00  0.00     0.057 C 
BRANCH  13  14
HETATM   14  C15 UNL     1      28.880   5.646  48.324  1.00  0.00     0.274 C 
BRANCH  14  15
HETATM   15  N4  UNL     1      29.353   6.704  47.499  1.00  0.00     0.092 N 
HETATM   16  C16 UNL     1      28.756   7.986  47.779  1.00  0.00     0.298 C 
HETATM   17  C17 UNL     1      29.275   8.640  49.022  1.00  0.00     0.198 C 
HETATM   18  O3  UNL     1      30.667   8.731  48.987  1.00  0.00    -0.388 OA
HETATM   19  C18 UNL     1      31.142   7.404  49.023  1.00  0.00     0.198 C 
HETATM   20  C19 UNL     1      30.786   6.807  47.692  1.00  0.00     0.298 C 
ENDBRANCH  14  15
ENDBRANCH  13  14
ENDBRANCH  12  13
ENDBRANCH  11  12
ENDBRANCH  10  11
BRANCH   1  21
HETATM   21  O1  UNL     1      23.061   4.994  50.358  1.00  0.00    -0.353 OA
HETATM   22  C1  UNL     1      22.326   5.856  51.185  1.00  0.00     0.210 C 
ENDBRANCH   1  21
BRANCH   7  23
HETATM   23  N3  UNL     1      26.725   0.032  52.195  1.00  0.00    -0.369 N 
HETATM   24  H6  UNL     1      27.147  -0.046  51.267  1.00  0.00     0.161 HD
BRANCH  23  25
HETATM   25  C7  UNL     1      27.534  -0.292  53.355  1.00  0.00     0.174 C 
BRANCH  25  26
HETATM   26  C8  UNL     1      28.652   0.652  53.534  1.00  0.00     0.056 C 
HETATM   27 CL1  UNL     1      28.357   2.377  53.573  1.00  0.00    -0.085 Cl
HETATM   28  C9  UNL     1      29.897   0.221  53.669  1.00  0.00     0.209 C 
HETATM   29  F1  UNL     1      30.370  -1.038  53.672  1.00  0.00    -0.218 F 
ENDBRANCH  25  26
ENDBRANCH  23  25
ENDBRANCH   7  23
TORSDOF 9
ENDMDL
MODEL 8
REMARK VINA RESULT:      -7.0      3.547      5.756
REMARK  9 active torsions:
REMARK  status: ('A' for Active; 'I' for Inactive)
REMARK    1  A    between atoms: O1_2  and  C2_3 
REMARK    2  A    between atoms: C6_9  and  N3_10 
REMARK    3  A    between atoms: N3_10  and  C7_11 
REMARK    4  A    between atoms: C7_11  and  C8_12 
REMARK    5  A    between atoms: C12_18  and  O2_19 
REMARK    6  A    between atoms: O2_19  and  C13_20 
REMARK    7  A    between atoms: C13_20  and  C14_21 
REMARK    8  A    between atoms: C14_21  and  C15_22 
REMARK    9  A    between atoms: C15_22  and  N4_23 
ROOT
HETATM    1  C2  UNL     1      26.974   1.285  53.528  1.00  0.00     0.103 A 
HETATM    2  C3  UNL     1      26.622   0.328  54.473  1.00  0.00     0.072 A 
HETATM    3  C4  UNL     1      25.327  -0.142  54.447  1.00  0.00     0.075 A 
HETATM    4  N1  UNL     1      24.990  -1.068  55.362  1.00  0.00    -0.241 NA
HETATM    5  C5  UNL     1      23.727  -1.511  55.319  1.00  0.00     0.235 A 
HETATM    6  N2  UNL     1      22.846  -1.066  54.422  1.00  0.00    -0.224 NA
HETATM    7  C6  UNL     1      23.125  -0.148  53.489  1.00  0.00     0.137 A 
HETATM    8  C10 UNL     1      24.418   0.317  53.521  1.00  0.00     0.041 A 
HETATM    9  C11 UNL     1      24.804   1.267  52.599  1.00  0.00     0.057 A 
HETATM   10  C12 UNL     1      26.091   1.768  52.586  1.00  0.00     0.103 A 
ENDROOT
BRANCH  10  11
HETATM   11  O2  UNL     1      26.619   2.705  51.739  1.00  0.00    -0.348 OA
BRANCH  11  12
HETATM   12  C13 UNL     1      26.536   2.670  50.325  1.00  0.00     0.177 C 
BRANCH  12  13
HETATM   13  C14 UNL     1      25.802   3.869  49.780  1.00  0.00     0.057 C 
BRANCH  13  14
HETATM   14  C15 UNL     1      24.315   3.741  49.781  1.00  0.00     0.274 C 
BRANCH  14  15
HETATM   15  N4  UNL     1      23.575   4.935  50.008  1.00  0.00     0.092 N 
HETATM   16  C16 UNL     1      22.148   4.780  49.876  1.00  0.00     0.298 C 
HETATM   17  C17 UNL     1      21.501   4.084  51.034  1.00  0.00     0.198 C 
HETATM   18  O3  UNL     1      21.829   4.716  52.235  1.00  0.00    -0.388 OA
HETATM   19  C18 UNL     1      23.217   4.533  52.401  1.00  0.00     0.198 C 
HETATM   20  C19 UNL     1      23.870   5.388  51.353  1.00  0.00     0.298 C 
ENDBRANCH  14  15
ENDBRANCH  13  14
ENDBRANCH  12  13
ENDBRANCH  11  12
ENDBRANCH  10  11
BRANCH   1  21
HETATM   21  O1  UNL     1      28.304   1.725  53.606  1.00  0.00    -0.353 OA
HETATM   22  C1  UNL     1      29.369   0.835  53.810  1.00  0.00     0.210 C 
ENDBRANCH   1  21
BRANCH   7  23
HETATM   23  N3  UNL     1      22.119   0.291  52.552  1.00  0.00    -0.369 N 
HETATM   24  H6  UNL     1      22.142   0.102  51.547  1.00  0.00     0.161 HD
BRANCH  23  25
HETATM   25  C7  UNL     1      21.008   1.052  53.090  1.00  0.00     0.174 C 
BRANCH  25  26
HETATM   26  C8  UNL     1      19.709   0.570  52.587  1.00  0.00     0.056 C 
HETATM   27 CL1  UNL     1      18.804   1.514  51.425  1.00  0.00    -0.085 Cl
HETATM   28  C9  UNL     1      19.201  -0.582  52.998  1.00  0.00     0.209 C 
HETATM   29  F1  UNL     1      19.700  -1.473  53.874  1.00  0.00    -0.218 F 
ENDBRANCH  25  26
ENDBRANCH  23  25
ENDBRANCH   7  23
TORSDOF 9
ENDMDL
MODEL 9
REMARK VINA RESULT:      -7.0      3.679      7.921
REMARK  9 active torsions:
REMARK  status: ('A' for Active; 'I' for Inactive)
REMARK    1  A    between atoms: O1_2  and  C2_3 
REMARK    2  A    between atoms: C6_9  and  N3_10 
REMARK    3  A    between atoms: N3_10  and  C7_11 
REMARK    4  A    between atoms: C7_11  and  C8_12 
REMARK    5  A    between atoms: C12_18  and  O2_19 
REMARK    6  A    between atoms: O2_19  and  C13_20 
REMARK    7  A    between atoms: C13_20  and  C14_21 
REMARK    8  A    between atoms: C14_21  and  C15_22 
REMARK    9  A    between atoms: C15_22  and  N4_23 
ROOT
HETATM    1  C2  UNL     1      24.130   4.315  49.560  1.00  0.00     0.103 A 
HETATM    2  C3  UNL     1      23.930   5.497  48.857  1.00  0.00     0.072 A 
HETATM    3  C4  UNL     1      25.048   6.200  48.467  1.00  0.00     0.075 A 
HETATM    4  N1  UNL     1      24.851   7.343  47.786  1.00  0.00    -0.241 NA
HETATM    5  C5  UNL     1      25.952   8.010  47.417  1.00  0.00     0.235 A 
HETATM    6  N2  UNL     1      27.179   7.573  47.702  1.00  0.00    -0.224 NA
HETATM    7  C6  UNL     1      27.436   6.445  48.376  1.00  0.00     0.137 A 
HETATM    8  C10 UNL     1      26.315   5.749  48.762  1.00  0.00     0.041 A 
HETATM    9  C11 UNL     1      26.474   4.572  49.462  1.00  0.00     0.057 A 
HETATM   10  C12 UNL     1      25.383   3.832  49.874  1.00  0.00     0.103 A 
ENDROOT
BRANCH  10  11
HETATM   11  O2  UNL     1      25.381   2.654  50.570  1.00  0.00    -0.348 OA
BRANCH  11  12
HETATM   12  C13 UNL     1      26.486   2.120  51.279  1.00  0.00     0.177 C 
BRANCH  12  13
HETATM   13  C14 UNL     1      26.244   2.119  52.767  1.00  0.00     0.057 C 
BRANCH  13  14
HETATM   14  C15 UNL     1      27.416   1.694  53.587  1.00  0.00     0.274 C 
BRANCH  14  15
HETATM   15  N4  UNL     1      27.216   0.585  54.456  1.00  0.00     0.092 N 
HETATM   16  C16 UNL     1      26.440  -0.485  53.881  1.00  0.00     0.298 C 
HETATM   17  C17 UNL     1      27.192  -1.318  52.891  1.00  0.00     0.198 C 
HETATM   18  O3  UNL     1      28.377  -1.800  53.450  1.00  0.00    -0.388 OA
HETATM   19  C18 UNL     1      29.180  -0.667  53.690  1.00  0.00     0.198 C 
HETATM   20  C19 UNL     1      28.520   0.069  54.821  1.00  0.00     0.298 C 
ENDBRANCH  14  15
ENDBRANCH  13  14
ENDBRANCH  12  13
ENDBRANCH  11  12
ENDBRANCH  10  11
BRANCH   1  21
HETATM   21  O1  UNL     1      22.954   3.646  49.930  1.00  0.00    -0.353 OA
HETATM   22  C1  UNL     1      21.744   4.327  50.130  1.00  0.00     0.210 C 
ENDBRANCH   1  21
BRANCH   7  23
HETATM   23  N3  UNL     1      28.791   6.035  48.653  1.00  0.00    -0.369 N 
HETATM   24  H6  UNL     1      29.046   5.234  49.235  1.00  0.00     0.161 HD
BRANCH  23  25
HETATM   25  C7  UNL     1      29.851   6.827  48.057  1.00  0.00     0.174 C 
BRANCH  25  26
HETATM   26  C8  UNL     1      31.159   6.566  48.685  1.00  0.00     0.056 C 
HETATM   27 CL1  UNL     1      31.898   7.765  49.723  1.00  0.00    -0.085 Cl
HETATM   28  C9  UNL     1      31.800   5.426  48.480  1.00  0.00     0.209 C 
HETATM   29  F1  UNL     1      31.443   4.365  47.733  1.00  0.00    -0.218 F 
ENDBRANCH  25  26
ENDBRANCH  23  25
ENDBRANCH   7  23
TORSDOF 9
ENDMDL
