MODEL 1
REMARK VINA RESULT:      -7.5      0.000      0.000
REMARK  9 active torsions:
REMARK  status: ('A' for Active; 'I' for Inactive)
REMARK    1  A    between atoms: N1_2  and  C2_3 
REMARK    2  A    between atoms: C2_3  and  C3_4 
REMARK    3  A    between atoms: C4_5  and  C5_6 
REMARK    4  A    between atoms: C6_7  and  C7_8 
REMARK    5  A    between atoms: C7_8  and  N2_9 
REMARK    6  A    between atoms: N2_9  and  C9_11 
REMARK    7  A    between atoms: C11_14  and  N3_15 
REMARK    8  A    between atoms: N3_15  and  C12_16 
REMARK    9  A    between atoms: C20_27  and  O2_28 
ROOT
HETATM    1  C3  UNL     1      20.800   2.062  52.683  1.00  0.00     0.112 C 
HETATM    2  C4  UNL     1      22.273   1.810  52.570  1.00  0.00    -0.046 C 
HETATM    3  C10 UNL     1      22.891   0.747  53.065  1.00  0.00     0.010 C 
HETATM    4  C11 UNL     1      22.911  -0.531  53.787  1.00  0.00     0.130 C 
HETATM    5  C18 UNL     1      21.691  -0.818  54.591  1.00  0.00     0.021 C 
HETATM    6  C19 UNL     1      20.371  -0.743  54.292  1.00  0.00     0.117 C 
HETATM    7  N4  UNL     1      19.953  -0.312  52.971  1.00  0.00    -0.240 NA
HETATM    8  C20 UNL     1      20.092   0.796  52.265  1.00  0.00     0.149 C 
ENDROOT
BRANCH   4   9
HETATM    9  N3  UNL     1      24.096  -0.688  54.618  1.00  0.00    -0.379 N 
HETATM   10  H18 UNL     1      23.968  -0.800  55.647  1.00  0.00     0.160 HD
BRANCH   9  11
HETATM   11  C12 UNL     1      25.434  -0.702  54.134  1.00  0.00     0.030 A 
HETATM   12  C13 UNL     1      25.841  -1.511  53.092  1.00  0.00     0.032 A 
HETATM   13  C14 UNL     1      27.136  -1.526  52.635  1.00  0.00     0.046 A 
HETATM   14  C15 UNL     1      28.101  -0.714  53.213  1.00  0.00     0.138 A 
HETATM   15  F1  UNL     1      29.393  -0.708  52.780  1.00  0.00    -0.204 F 
HETATM   16  C16 UNL     1      27.740   0.099  54.245  1.00  0.00     0.074 A 
HETATM   17 CL1  UNL     1      28.961   1.134  54.980  1.00  0.00    -0.081 Cl
HETATM   18  C17 UNL     1      26.434   0.099  54.689  1.00  0.00     0.056 A 
ENDBRANCH   9  11
ENDBRANCH   4   9
BRANCH   2  19
HETATM   19  C5  UNL     1      23.027   2.811  51.882  1.00  0.00     0.005 C 
HETATM   20  C6  UNL     1      24.180   3.023  51.296  1.00  0.00    -0.007 C 
BRANCH  20  21
HETATM   21  C7  UNL     1      24.847   4.154  50.601  1.00  0.00     0.151 C 
BRANCH  21  22
HETATM   22  N2  UNL     1      26.137   3.743  50.132  1.00  0.00    -0.360 N 
HETATM   23  C8  UNL     1      26.924   4.430  49.141  1.00  0.00     0.152 C 
BRANCH  22  24
HETATM   24  C9  UNL     1      26.682   2.558  50.690  1.00  0.00     0.350 C 
HETATM   25  O1  UNL     1      27.450   2.702  51.692  1.00  0.00    -0.284 OA
ENDBRANCH  22  24
ENDBRANCH  21  22
ENDBRANCH  20  21
ENDBRANCH   2  19
BRANCH   1  26
HETATM   26  C2  UNL     1      20.327   3.309  52.066  1.00  0.00     0.131 C 
BRANCH  26  27
HETATM   27  N1  UNL     1      18.973   3.414  51.683  1.00  0.00    -0.424 N 
HETATM   28  C1  UNL     1      18.562   3.881  50.434  1.00  0.00     0.139 C 
HETATM   29  H4  UNL     1      18.447   2.561  51.952  1.00  0.00     0.152 HD
ENDBRANCH  26  27
ENDBRANCH   1  26
BRANCH   8  30
HETATM   30  O2  UNL     1      19.443   0.487  51.089  1.00  0.00    -0.342 OA
HETATM   31  C21 UNL     1      18.149  -0.110  51.151  1.00  0.00     0.211 C 
ENDBRANCH   8  30
TORSDOF 9
ENDMDL
MODEL 2
REMARK VINA RESULT:      -7.4      3.328      6.373
REMARK  9 active torsions:
REMARK  status: ('A' for Active; 'I' for Inactive)
REMARK    1  A    between atoms: N1_2  and  C2_3 
REMARK    2  A    between atoms: C2_3  and  C3_4 
REMARK    3  A    between atoms: C4_5  and  C5_6 
REMARK    4  A    between atoms: C6_7  and  C7_8 
REMARK    5  A    between atoms: C7_8  and  N2_9 
REMARK    6  A    between atoms: N2_9  and  C9_11 
REMARK    7  A    between atoms: C11_14  and  N3_15 
REMARK    8  A    between atoms: N3_15  and  C12_16 
REMARK    9  A    between atoms: C20_27  and  O2_28 
ROOT
HETATM    1  C3  UNL     1      23.225   1.017  51.836  1.00  0.00     0.112 C 
HETATM    2  C4  UNL     1      24.572   1.666  51.929  1.00  0.00    -0.046 C 
HETATM    3  C10 UNL     1      25.003   2.617  51.111  1.00  0.00     0.010 C 
HETATM    4  C11 UNL     1      24.843   3.528  49.972  1.00  0.00     0.130 C 
HETATM    5  C18 UNL     1      23.719   3.194  49.054  1.00  0.00     0.021 C 
HETATM    6  C19 UNL     1      22.420   2.886  49.286  1.00  0.00     0.117 C 
HETATM    7  N4  UNL     1      21.921   2.842  50.649  1.00  0.00    -0.240 NA
HETATM    8  C20 UNL     1      22.199   2.119  51.719  1.00  0.00     0.149 C 
ENDROOT
BRANCH   4   9
HETATM    9  N3  UNL     1      26.071   3.693  49.208  1.00  0.00    -0.379 N 
HETATM   10  H18 UNL     1      26.523   2.842  48.807  1.00  0.00     0.160 HD
BRANCH   9  11
HETATM   11  C12 UNL     1      26.714   4.937  48.958  1.00  0.00     0.030 A 
HETATM   12  C13 UNL     1      26.086   6.151  49.150  1.00  0.00     0.032 A 
HETATM   13  C14 UNL     1      26.709   7.349  48.898  1.00  0.00     0.046 A 
HETATM   14  C15 UNL     1      28.017   7.384  48.434  1.00  0.00     0.138 A 
HETATM   15  F1  UNL     1      28.660   8.558  48.177  1.00  0.00    -0.204 F 
HETATM   16  C16 UNL     1      28.672   6.207  48.232  1.00  0.00     0.074 A 
HETATM   17 CL1  UNL     1      30.331   6.247  47.646  1.00  0.00    -0.081 Cl
HETATM   18  C17 UNL     1      28.027   5.014  48.490  1.00  0.00     0.056 A 
ENDBRANCH   9  11
ENDBRANCH   4   9
BRANCH   2  19
HETATM   19  C5  UNL     1      25.421   1.194  52.977  1.00  0.00     0.005 C 
HETATM   20  C6  UNL     1      26.497   0.477  53.200  1.00  0.00    -0.007 C 
BRANCH  20  21
HETATM   21  C7  UNL     1      27.290   0.059  54.384  1.00  0.00     0.151 C 
BRANCH  21  22
HETATM   22  N2  UNL     1      28.683   0.290  54.140  1.00  0.00    -0.360 N 
HETATM   23  C8  UNL     1      29.681  -0.734  53.964  1.00  0.00     0.152 C 
BRANCH  22  24
HETATM   24  C9  UNL     1      29.114   1.639  54.069  1.00  0.00     0.350 C 
HETATM   25  O1  UNL     1      29.447   2.188  55.165  1.00  0.00    -0.284 OA
ENDBRANCH  22  24
ENDBRANCH  21  22
ENDBRANCH  20  21
ENDBRANCH   2  19
BRANCH   1  26
HETATM   26  C2  UNL     1      22.957  -0.020  52.842  1.00  0.00     0.131 C 
BRANCH  26  27
HETATM   27  N1  UNL     1      22.167   0.303  53.966  1.00  0.00    -0.424 N 
HETATM   28  C1  UNL     1      21.381  -0.628  54.646  1.00  0.00     0.139 C 
HETATM   29  H4  UNL     1      22.696   0.898  54.630  1.00  0.00     0.152 HD
ENDBRANCH  26  27
ENDBRANCH   1  26
BRANCH   8  30
HETATM   30  O2  UNL     1      21.335   2.632  52.661  1.00  0.00    -0.342 OA
HETATM   31  C21 UNL     1      19.959   2.796  52.319  1.00  0.00     0.211 C 
ENDBRANCH   8  30
TORSDOF 9
ENDMDL
MODEL 3
REMARK VINA RESULT:      -7.3      3.487      6.405
REMARK  9 active torsions:
REMARK  status: ('A' for Active; 'I' for Inactive)
REMARK    1  A    between atoms: N1_2  and  C2_3 
REMARK    2  A    between atoms: C2_3  and  C3_4 
REMARK    3  A    between atoms: C4_5  and  C5_6 
REMARK    4  A    between atoms: C6_7  and  C7_8 
REMARK    5  A    between atoms: C7_8  and  N2_9 
REMARK    6  A    between atoms: N2_9  and  C9_11 
REMARK    7  A    between atoms: C11_14  and  N3_15 
REMARK    8  A    between atoms: N3_15  and  C12_16 
REMARK    9  A    between atoms: C20_27  and  O2_28 
ROOT
HETATM    1  C3  UNL     1      25.780   2.253  51.308  1.00  0.00     0.112 C 
HETATM    2  C4  UNL     1      24.666   2.249  52.310  1.00  0.00    -0.046 C 
HETATM    3  C10 UNL     1      24.430   1.261  53.162  1.00  0.00     0.010 C 
HETATM    4  C11 UNL     1      24.722  -0.051  53.750  1.00  0.00     0.130 C 
HETATM    5  C18 UNL     1      25.631  -0.913  52.944  1.00  0.00     0.021 C 
HETATM    6  C19 UNL     1      26.818  -0.662  52.340  1.00  0.00     0.117 C 
HETATM    7  N4  UNL     1      27.407   0.662  52.428  1.00  0.00    -0.240 NA
HETATM    8  C20 UNL     1      27.045   1.871  52.037  1.00  0.00     0.149 C 
ENDROOT
BRANCH   4   9
HETATM    9  N3  UNL     1      23.518  -0.793  54.095  1.00  0.00    -0.379 N 
HETATM   10  H18 UNL     1      23.593  -1.562  54.796  1.00  0.00     0.160 HD
BRANCH   9  11
HETATM   11  C12 UNL     1      22.227  -0.550  53.547  1.00  0.00     0.030 A 
HETATM   12  C13 UNL     1      21.063  -0.803  54.244  1.00  0.00     0.032 A 
HETATM   13  C14 UNL     1      19.820  -0.575  53.707  1.00  0.00     0.046 A 
HETATM   14  C15 UNL     1      19.685  -0.072  52.420  1.00  0.00     0.138 A 
HETATM   15  F1  UNL     1      18.465   0.165  51.863  1.00  0.00    -0.204 F 
HETATM   16  C16 UNL     1      20.811   0.191  51.699  1.00  0.00     0.074 A 
HETATM   17 CL1  UNL     1      20.645   0.833  50.068  1.00  0.00    -0.081 Cl
HETATM   18  C17 UNL     1      22.050  -0.046  52.257  1.00  0.00     0.056 A 
ENDBRANCH   9  11
ENDBRANCH   4   9
BRANCH   2  19
HETATM   19  C5  UNL     1      23.820   3.400  52.308  1.00  0.00     0.005 C 
HETATM   20  C6  UNL     1      22.575   3.775  52.136  1.00  0.00    -0.007 C 
BRANCH  20  21
HETATM   21  C7  UNL     1      21.817   5.052  52.166  1.00  0.00     0.151 C 
BRANCH  21  22
HETATM   22  N2  UNL     1      21.892   5.690  50.885  1.00  0.00    -0.360 N 
HETATM   23  C8  UNL     1      21.121   5.327  49.724  1.00  0.00     0.152 C 
BRANCH  22  24
HETATM   24  C9  UNL     1      22.803   6.769  50.751  1.00  0.00     0.350 C 
HETATM   25  O1  UNL     1      23.964   6.482  50.323  1.00  0.00    -0.284 OA
ENDBRANCH  22  24
ENDBRANCH  21  22
ENDBRANCH  20  21
ENDBRANCH   2  19
BRANCH   1  26
HETATM   26  C2  UNL     1      25.854   3.450  50.456  1.00  0.00     0.131 C 
BRANCH  26  27
HETATM   27  N1  UNL     1      27.117   3.903  50.020  1.00  0.00    -0.424 N 
HETATM   28  C1  UNL     1      27.299   4.693  48.885  1.00  0.00     0.139 C 
HETATM   29  H4  UNL     1      27.675   4.263  50.817  1.00  0.00     0.152 HD
ENDBRANCH  26  27
ENDBRANCH   1  26
BRANCH   8  30
HETATM   30  O2  UNL     1      28.096   2.653  52.466  1.00  0.00    -0.342 OA
HETATM   31  C21 UNL     1      28.732   2.336  53.703  1.00  0.00     0.211 C 
ENDBRANCH   8  30
TORSDOF 9
ENDMDL
MODEL 4
REMARK VINA RESULT:      -7.2      3.293      4.657
REMARK  9 active torsions:
REMARK  status: ('A' for Active; 'I' for Inactive)
REMARK    1  A    between atoms: N1_2  and  C2_3 
REMARK    2  A    between atoms: C2_3  and  C3_4 
REMARK    3  A    between atoms: C4_5  and  C5_6 
REMARK    4  A    between atoms: C6_7  and  C7_8 
REMARK    5  A    between atoms: C7_8  and  N2_9 
REMARK    6  A    between atoms: N2_9  and  C9_11 
REMARK    7  A    between atoms: C11_14  and  N3_15 
REMARK    8  A    between atoms: N3_15  and  C12_16 
REMARK    9  A    between atoms: C20_27  and  O2_28 
ROOT
HETATM    1  C3  UNL     1      23.833   4.581  49.502  1.00  0.00     0.112 C 
HETATM    2  C4  UNL     1      25.282   4.374  49.824  1.00  0.00    -0.046 C 
HETATM    3  C10 UNL     1      25.740   3.450  50.658  1.00  0.00     0.010 C 
HETATM    4  C11 UNL     1      25.559   2.333  51.592  1.00  0.00     0.130 C 
HETATM    5  C18 UNL     1      24.168   2.151  52.093  1.00  0.00     0.021 C 
HETATM    6  C19 UNL     1      22.973   2.113  51.454  1.00  0.00     0.117 C 
HETATM    7  N4  UNL     1      22.920   2.269  50.012  1.00  0.00    -0.240 NA
HETATM    8  C20 UNL     1      23.248   3.230  49.167  1.00  0.00     0.149 C 
ENDROOT
BRANCH   4   9
HETATM    9  N3  UNL     1      26.483   2.386  52.716  1.00  0.00    -0.379 N 
HETATM   10  H18 UNL     1      26.447   3.214  53.349  1.00  0.00     0.160 HD
BRANCH   9  11
HETATM   11  C12 UNL     1      27.446   1.385  53.026  1.00  0.00     0.030 A 
HETATM   12  C13 UNL     1      28.685   1.683  53.556  1.00  0.00     0.032 A 
HETATM   13  C14 UNL     1      29.613   0.713  53.846  1.00  0.00     0.046 A 
HETATM   14  C15 UNL     1      29.334  -0.627  53.613  1.00  0.00     0.138 A 
HETATM   15  F1  UNL     1      30.236  -1.610  53.892  1.00  0.00    -0.204 F 
HETATM   16  C16 UNL     1      28.122  -0.962  53.090  1.00  0.00     0.074 A 
HETATM   17 CL1  UNL     1      27.763  -2.661  52.796  1.00  0.00    -0.081 Cl
HETATM   18  C17 UNL     1      27.204   0.028  52.806  1.00  0.00     0.056 A 
ENDBRANCH   9  11
ENDBRANCH   4   9
BRANCH   2  19
HETATM   19  C5  UNL     1      26.198   5.259  49.176  1.00  0.00     0.005 C 
HETATM   20  C6  UNL     1      27.407   5.316  48.672  1.00  0.00    -0.007 C 
BRANCH  20  21
HETATM   21  C7  UNL     1      28.253   6.340  48.007  1.00  0.00     0.151 C 
BRANCH  21  22
HETATM   22  N2  UNL     1      27.612   7.620  48.079  1.00  0.00    -0.360 N 
HETATM   23  C8  UNL     1      27.639   8.505  49.214  1.00  0.00     0.152 C 
BRANCH  22  24
HETATM   24  C9  UNL     1      26.888   8.047  46.936  1.00  0.00     0.350 C 
HETATM   25  O1  UNL     1      25.623   8.079  47.043  1.00  0.00    -0.284 OA
ENDBRANCH  22  24
ENDBRANCH  21  22
ENDBRANCH  20  21
ENDBRANCH   2  19
BRANCH   1  26
HETATM   26  C2  UNL     1      23.549   5.668  48.555  1.00  0.00     0.131 C 
BRANCH  26  27
HETATM   27  N1  UNL     1      22.339   5.646  47.830  1.00  0.00    -0.424 N 
HETATM   28  C1  UNL     1      22.268   5.832  46.449  1.00  0.00     0.139 C 
HETATM   29  H4  UNL     1      21.744   4.852  48.129  1.00  0.00     0.152 HD
ENDBRANCH  26  27
ENDBRANCH   1  26
BRANCH   8  30
HETATM   30  O2  UNL     1      22.928   2.678  47.946  1.00  0.00    -0.342 OA
HETATM   31  C21 UNL     1      21.643   2.081  47.774  1.00  0.00     0.211 C 
ENDBRANCH   8  30
TORSDOF 9
ENDMDL
MODEL 5
REMARK VINA RESULT:      -7.2      3.512      6.255
REMARK  9 active torsions:
REMARK  status: ('A' for Active; 'I' for Inactive)
REMARK    1  A    between atoms: N1_2  and  C2_3 
REMARK    2  A    between atoms: C2_3  and  C3_4 
REMARK    3  A    between atoms: C4_5  and  C5_6 
REMARK    4  A    between atoms: C6_7  and  C7_8 
REMARK    5  A    between atoms: C7_8  and  N2_9 
REMARK    6  A    between atoms: N2_9  and  C9_11 
REMARK    7  A    between atoms: C11_14  and  N3_15 
REMARK    8  A    between atoms: N3_15  and  C12_16 
REMARK    9  A    between atoms: C20_27  and  O2_28 
ROOT
HETATM    1  C3  UNL     1      25.307  -0.538  52.963  1.00  0.00     0.112 C 
HETATM    2  C4  UNL     1      24.745   0.782  52.532  1.00  0.00    -0.046 C 
HETATM    3  C10 UNL     1      23.502   1.179  52.765  1.00  0.00     0.010 C 
HETATM    4  C11 UNL     1      22.153   0.987  53.311  1.00  0.00     0.130 C 
HETATM    5  C18 UNL     1      21.811  -0.419  53.661  1.00  0.00     0.021 C 
HETATM    6  C19 UNL     1      22.480  -1.366  54.364  1.00  0.00     0.117 C 
HETATM    7  N4  UNL     1      23.784  -1.063  54.923  1.00  0.00    -0.240 NA
HETATM    8  C20 UNL     1      24.958  -0.724  54.420  1.00  0.00     0.149 C 
ENDROOT
BRANCH   4   9
HETATM    9  N3  UNL     1      21.117   1.547  52.455  1.00  0.00    -0.379 N 
HETATM   10  H18 UNL     1      20.192   1.777  52.881  1.00  0.00     0.160 HD
BRANCH   9  11
HETATM   11  C12 UNL     1      21.264   1.812  51.065  1.00  0.00     0.030 A 
HETATM   12  C13 UNL     1      21.297   0.811  50.115  1.00  0.00     0.032 A 
HETATM   13  C14 UNL     1      21.448   1.072  48.775  1.00  0.00     0.046 A 
HETATM   14  C15 UNL     1      21.574   2.376  48.318  1.00  0.00     0.138 A 
HETATM   15  F1  UNL     1      21.724   2.665  46.995  1.00  0.00    -0.204 F 
HETATM   16  C16 UNL     1      21.547   3.394  49.224  1.00  0.00     0.074 A 
HETATM   17 CL1  UNL     1      21.704   5.050  48.648  1.00  0.00    -0.081 Cl
HETATM   18  C17 UNL     1      21.395   3.109  50.565  1.00  0.00     0.056 A 
ENDBRANCH   9  11
ENDBRANCH   4   9
BRANCH   2  19
HETATM   19  C5  UNL     1      25.639   1.637  51.817  1.00  0.00     0.005 C 
HETATM   20  C6  UNL     1      25.691   2.483  50.815  1.00  0.00    -0.007 C 
BRANCH  20  21
HETATM   21  C7  UNL     1      26.726   3.326  50.166  1.00  0.00     0.151 C 
BRANCH  21  22
HETATM   22  N2  UNL     1      26.157   4.584  49.783  1.00  0.00    -0.360 N 
HETATM   23  C8  UNL     1      24.949   5.153  50.322  1.00  0.00     0.152 C 
BRANCH  22  24
HETATM   24  C9  UNL     1      26.840   5.329  48.787  1.00  0.00     0.350 C 
HETATM   25  O1  UNL     1      27.997   4.917  48.463  1.00  0.00    -0.284 OA
ENDBRANCH  22  24
ENDBRANCH  21  22
ENDBRANCH  20  21
ENDBRANCH   2  19
BRANCH   1  26
HETATM   26  C2  UNL     1      26.710  -0.775  52.593  1.00  0.00     0.131 C 
BRANCH  26  27
HETATM   27  N1  UNL     1      27.622  -1.182  53.589  1.00  0.00    -0.424 N 
HETATM   28  C1  UNL     1      28.867  -0.583  53.782  1.00  0.00     0.139 C 
HETATM   29  H4  UNL     1      27.138  -1.331  54.494  1.00  0.00     0.152 HD
ENDBRANCH  26  27
ENDBRANCH   1  26
BRANCH   8  30
HETATM   30  O2  UNL     1      25.740  -0.587  55.546  1.00  0.00    -0.342 OA
HETATM   31  C21 UNL     1      25.193  -0.945  56.814  1.00  0.00     0.211 C 
ENDBRANCH   8  30
TORSDOF 9
ENDMDL
MODEL 6
REMARK VINA RESULT:      -7.1      4.425      8.243
REMARK  9 active torsions:
REMARK  status: ('A' for Active; 'I' for Inactive)
REMARK    1  A    between atoms: N1_2  and  C2_3 
REMARK    2  A    between atoms: C2_3  and  C3_4 
REMARK    3  A    between atoms: C4_5  and  C5_6 
REMARK    4  A    between atoms: C6_7  and  C7_8 
REMARK    5  A    between atoms: C7_8  and  N2_9 
REMARK    6  A    between atoms: N2_9  and  C9_11 
REMARK    7  A    between atoms: C11_14  and  N3_15 
REMARK    8  A    between atoms: N3_15  and  C12_16 
REMARK    9  A    between atoms: C20_27  and  O2_28 
ROOT
HETATM    1  C3  UNL     1      25.044   4.862  49.194  1.00  0.00     0.112 C 
HETATM    2  C4  UNL     1      26.412   4.309  49.453  1.00  0.00    -0.046 C 
HETATM    3  C10 UNL     1      27.541   4.897  49.080  1.00  0.00     0.010 C 
HETATM    4  C11 UNL     1      28.297   5.981  48.444  1.00  0.00     0.130 C 
HETATM    5  C18 UNL     1      27.496   6.868  47.554  1.00  0.00     0.021 C 
HETATM    6  C19 UNL     1      26.305   7.490  47.729  1.00  0.00     0.117 C 
HETATM    7  N4  UNL     1      25.585   7.332  48.979  1.00  0.00    -0.240 NA
HETATM    8  C20 UNL     1      25.053   6.309  49.625  1.00  0.00     0.149 C 
ENDROOT
BRANCH   4   9
HETATM    9  N3  UNL     1      29.473   5.503  47.732  1.00  0.00    -0.379 N 
HETATM   10  H18 UNL     1      29.334   4.883  46.904  1.00  0.00     0.160 HD
BRANCH   9  11
HETATM   11  C12 UNL     1      30.818   5.816  48.077  1.00  0.00     0.030 A 
HETATM   12  C13 UNL     1      31.177   7.016  48.656  1.00  0.00     0.032 A 
HETATM   13  C14 UNL     1      32.478   7.317  48.979  1.00  0.00     0.046 A 
HETATM   14  C15 UNL     1      33.497   6.408  48.732  1.00  0.00     0.138 A 
HETATM   15  F1  UNL     1      34.796   6.679  49.043  1.00  0.00    -0.204 F 
HETATM   16  C16 UNL     1      33.184   5.212  48.161  1.00  0.00     0.074 A 
HETATM   17 CL1  UNL     1      34.474   4.055  47.848  1.00  0.00    -0.081 Cl
HETATM   18  C17 UNL     1      31.871   4.930  47.844  1.00  0.00     0.056 A 
ENDBRANCH   9  11
ENDBRANCH   4   9
BRANCH   2  19
HETATM   19  C5  UNL     1      26.460   3.058  50.142  1.00  0.00     0.005 C 
HETATM   20  C6  UNL     1      26.762   2.519  51.298  1.00  0.00    -0.007 C 
BRANCH  20  21
HETATM   21  C7  UNL     1      26.761   1.156  51.889  1.00  0.00     0.151 C 
BRANCH  21  22
HETATM   22  N2  UNL     1      27.510   1.156  53.110  1.00  0.00    -0.360 N 
HETATM   23  C8  UNL     1      27.576   0.066  54.050  1.00  0.00     0.152 C 
BRANCH  22  24
HETATM   24  C9  UNL     1      28.247   2.328  53.418  1.00  0.00     0.350 C 
HETATM   25  O1  UNL     1      28.881   2.328  54.519  1.00  0.00    -0.284 OA
ENDBRANCH  22  24
ENDBRANCH  21  22
ENDBRANCH  20  21
ENDBRANCH   2  19
BRANCH   1  26
HETATM   26  C2  UNL     1      23.930   4.041  49.689  1.00  0.00     0.131 C 
BRANCH  26  27
HETATM   27  N1  UNL     1      23.295   4.404  50.895  1.00  0.00    -0.424 N 
HETATM   28  C1  UNL     1      23.245   3.576  52.017  1.00  0.00     0.139 C 
HETATM   29  H4  UNL     1      23.537   5.377  51.162  1.00  0.00     0.152 HD
ENDBRANCH  26  27
ENDBRANCH   1  26
BRANCH   8  30
HETATM   30  O2  UNL     1      24.536   6.903  50.755  1.00  0.00    -0.342 OA
HETATM   31  C21 UNL     1      23.635   8.000  50.608  1.00  0.00     0.211 C 
ENDBRANCH   8  30
TORSDOF 9
ENDMDL
MODEL 7
REMARK VINA RESULT:      -7.0      3.665      5.335
REMARK  9 active torsions:
REMARK  status: ('A' for Active; 'I' for Inactive)
REMARK    1  A    between atoms: N1_2  and  C2_3 
REMARK    2  A    between atoms: C2_3  and  C3_4 
REMARK    3  A    between atoms: C4_5  and  C5_6 
REMARK    4  A    between atoms: C6_7  and  C7_8 
REMARK    5  A    between atoms: C7_8  and  N2_9 
REMARK    6  A    between atoms: N2_9  and  C9_11 
REMARK    7  A    between atoms: C11_14  and  N3_15 
REMARK    8  A    between atoms: N3_15  and  C12_16 
REMARK    9  A    between atoms: C20_27  and  O2_28 
ROOT
HETATM    1  C3  UNL     1      24.664   5.896  49.124  1.00  0.00     0.112 C 
HETATM    2  C4  UNL     1      25.905   5.088  49.348  1.00  0.00    -0.046 C 
HETATM    3  C10 UNL     1      25.980   4.036  50.151  1.00  0.00     0.010 C 
HETATM    4  C11 UNL     1      25.402   3.077  51.099  1.00  0.00     0.130 C 
HETATM    5  C18 UNL     1      24.100   3.487  51.694  1.00  0.00     0.021 C 
HETATM    6  C19 UNL     1      22.964   3.974  51.139  1.00  0.00     0.117 C 
HETATM    7  N4  UNL     1      22.891   4.176  49.703  1.00  0.00    -0.240 NA
HETATM    8  C20 UNL     1      23.542   4.929  48.834  1.00  0.00     0.149 C 
ENDROOT
BRANCH   4   9
HETATM    9  N3  UNL     1      26.331   2.705  52.157  1.00  0.00    -0.379 N 
HETATM   10  H18 UNL     1      26.684   3.453  52.792  1.00  0.00     0.160 HD
BRANCH   9  11
HETATM   11  C12 UNL     1      26.801   1.384  52.400  1.00  0.00     0.030 A 
HETATM   12  C13 UNL     1      26.027   0.264  52.174  1.00  0.00     0.032 A 
HETATM   13  C14 UNL     1      26.483  -1.008  52.419  1.00  0.00     0.046 A 
HETATM   14  C15 UNL     1      27.764  -1.219  52.911  1.00  0.00     0.138 A 
HETATM   15  F1  UNL     1      28.243  -2.469  53.162  1.00  0.00    -0.204 F 
HETATM   16  C16 UNL     1      28.561  -0.139  53.147  1.00  0.00     0.074 A 
HETATM   17 CL1  UNL     1      30.187  -0.402  53.768  1.00  0.00    -0.081 Cl
HETATM   18  C17 UNL     1      28.082   1.131  52.895  1.00  0.00     0.056 A 
ENDBRANCH   9  11
ENDBRANCH   4   9
BRANCH   2  19
HETATM   19  C5  UNL     1      27.067   5.519  48.635  1.00  0.00     0.005 C 
HETATM   20  C6  UNL     1      28.366   5.349  48.565  1.00  0.00    -0.007 C 
BRANCH  20  21
HETATM   21  C7  UNL     1      29.482   5.884  47.744  1.00  0.00     0.151 C 
BRANCH  21  22
HETATM   22  N2  UNL     1      30.401   6.598  48.582  1.00  0.00    -0.360 N 
HETATM   23  C8  UNL     1      31.525   6.019  49.271  1.00  0.00     0.152 C 
BRANCH  22  24
HETATM   24  C9  UNL     1      30.181   7.989  48.746  1.00  0.00     0.350 C 
HETATM   25  O1  UNL     1      31.024   8.618  49.459  1.00  0.00    -0.284 OA
ENDBRANCH  22  24
ENDBRANCH  21  22
ENDBRANCH  20  21
ENDBRANCH   2  19
BRANCH   1  26
HETATM   26  C2  UNL     1      24.808   7.026  48.195  1.00  0.00     0.131 C 
BRANCH  26  27
HETATM   27  N1  UNL     1      23.724   7.369  47.359  1.00  0.00    -0.424 N 
HETATM   28  C1  UNL     1      22.835   8.407  47.642  1.00  0.00     0.139 C 
HETATM   29  H4  UNL     1      24.017   7.391  46.365  1.00  0.00     0.152 HD
ENDBRANCH  26  27
ENDBRANCH   1  26
BRANCH   8  30
HETATM   30  O2  UNL     1      22.941   4.596  47.639  1.00  0.00    -0.342 OA
HETATM   31  C21 UNL     1      21.525   4.419  47.604  1.00  0.00     0.211 C 
ENDBRANCH   8  30
TORSDOF 9
ENDMDL
MODEL 8
REMARK VINA RESULT:      -6.9      3.789      7.197
REMARK  9 active torsions:
REMARK  status: ('A' for Active; 'I' for Inactive)
REMARK    1  A    between atoms: N1_2  and  C2_3 
REMARK    2  A    between atoms: C2_3  and  C3_4 
REMARK    3  A    between atoms: C4_5  and  C5_6 
REMARK    4  A    between atoms: C6_7  and  C7_8 
REMARK    5  A    between atoms: C7_8  and  N2_9 
REMARK    6  A    between atoms: N2_9  and  C9_11 
REMARK    7  A    between atoms: C11_14  and  N3_15 
REMARK    8  A    between atoms: N3_15  and  C12_16 
REMARK    9  A    between atoms: C20_27  and  O2_28 
ROOT
HETATM    1  C3  UNL     1      24.118   2.218  51.120  1.00  0.00     0.112 C 
HETATM    2  C4  UNL     1      25.604   2.412  51.153  1.00  0.00    -0.046 C 
HETATM    3  C10 UNL     1      26.250   3.363  50.492  1.00  0.00     0.010 C 
HETATM    4  C11 UNL     1      26.300   4.522  49.594  1.00  0.00     0.130 C 
HETATM    5  C18 UNL     1      25.066   4.750  48.793  1.00  0.00     0.021 C 
HETATM    6  C19 UNL     1      23.755   4.783  49.137  1.00  0.00     0.117 C 
HETATM    7  N4  UNL     1      23.366   4.565  50.519  1.00  0.00    -0.240 NA
HETATM    8  C20 UNL     1      23.481   3.564  51.372  1.00  0.00     0.149 C 
ENDROOT
BRANCH   4   9
HETATM    9  N3  UNL     1      27.460   4.501  48.715  1.00  0.00    -0.379 N 
HETATM   10  H18 UNL     1      27.727   3.597  48.267  1.00  0.00     0.160 HD
BRANCH   9  11
HETATM   11  C12 UNL     1      28.272   5.629  48.411  1.00  0.00     0.030 A 
HETATM   12  C13 UNL     1      29.610   5.519  48.091  1.00  0.00     0.032 A 
HETATM   13  C14 UNL     1      30.391   6.613  47.806  1.00  0.00     0.046 A 
HETATM   14  C15 UNL     1      29.854   7.892  47.829  1.00  0.00     0.138 A 
HETATM   15  F1  UNL     1      30.604   8.995  47.551  1.00  0.00    -0.204 F 
HETATM   16  C16 UNL     1      28.536   8.044  48.141  1.00  0.00     0.074 A 
HETATM   17 CL1  UNL     1      27.850   9.665  48.169  1.00  0.00    -0.081 Cl
HETATM   18  C17 UNL     1      27.770   6.932  48.425  1.00  0.00     0.056 A 
ENDBRANCH   9  11
ENDBRANCH   4   9
BRANCH   2  19
HETATM   19  C5  UNL     1      26.337   1.484  51.956  1.00  0.00     0.005 C 
HETATM   20  C6  UNL     1      26.791   0.254  51.969  1.00  0.00    -0.007 C 
BRANCH  20  21
HETATM   21  C7  UNL     1      27.564  -0.602  52.905  1.00  0.00     0.151 C 
BRANCH  21  22
HETATM   22  N2  UNL     1      27.520  -0.042  54.223  1.00  0.00    -0.360 N 
HETATM   23  C8  UNL     1      26.351   0.031  55.061  1.00  0.00     0.152 C 
BRANCH  22  24
HETATM   24  C9  UNL     1      28.729   0.487  54.743  1.00  0.00     0.350 C 
HETATM   25  O1  UNL     1      28.880   1.745  54.664  1.00  0.00    -0.284 OA
ENDBRANCH  22  24
ENDBRANCH  21  22
ENDBRANCH  20  21
ENDBRANCH   2  19
BRANCH   1  26
HETATM   26  C2  UNL     1      23.613   1.096  51.924  1.00  0.00     0.131 C 
BRANCH  26  27
HETATM   27  N1  UNL     1      22.222   0.962  52.114  1.00  0.00    -0.424 N 
HETATM   28  C1  UNL     1      21.634   0.755  53.363  1.00  0.00     0.139 C 
HETATM   29  H4  UNL     1      21.704   1.681  51.575  1.00  0.00     0.152 HD
ENDBRANCH  26  27
ENDBRANCH   1  26
BRANCH   8  30
HETATM   30  O2  UNL     1      22.889   4.068  52.509  1.00  0.00    -0.342 OA
HETATM   31  C21 UNL     1      21.535   4.513  52.443  1.00  0.00     0.211 C 
ENDBRANCH   8  30
TORSDOF 9
ENDMDL
MODEL 9
REMARK VINA RESULT:      -6.9      3.485      7.256
REMARK  9 active torsions:
REMARK  status: ('A' for Active; 'I' for Inactive)
REMARK    1  A    between atoms: N1_2  and  C2_3 
REMARK    2  A    between atoms: C2_3  and  C3_4 
REMARK    3  A    between atoms: C4_5  and  C5_6 
REMARK    4  A    between atoms: C6_7  and  C7_8 
REMARK    5  A    between atoms: C7_8  and  N2_9 
REMARK    6  A    between atoms: N2_9  and  C9_11 
REMARK    7  A    between atoms: C11_14  and  N3_15 
REMARK    8  A    between atoms: N3_15  and  C12_16 
REMARK    9  A    between atoms: C20_27  and  O2_28 
ROOT
HETATM    1  C3  UNL     1      25.272  -0.046  53.926  1.00  0.00     0.112 C 
HETATM    2  C4  UNL     1      24.690   0.610  52.712  1.00  0.00    -0.046 C 
HETATM    3  C10 UNL     1      25.354   1.437  51.916  1.00  0.00     0.010 C 
HETATM    4  C11 UNL     1      26.555   2.179  51.519  1.00  0.00     0.130 C 
HETATM    5  C18 UNL     1      27.603   2.291  52.572  1.00  0.00     0.021 C 
HETATM    6  C19 UNL     1      28.162   1.370  53.394  1.00  0.00     0.117 C 
HETATM    7  N4  UNL     1      27.736  -0.016  53.322  1.00  0.00    -0.240 NA
HETATM    8  C20 UNL     1      26.595  -0.651  53.522  1.00  0.00     0.149 C 
ENDROOT
BRANCH   4   9
HETATM    9  N3  UNL     1      26.249   3.500  50.988  1.00  0.00    -0.379 N 
HETATM   10  H18 UNL     1      27.040   4.154  50.798  1.00  0.00     0.160 HD
BRANCH   9  11
HETATM   11  C12 UNL     1      24.940   3.978  50.699  1.00  0.00     0.030 A 
HETATM   12  C13 UNL     1      24.077   4.422  51.680  1.00  0.00     0.032 A 
HETATM   13  C14 UNL     1      22.812   4.875  51.397  1.00  0.00     0.046 A 
HETATM   14  C15 UNL     1      22.346   4.904  50.090  1.00  0.00     0.138 A 
HETATM   15  F1  UNL     1      21.096   5.349  49.779  1.00  0.00    -0.204 F 
HETATM   16  C16 UNL     1      23.168   4.474  49.092  1.00  0.00     0.074 A 
HETATM   17 CL1  UNL     1      22.582   4.512  47.432  1.00  0.00    -0.081 Cl
HETATM   18  C17 UNL     1      24.435   4.022  49.399  1.00  0.00     0.056 A 
ENDBRANCH   9  11
ENDBRANCH   4   9
BRANCH   2  19
HETATM   19  C5  UNL     1      23.321   0.306  52.434  1.00  0.00     0.005 C 
HETATM   20  C6  UNL     1      22.249   0.781  51.847  1.00  0.00    -0.007 C 
BRANCH  20  21
HETATM   21  C7  UNL     1      20.849   0.336  51.631  1.00  0.00     0.151 C 
BRANCH  21  22
HETATM   22  N2  UNL     1      20.371   0.833  50.374  1.00  0.00    -0.360 N 
HETATM   23  C8  UNL     1      18.990   1.075  50.042  1.00  0.00     0.152 C 
BRANCH  22  24
HETATM   24  C9  UNL     1      21.339   1.108  49.375  1.00  0.00     0.350 C 
HETATM   25  O1  UNL     1      20.918   1.660  48.311  1.00  0.00    -0.284 OA
ENDBRANCH  22  24
ENDBRANCH  21  22
ENDBRANCH  20  21
ENDBRANCH   2  19
BRANCH   1  26
HETATM   26  C2  UNL     1      24.354  -0.922  54.669  1.00  0.00     0.131 C 
BRANCH  26  27
HETATM   27  N1  UNL     1      24.814  -1.562  55.839  1.00  0.00    -0.424 N 
HETATM   28  C1  UNL     1      25.225  -0.872  56.980  1.00  0.00     0.139 C 
HETATM   29  H4  UNL     1      24.201  -2.360  56.088  1.00  0.00     0.152 HD
ENDBRANCH  26  27
ENDBRANCH   1  26
BRANCH   8  30
HETATM   30  O2  UNL     1      26.932  -1.962  53.264  1.00  0.00    -0.342 OA
HETATM   31  C21 UNL     1      28.274  -2.269  52.889  1.00  0.00     0.211 C 
ENDBRANCH   8  30
TORSDOF 9
ENDMDL
