MODEL 1
REMARK VINA RESULT:      -8.8      0.000      0.000
REMARK  3 active torsions:
REMARK  status: ('A' for Active; 'I' for Inactive)
REMARK    1  A    between atoms: O1_2  and  C2_3 
REMARK    2  A    between atoms: C9_12  and  N3_13 
REMARK    3  A    between atoms: N3_13  and  C10_14 
ROOT
HETATM    1  C2  UNL     1      22.186  -0.515  53.285  1.00  0.00     0.069 A 
HETATM    2  C3  UNL     1      22.354  -1.228  54.448  1.00  0.00     0.039 A 
HETATM    3  C4  UNL     1      23.543  -1.245  55.135  1.00  0.00     0.035 A 
HETATM    4  C5  UNL     1      24.554  -0.503  54.582  1.00  0.00     0.069 A 
HETATM    5  N1  UNL     1      25.721  -0.520  55.221  1.00  0.00    -0.259 NA
HETATM    6  C6  UNL     1      26.815   0.127  54.831  1.00  0.00     0.142 A 
HETATM    7  C7  UNL     1      26.686   0.847  53.683  1.00  0.00     0.089 A 
HETATM    8  C8  UNL     1      27.852   1.596  53.262  1.00  0.00     0.103 C 
HETATM    9  N2  UNL     1      28.772   2.199  52.947  1.00  0.00    -0.191 NA
HETATM   10  C9  UNL     1      25.586   0.993  52.884  1.00  0.00     0.068 A 
HETATM   11  C17 UNL     1      24.513   0.249  53.436  1.00  0.00     0.024 A 
HETATM   12  C18 UNL     1      23.261   0.219  52.785  1.00  0.00     0.053 A 
ENDROOT
BRANCH  10  13
HETATM   13  N3  UNL     1      25.248   1.639  51.714  1.00  0.00    -0.353 N 
HETATM   14  H7  UNL     1      24.947   0.972  50.937  1.00  0.00     0.166 HD
BRANCH  13  15
HETATM   15  C10 UNL     1      25.153   2.857  51.018  1.00  0.00     0.057 A 
HETATM   16  C11 UNL     1      26.343   3.138  50.359  1.00  0.00     0.069 A 
HETATM   17  C12 UNL     1      26.730   4.191  49.601  1.00  0.00     0.092 A 
HETATM   18  O2  UNL     1      27.662   4.669  48.932  1.00  0.00    -0.354 OA
HETATM   19  C14 UNL     1      25.686   5.143  49.503  1.00  0.00     0.069 A 
HETATM   20  C13 UNL     1      28.705   5.099  48.243  1.00  0.00     0.210 C 
HETATM   21 CL1  UNL     1      25.678   6.690  48.626  1.00  0.00    -0.081 Cl
HETATM   22  C15 UNL     1      24.428   4.970  50.132  1.00  0.00     0.052 A 
HETATM   23  C16 UNL     1      24.214   3.838  50.864  1.00  0.00     0.062 A 
HETATM   24 CL2  UNL     1      22.744   3.589  51.748  1.00  0.00    -0.082 Cl
ENDBRANCH  13  15
ENDBRANCH  10  13
BRANCH   1  25
HETATM   25  O1  UNL     1      21.021  -0.483  52.581  1.00  0.00    -0.356 OA
HETATM   26  C1  UNL     1      19.754  -0.097  52.956  1.00  0.00     0.210 C 
ENDBRANCH   1  25
TORSDOF 3
ENDMDL
MODEL 2
REMARK VINA RESULT:      -8.8      3.481      5.628
REMARK  3 active torsions:
REMARK  status: ('A' for Active; 'I' for Inactive)
REMARK    1  A    between atoms: O1_2  and  C2_3 
REMARK    2  A    between atoms: C9_12  and  N3_13 
REMARK    3  A    between atoms: N3_13  and  C10_14 
ROOT
HETATM    1  C2  UNL     1      21.391   1.633  49.526  1.00  0.00     0.069 A 
HETATM    2  C3  UNL     1      20.024   1.562  49.640  1.00  0.00     0.039 A 
HETATM    3  C4  UNL     1      19.405   0.985  50.721  1.00  0.00     0.035 A 
HETATM    4  C5  UNL     1      20.243   0.484  51.682  1.00  0.00     0.069 A 
HETATM    5  N1  UNL     1      19.665  -0.096  52.731  1.00  0.00    -0.259 NA
HETATM    6  C6  UNL     1      20.314  -0.647  53.752  1.00  0.00     0.142 A 
HETATM    7  C7  UNL     1      21.672  -0.593  53.677  1.00  0.00     0.089 A 
HETATM    8  C8  UNL     1      22.399  -1.147  54.800  1.00  0.00     0.103 C 
HETATM    9  N2  UNL     1      22.965  -1.572  55.699  1.00  0.00    -0.191 NA
HETATM   10  C9  UNL     1      22.452  -0.049  52.694  1.00  0.00     0.068 A 
HETATM   11  C17 UNL     1      21.615   0.494  51.688  1.00  0.00     0.024 A 
HETATM   12  C18 UNL     1      22.180   1.103  50.546  1.00  0.00     0.053 A 
ENDROOT
BRANCH  10  13
HETATM   13  N3  UNL     1      23.795   0.101  52.418  1.00  0.00    -0.353 N 
HETATM   14  H7  UNL     1      24.087  -0.354  51.497  1.00  0.00     0.166 HD
BRANCH  13  15
HETATM   15  C10 UNL     1      25.047   0.576  52.845  1.00  0.00     0.057 A 
HETATM   16  C11 UNL     1      25.982  -0.452  52.854  1.00  0.00     0.069 A 
HETATM   17  C12 UNL     1      27.287  -0.483  53.214  1.00  0.00     0.092 A 
HETATM   18  O2  UNL     1      28.293  -1.205  53.312  1.00  0.00    -0.354 OA
HETATM   19  C14 UNL     1      27.713   0.796  53.651  1.00  0.00     0.069 A 
HETATM   20  C13 UNL     1      29.310  -2.047  53.383  1.00  0.00     0.210 C 
HETATM   21 CL1  UNL     1      29.323   1.291  54.221  1.00  0.00    -0.081 Cl
HETATM   22  C15 UNL     1      26.852   1.920  53.688  1.00  0.00     0.052 A 
HETATM   23  C16 UNL     1      25.556   1.764  53.287  1.00  0.00     0.062 A 
HETATM   24 CL2  UNL     1      24.407   3.058  53.394  1.00  0.00    -0.082 Cl
ENDBRANCH  13  15
ENDBRANCH  10  13
BRANCH   1  25
HETATM   25  O1  UNL     1      22.032   2.195  48.464  1.00  0.00    -0.356 OA
HETATM   26  C1  UNL     1      21.547   2.932  47.408  1.00  0.00     0.210 C 
ENDBRANCH   1  25
TORSDOF 3
ENDMDL
MODEL 3
REMARK VINA RESULT:      -8.6      2.188      6.109
REMARK  3 active torsions:
REMARK  status: ('A' for Active; 'I' for Inactive)
REMARK    1  A    between atoms: O1_2  and  C2_3 
REMARK    2  A    between atoms: C9_12  and  N3_13 
REMARK    3  A    between atoms: N3_13  and  C10_14 
ROOT
HETATM    1  C2  UNL     1      26.936   1.969  52.212  1.00  0.00     0.069 A 
HETATM    2  C3  UNL     1      27.908   1.527  53.077  1.00  0.00     0.039 A 
HETATM    3  C4  UNL     1      27.644   0.633  54.086  1.00  0.00     0.035 A 
HETATM    4  C5  UNL     1      26.343   0.211  54.174  1.00  0.00     0.069 A 
HETATM    5  N1  UNL     1      26.061  -0.642  55.155  1.00  0.00    -0.259 NA
HETATM    6  C6  UNL     1      24.857  -1.150  55.402  1.00  0.00     0.142 A 
HETATM    7  C7  UNL     1      23.868  -0.737  54.563  1.00  0.00     0.089 A 
HETATM    8  C8  UNL     1      22.557  -1.312  54.786  1.00  0.00     0.103 C 
HETATM    9  N2  UNL     1      21.529  -1.785  54.957  1.00  0.00    -0.191 NA
HETATM   10  C9  UNL     1      23.948   0.125  53.505  1.00  0.00     0.068 A 
HETATM   11  C17 UNL     1      25.288   0.572  53.376  1.00  0.00     0.024 A 
HETATM   12  C18 UNL     1      25.634   1.492  52.362  1.00  0.00     0.053 A 
ENDROOT
BRANCH  10  13
HETATM   13  N3  UNL     1      23.104   0.673  52.563  1.00  0.00    -0.353 N 
HETATM   14  H7  UNL     1      23.474   0.584  51.565  1.00  0.00     0.166 HD
BRANCH  13  15
HETATM   15  C10 UNL     1      21.917   1.380  52.304  1.00  0.00     0.057 A 
HETATM   16  C11 UNL     1      20.862   0.502  52.087  1.00  0.00     0.069 A 
HETATM   17  C12 UNL     1      19.561   0.712  51.778  1.00  0.00     0.092 A 
HETATM   18  O2  UNL     1      18.473   0.158  51.548  1.00  0.00    -0.354 OA
HETATM   19  C14 UNL     1      19.292   2.098  51.669  1.00  0.00     0.069 A 
HETATM   20  C13 UNL     1      17.359  -0.517  51.318  1.00  0.00     0.210 C 
HETATM   21 CL1  UNL     1      17.752   2.901  51.290  1.00  0.00    -0.081 Cl
HETATM   22  C15 UNL     1      20.285   3.090  51.866  1.00  0.00     0.052 A 
HETATM   23  C16 UNL     1      21.555   2.692  52.173  1.00  0.00     0.062 A 
HETATM   24 CL2  UNL     1      22.853   3.829  52.332  1.00  0.00    -0.082 Cl
ENDBRANCH  13  15
ENDBRANCH  10  13
BRANCH   1  25
HETATM   25  O1  UNL     1      27.168   2.857  51.207  1.00  0.00    -0.356 OA
HETATM   26  C1  UNL     1      26.384   3.231  50.138  1.00  0.00     0.210 C 
ENDBRANCH   1  25
TORSDOF 3
ENDMDL
MODEL 4
REMARK VINA RESULT:      -8.2      2.060      2.764
REMARK  3 active torsions:
REMARK  status: ('A' for Active; 'I' for Inactive)
REMARK    1  A    between atoms: O1_2  and  C2_3 
REMARK    2  A    between atoms: C9_12  and  N3_13 
REMARK    3  A    between atoms: N3_13  and  C10_14 
ROOT
HETATM    1  C2  UNL     1      21.596   0.905  53.120  1.00  0.00     0.069 A 
HETATM    2  C3  UNL     1      21.730  -0.371  53.613  1.00  0.00     0.039 A 
HETATM    3  C4  UNL     1      22.956  -0.933  53.874  1.00  0.00     0.035 A 
HETATM    4  C5  UNL     1      24.039  -0.136  53.609  1.00  0.00     0.069 A 
HETATM    5  N1  UNL     1      25.237  -0.667  53.837  1.00  0.00    -0.259 NA
HETATM    6  C6  UNL     1      26.397  -0.052  53.629  1.00  0.00     0.142 A 
HETATM    7  C7  UNL     1      26.304   1.217  53.144  1.00  0.00     0.089 A 
HETATM    8  C8  UNL     1      27.554   1.923  52.952  1.00  0.00     0.103 C 
HETATM    9  N2  UNL     1      28.545   2.479  52.820  1.00  0.00    -0.191 NA
HETATM   10  C9  UNL     1      25.182   1.937  52.844  1.00  0.00     0.068 A 
HETATM   11  C17 UNL     1      24.038   1.146  53.121  1.00  0.00     0.024 A 
HETATM   12  C18 UNL     1      22.745   1.657  52.878  1.00  0.00     0.053 A 
ENDROOT
BRANCH  10  13
HETATM   13  N3  UNL     1      24.867   3.184  52.348  1.00  0.00    -0.353 N 
HETATM   14  H7  UNL     1      24.548   3.869  53.104  1.00  0.00     0.166 HD
BRANCH  13  15
HETATM   15  C10 UNL     1      24.724   4.010  51.219  1.00  0.00     0.057 A 
HETATM   16  C11 UNL     1      23.668   4.895  51.391  1.00  0.00     0.069 A 
HETATM   17  C12 UNL     1      23.141   5.842  50.579  1.00  0.00     0.092 A 
HETATM   18  O2  UNL     1      22.266   6.719  50.481  1.00  0.00    -0.354 OA
HETATM   19  C14 UNL     1      23.838   5.885  49.347  1.00  0.00     0.069 A 
HETATM   20  C13 UNL     1      21.307   7.629  50.467  1.00  0.00     0.210 C 
HETATM   21 CL1  UNL     1      23.550   6.945  47.949  1.00  0.00    -0.081 Cl
HETATM   22  C15 UNL     1      24.930   5.031  49.053  1.00  0.00     0.052 A 
HETATM   23  C16 UNL     1      25.326   4.128  49.998  1.00  0.00     0.062 A 
HETATM   24 CL2  UNL     1      26.586   2.979  49.688  1.00  0.00    -0.082 Cl
ENDBRANCH  13  15
ENDBRANCH  10  13
BRANCH   1  25
HETATM   25  O1  UNL     1      20.395   1.486  52.848  1.00  0.00    -0.356 OA
HETATM   26  C1  UNL     1      19.559   1.358  51.762  1.00  0.00     0.210 C 
ENDBRANCH   1  25
TORSDOF 3
ENDMDL
MODEL 5
REMARK VINA RESULT:      -8.1      2.710      5.228
REMARK  3 active torsions:
REMARK  status: ('A' for Active; 'I' for Inactive)
REMARK    1  A    between atoms: O1_2  and  C2_3 
REMARK    2  A    between atoms: C9_12  and  N3_13 
REMARK    3  A    between atoms: N3_13  and  C10_14 
ROOT
HETATM    1  C2  UNL     1      26.921   1.972  52.211  1.00  0.00     0.069 A 
HETATM    2  C3  UNL     1      27.869   1.608  53.136  1.00  0.00     0.039 A 
HETATM    3  C4  UNL     1      27.589   0.762  54.181  1.00  0.00     0.035 A 
HETATM    4  C5  UNL     1      26.299   0.304  54.241  1.00  0.00     0.069 A 
HETATM    5  N1  UNL     1      26.001  -0.503  55.256  1.00  0.00    -0.259 NA
HETATM    6  C6  UNL     1      24.804  -1.034  55.484  1.00  0.00     0.142 A 
HETATM    7  C7  UNL     1      23.838  -0.698  54.585  1.00  0.00     0.089 A 
HETATM    8  C8  UNL     1      22.537  -1.300  54.787  1.00  0.00     0.103 C 
HETATM    9  N2  UNL     1      21.517  -1.794  54.944  1.00  0.00    -0.191 NA
HETATM   10  C9  UNL     1      23.937   0.109  53.485  1.00  0.00     0.068 A 
HETATM   11  C17 UNL     1      25.267   0.589  53.384  1.00  0.00     0.024 A 
HETATM   12  C18 UNL     1      25.628   1.464  52.336  1.00  0.00     0.053 A 
ENDROOT
BRANCH  10  13
HETATM   13  N3  UNL     1      23.116   0.579  52.482  1.00  0.00    -0.353 N 
HETATM   14  H7  UNL     1      23.434   0.284  51.506  1.00  0.00     0.166 HD
BRANCH  13  15
HETATM   15  C10 UNL     1      21.999   1.358  52.132  1.00  0.00     0.057 A 
HETATM   16  C11 UNL     1      22.373   2.679  51.917  1.00  0.00     0.069 A 
HETATM   17  C12 UNL     1      21.653   3.780  51.597  1.00  0.00     0.092 A 
HETATM   18  O2  UNL     1      21.719   4.997  51.355  1.00  0.00    -0.354 OA
HETATM   19  C14 UNL     1      20.279   3.459  51.475  1.00  0.00     0.069 A 
HETATM   20  C13 UNL     1      21.885   6.286  51.112  1.00  0.00     0.210 C 
HETATM   21 CL1  UNL     1      18.923   4.534  51.067  1.00  0.00    -0.081 Cl
HETATM   22  C15 UNL     1      19.777   2.148  51.672  1.00  0.00     0.052 A 
HETATM   23  C16 UNL     1      20.655   1.154  51.994  1.00  0.00     0.062 A 
HETATM   24 CL2  UNL     1      20.119  -0.455  52.350  1.00  0.00    -0.082 Cl
ENDBRANCH  13  15
ENDBRANCH  10  13
BRANCH   1  25
HETATM   25  O1  UNL     1      27.167   2.812  51.168  1.00  0.00    -0.356 OA
HETATM   26  C1  UNL     1      26.357   3.226  50.136  1.00  0.00     0.210 C 
ENDBRANCH   1  25
TORSDOF 3
ENDMDL
MODEL 6
REMARK VINA RESULT:      -8.1      2.380      2.813
REMARK  3 active torsions:
REMARK  status: ('A' for Active; 'I' for Inactive)
REMARK    1  A    between atoms: O1_2  and  C2_3 
REMARK    2  A    between atoms: C9_12  and  N3_13 
REMARK    3  A    between atoms: N3_13  and  C10_14 
ROOT
HETATM    1  C2  UNL     1      21.018  -0.326  53.707  1.00  0.00     0.069 A 
HETATM    2  C3  UNL     1      21.654  -1.188  54.568  1.00  0.00     0.039 A 
HETATM    3  C4  UNL     1      23.022  -1.246  54.672  1.00  0.00     0.035 A 
HETATM    4  C5  UNL     1      23.712  -0.387  53.859  1.00  0.00     0.069 A 
HETATM    5  N1  UNL     1      25.040  -0.438  53.931  1.00  0.00    -0.259 NA
HETATM    6  C6  UNL     1      25.874   0.308  53.213  1.00  0.00     0.142 A 
HETATM    7  C7  UNL     1      25.279   1.177  52.350  1.00  0.00     0.089 A 
HETATM    8  C8  UNL     1      26.167   2.033  51.590  1.00  0.00     0.103 C 
HETATM    9  N2  UNL     1      26.875   2.717  51.006  1.00  0.00    -0.191 NA
HETATM   10  C9  UNL     1      23.946   1.383  52.126  1.00  0.00     0.068 A 
HETATM   11  C17 UNL     1      23.199   0.518  52.965  1.00  0.00     0.024 A 
HETATM   12  C18 UNL     1      21.788   0.522  52.912  1.00  0.00     0.053 A 
ENDROOT
BRANCH  10  13
HETATM   13  N3  UNL     1      23.152   2.172  51.321  1.00  0.00    -0.353 N 
HETATM   14  H7  UNL     1      22.405   2.708  51.865  1.00  0.00     0.166 HD
BRANCH  13  15
HETATM   15  C10 UNL     1      22.830   2.589  50.018  1.00  0.00     0.057 A 
HETATM   16  C11 UNL     1      23.366   3.844  49.760  1.00  0.00     0.069 A 
HETATM   17  C12 UNL     1      23.296   4.651  48.674  1.00  0.00     0.092 A 
HETATM   18  O2  UNL     1      23.655   5.741  48.199  1.00  0.00    -0.354 OA
HETATM   19  C14 UNL     1      22.522   4.046  47.654  1.00  0.00     0.069 A 
HETATM   20  C13 UNL     1      24.084   6.918  47.775  1.00  0.00     0.210 C 
HETATM   21 CL1  UNL     1      22.130   4.680  46.040  1.00  0.00    -0.081 Cl
HETATM   22  C15 UNL     1      21.922   2.770  47.800  1.00  0.00     0.052 A 
HETATM   23  C16 UNL     1      22.098   2.096  48.974  1.00  0.00     0.062 A 
HETATM   24 CL2  UNL     1      21.321   0.577  49.278  1.00  0.00    -0.082 Cl
ENDBRANCH  13  15
ENDBRANCH  10  13
BRANCH   1  25
HETATM   25  O1  UNL     1      19.664  -0.250  53.579  1.00  0.00    -0.356 OA
HETATM   26  C1  UNL     1      18.868  -0.216  52.457  1.00  0.00     0.210 C 
ENDBRANCH   1  25
TORSDOF 3
ENDMDL
MODEL 7
REMARK VINA RESULT:      -8.1      3.264      5.180
REMARK  3 active torsions:
REMARK  status: ('A' for Active; 'I' for Inactive)
REMARK    1  A    between atoms: O1_2  and  C2_3 
REMARK    2  A    between atoms: C9_12  and  N3_13 
REMARK    3  A    between atoms: N3_13  and  C10_14 
ROOT
HETATM    1  C2  UNL     1      21.695  -1.067  54.274  1.00  0.00     0.069 A 
HETATM    2  C3  UNL     1      20.326  -0.986  54.192  1.00  0.00     0.039 A 
HETATM    3  C4  UNL     1      19.689  -0.278  53.203  1.00  0.00     0.035 A 
HETATM    4  C5  UNL     1      20.511   0.345  52.301  1.00  0.00     0.069 A 
HETATM    5  N1  UNL     1      19.915   1.052  51.344  1.00  0.00    -0.259 NA
HETATM    6  C6  UNL     1      20.546   1.732  50.391  1.00  0.00     0.142 A 
HETATM    7  C7  UNL     1      21.906   1.672  50.438  1.00  0.00     0.089 A 
HETATM    8  C8  UNL     1      22.614   2.368  49.383  1.00  0.00     0.103 C 
HETATM    9  N2  UNL     1      23.165   2.906  48.537  1.00  0.00    -0.191 NA
HETATM   10  C9  UNL     1      22.703   1.010  51.330  1.00  0.00     0.068 A 
HETATM   11  C17 UNL     1      21.882   0.340  52.272  1.00  0.00     0.024 A 
HETATM   12  C18 UNL     1      22.467  -0.408  53.317  1.00  0.00     0.053 A 
ENDROOT
BRANCH  10  13
HETATM   13  N3  UNL     1      24.049   0.830  51.564  1.00  0.00    -0.353 N 
HETATM   14  H7  UNL     1      24.500   0.122  50.903  1.00  0.00     0.166 HD
BRANCH  13  15
HETATM   15  C10 UNL     1      25.167   1.145  52.357  1.00  0.00     0.057 A 
HETATM   16  C11 UNL     1      26.090   0.107  52.334  1.00  0.00     0.069 A 
HETATM   17  C12 UNL     1      27.282  -0.056  52.956  1.00  0.00     0.092 A 
HETATM   18  O2  UNL     1      28.250  -0.821  53.104  1.00  0.00    -0.354 OA
HETATM   19  C14 UNL     1      27.581   1.070  53.761  1.00  0.00     0.069 A 
HETATM   20  C13 UNL     1      29.236  -1.695  53.201  1.00  0.00     0.210 C 
HETATM   21 CL1  UNL     1      29.015   1.358  54.773  1.00  0.00    -0.081 Cl
HETATM   22  C15 UNL     1      26.717   2.189  53.868  1.00  0.00     0.052 A 
HETATM   23  C16 UNL     1      25.547   2.180  53.164  1.00  0.00     0.062 A 
HETATM   24 CL2  UNL     1      24.386   3.458  53.311  1.00  0.00    -0.082 Cl
ENDBRANCH  13  15
ENDBRANCH  10  13
BRANCH   1  25
HETATM   25  O1  UNL     1      22.354  -1.757  55.245  1.00  0.00    -0.356 OA
HETATM   26  C1  UNL     1      23.616  -1.591  55.769  1.00  0.00     0.210 C 
ENDBRANCH   1  25
TORSDOF 3
ENDMDL
MODEL 8
REMARK VINA RESULT:      -8.1      2.435      2.904
REMARK  3 active torsions:
REMARK  status: ('A' for Active; 'I' for Inactive)
REMARK    1  A    between atoms: O1_2  and  C2_3 
REMARK    2  A    between atoms: C9_12  and  N3_13 
REMARK    3  A    between atoms: N3_13  and  C10_14 
ROOT
HETATM    1  C2  UNL     1      20.624  -0.494  53.191  1.00  0.00     0.069 A 
HETATM    2  C3  UNL     1      21.049  -1.245  54.261  1.00  0.00     0.039 A 
HETATM    3  C4  UNL     1      22.367  -1.301  54.643  1.00  0.00     0.035 A 
HETATM    4  C5  UNL     1      23.233  -0.556  53.885  1.00  0.00     0.069 A 
HETATM    5  N1  UNL     1      24.517  -0.610  54.227  1.00  0.00    -0.259 NA
HETATM    6  C6  UNL     1      25.500   0.033  53.604  1.00  0.00     0.142 A 
HETATM    7  C7  UNL     1      25.118   0.791  52.541  1.00  0.00     0.089 A 
HETATM    8  C8  UNL     1      26.165   1.536  51.874  1.00  0.00     0.103 C 
HETATM    9  N2  UNL     1      26.997   2.136  51.365  1.00  0.00    -0.191 NA
HETATM   10  C9  UNL     1      23.862   0.977  52.031  1.00  0.00     0.068 A 
HETATM   11  C17 UNL     1      22.936   0.232  52.803  1.00  0.00     0.024 A 
HETATM   12  C18 UNL     1      21.564   0.240  52.469  1.00  0.00     0.053 A 
ENDROOT
BRANCH  10  13
HETATM   13  N3  UNL     1      23.269   1.665  50.994  1.00  0.00    -0.353 N 
HETATM   14  H7  UNL     1      22.784   1.026  50.289  1.00  0.00     0.166 HD
BRANCH  13  15
HETATM   15  C10 UNL     1      23.032   2.906  50.376  1.00  0.00     0.057 A 
HETATM   16  C11 UNL     1      22.721   2.732  49.034  1.00  0.00     0.069 A 
HETATM   17  C12 UNL     1      22.452   3.619  48.046  1.00  0.00     0.092 A 
HETATM   18  O2  UNL     1      22.156   3.738  46.845  1.00  0.00    -0.354 OA
HETATM   19  C14 UNL     1      22.515   4.946  48.538  1.00  0.00     0.069 A 
HETATM   20  C13 UNL     1      21.844   3.768  45.561  1.00  0.00     0.210 C 
HETATM   21 CL1  UNL     1      22.240   6.467  47.659  1.00  0.00    -0.081 Cl
HETATM   22  C15 UNL     1      22.824   5.250  49.888  1.00  0.00     0.052 A 
HETATM   23  C16 UNL     1      23.072   4.220  50.749  1.00  0.00     0.062 A 
HETATM   24 CL2  UNL     1      23.555   4.501  52.390  1.00  0.00    -0.082 Cl
ENDBRANCH  13  15
ENDBRANCH  10  13
BRANCH   1  25
HETATM   25  O1  UNL     1      19.326  -0.424  52.787  1.00  0.00    -0.356 OA
HETATM   26  C1  UNL     1      18.223  -1.152  53.170  1.00  0.00     0.210 C 
ENDBRANCH   1  25
TORSDOF 3
ENDMDL
MODEL 9
REMARK VINA RESULT:      -8.1      1.955      2.242
REMARK  3 active torsions:
REMARK  status: ('A' for Active; 'I' for Inactive)
REMARK    1  A    between atoms: O1_2  and  C2_3 
REMARK    2  A    between atoms: C9_12  and  N3_13 
REMARK    3  A    between atoms: N3_13  and  C10_14 
ROOT
HETATM    1  C2  UNL     1      21.155  -0.443  54.015  1.00  0.00     0.069 A 
HETATM    2  C3  UNL     1      21.733  -1.359  54.863  1.00  0.00     0.039 A 
HETATM    3  C4  UNL     1      23.094  -1.473  55.005  1.00  0.00     0.035 A 
HETATM    4  C5  UNL     1      23.840  -0.612  54.244  1.00  0.00     0.069 A 
HETATM    5  N1  UNL     1      25.162  -0.717  54.352  1.00  0.00    -0.259 NA
HETATM    6  C6  UNL     1      26.044   0.023  53.687  1.00  0.00     0.142 A 
HETATM    7  C7  UNL     1      25.509   0.944  52.839  1.00  0.00     0.089 A 
HETATM    8  C8  UNL     1      26.450   1.791  52.137  1.00  0.00     0.103 C 
HETATM    9  N2  UNL     1      27.201   2.468  51.599  1.00  0.00    -0.191 NA
HETATM   10  C9  UNL     1      24.192   1.208  52.584  1.00  0.00     0.068 A 
HETATM   11  C17 UNL     1      23.388   0.343  53.368  1.00  0.00     0.024 A 
HETATM   12  C18 UNL     1      21.981   0.402  53.274  1.00  0.00     0.053 A 
ENDROOT
BRANCH  10  13
HETATM   13  N3  UNL     1      23.453   2.054  51.786  1.00  0.00    -0.353 N 
HETATM   14  H7  UNL     1      23.004   1.561  50.952  1.00  0.00     0.166 HD
BRANCH  13  15
HETATM   15  C10 UNL     1      23.026   3.369  51.529  1.00  0.00     0.057 A 
HETATM   16  C11 UNL     1      24.100   4.167  51.154  1.00  0.00     0.069 A 
HETATM   17  C12 UNL     1      24.183   5.483  50.845  1.00  0.00     0.092 A 
HETATM   18  O2  UNL     1      24.952   6.393  50.495  1.00  0.00    -0.354 OA
HETATM   19  C14 UNL     1      22.911   6.098  50.941  1.00  0.00     0.069 A 
HETATM   20  C13 UNL     1      25.843   7.297  50.123  1.00  0.00     0.210 C 
HETATM   21 CL1  UNL     1      22.477   7.795  50.636  1.00  0.00    -0.081 Cl
HETATM   22  C15 UNL     1      21.742   5.390  51.316  1.00  0.00     0.052 A 
HETATM   23  C16 UNL     1      21.847   4.058  51.596  1.00  0.00     0.062 A 
HETATM   24 CL2  UNL     1      20.492   3.135  52.158  1.00  0.00    -0.082 Cl
ENDBRANCH  13  15
ENDBRANCH  10  13
BRANCH   1  25
HETATM   25  O1  UNL     1      19.811  -0.311  53.851  1.00  0.00    -0.356 OA
HETATM   26  C1  UNL     1      19.028  -0.412  52.723  1.00  0.00     0.210 C 
ENDBRANCH   1  25
TORSDOF 3
ENDMDL
