MODEL 1
REMARK VINA RESULT:      -7.5      0.000      0.000
REMARK  5 active torsions:
REMARK  status: ('A' for Active; 'I' for Inactive)
REMARK    1  A    between atoms: C4_6  and  C5_7 
REMARK    2  A    between atoms: C5_7  and  C6_8 
REMARK    3  A    between atoms: C7_9  and  C8_10 
REMARK    4  A    between atoms: C8_10  and  C9_11 
REMARK    5  A    between atoms: C9_11  and  C10_12 
ROOT
HETATM    1  C6  UNL     1      25.554   0.308  52.716  1.00  0.00    -0.025 C 
HETATM    2  C7  UNL     1      24.494   1.088  52.907  1.00  0.00     0.037 C 
HETATM    3  N3  UNL     1      23.566   0.314  53.652  1.00  0.00    -0.270 N 
HETATM    4  O1  UNL     1      24.249  -0.683  54.243  1.00  0.00    -0.276 OA
HETATM    5  C15 UNL     1      25.275  -0.986  53.362  1.00  0.00     0.237 C 
HETATM    6  H15 UNL     1      22.531   0.516  53.710  1.00  0.00     0.194 HD
ENDROOT
BRANCH   1   7
HETATM    7  C5  UNL     1      26.866   0.459  52.037  1.00  0.00     0.081 C 
BRANCH   7   8
HETATM    8  C4  UNL     1      27.914   1.029  52.921  1.00  0.00    -0.010 A 
HETATM    9  C2  UNL     1      28.964   0.233  53.545  1.00  0.00     0.046 A 
HETATM   10  C1  UNL     1      29.179  -1.069  53.455  1.00  0.00     0.045 C 
HETATM   11  N1  UNL     1      29.731   1.191  54.296  1.00  0.00    -0.301 N 
HETATM   12  N2  UNL     1      29.128   2.424  54.085  1.00  0.00    -0.311 N 
HETATM   13  H3  UNL     1      30.570   0.992  54.878  1.00  0.00     0.187 HD
HETATM   14  C3  UNL     1      27.999   2.308  53.228  1.00  0.00     0.116 A 
HETATM   15  H4  UNL     1      29.496   3.300  54.523  1.00  0.00     0.186 HD
ENDBRANCH   7   8
ENDBRANCH   1   7
BRANCH   2  16
HETATM   16  C8  UNL     1      24.338   2.483  52.425  1.00  0.00     0.064 C 
BRANCH  16  17
HETATM   17  C9  UNL     1      24.216   2.423  50.902  1.00  0.00     0.045 C 
BRANCH  17  18
HETATM   18  C10 UNL     1      25.047   3.535  50.347  1.00  0.00    -0.051 C 
HETATM   19  C11 UNL     1      26.183   3.369  49.681  1.00  0.00     0.009 C 
HETATM   20  C12 UNL     1      27.074   4.367  49.097  1.00  0.00     0.021 C 
HETATM   21  C13 UNL     1      26.520   5.500  48.731  1.00  0.00     0.021 C 
HETATM   22  S1  UNL     1      25.556   6.091  49.901  1.00  0.00    -0.100 SA
HETATM   23  C14 UNL     1      24.586   4.918  50.542  1.00  0.00     0.057 C 
ENDBRANCH  17  18
ENDBRANCH  16  17
ENDBRANCH   2  16
TORSDOF 5
ENDMDL
MODEL 2
REMARK VINA RESULT:      -7.4      3.430      4.965
REMARK  5 active torsions:
REMARK  status: ('A' for Active; 'I' for Inactive)
REMARK    1  A    between atoms: C4_6  and  C5_7 
REMARK    2  A    between atoms: C5_7  and  C6_8 
REMARK    3  A    between atoms: C7_9  and  C8_10 
REMARK    4  A    between atoms: C8_10  and  C9_11 
REMARK    5  A    between atoms: C9_11  and  C10_12 
ROOT
HETATM    1  C6  UNL     1      26.249   2.003  53.014  1.00  0.00    -0.025 C 
HETATM    2  C7  UNL     1      25.276   2.637  52.367  1.00  0.00     0.037 C 
HETATM    3  N3  UNL     1      25.906   3.363  51.322  1.00  0.00    -0.270 N 
HETATM    4  O1  UNL     1      27.111   2.806  51.109  1.00  0.00    -0.276 OA
HETATM    5  C15 UNL     1      27.519   2.346  52.351  1.00  0.00     0.237 C 
HETATM    6  H15 UNL     1      25.474   4.187  50.824  1.00  0.00     0.194 HD
ENDROOT
BRANCH   1   7
HETATM    7  C5  UNL     1      26.318   1.088  54.181  1.00  0.00     0.081 C 
BRANCH   7   8
HETATM    8  C4  UNL     1      27.428   0.106  54.082  1.00  0.00    -0.010 A 
HETATM    9  C2  UNL     1      27.409  -1.046  53.190  1.00  0.00     0.046 A 
HETATM   10  C1  UNL     1      26.462  -1.424  52.346  1.00  0.00     0.045 C 
HETATM   11  N1  UNL     1      28.668  -1.698  53.431  1.00  0.00    -0.301 N 
HETATM   12  N2  UNL     1      29.321  -0.940  54.394  1.00  0.00    -0.311 N 
HETATM   13  H3  UNL     1      29.014  -2.565  52.972  1.00  0.00     0.187 HD
HETATM   14  C3  UNL     1      28.538   0.179  54.789  1.00  0.00     0.116 A 
HETATM   15  H4  UNL     1      30.270  -1.199  54.751  1.00  0.00     0.186 HD
ENDBRANCH   7   8
ENDBRANCH   1   7
BRANCH   2  16
HETATM   16  C8  UNL     1      23.829   2.580  52.693  1.00  0.00     0.064 C 
BRANCH  16  17
HETATM   17  C9  UNL     1      23.193   1.562  51.746  1.00  0.00     0.045 C 
BRANCH  17  18
HETATM   18  C10 UNL     1      22.440   0.582  52.588  1.00  0.00    -0.051 C 
HETATM   19  C11 UNL     1      23.003  -0.318  53.384  1.00  0.00     0.009 C 
HETATM   20  C12 UNL     1      22.380  -1.318  54.246  1.00  0.00     0.021 C 
HETATM   21  C13 UNL     1      21.181  -1.032  54.697  1.00  0.00     0.021 C 
HETATM   22  S1  UNL     1      20.211  -0.505  53.502  1.00  0.00    -0.100 SA
HETATM   23  C14 UNL     1      20.971   0.606  52.545  1.00  0.00     0.057 C 
ENDBRANCH  17  18
ENDBRANCH  16  17
ENDBRANCH   2  16
TORSDOF 5
ENDMDL
MODEL 3
REMARK VINA RESULT:      -7.3      3.722      6.012
REMARK  5 active torsions:
REMARK  status: ('A' for Active; 'I' for Inactive)
REMARK    1  A    between atoms: C4_6  and  C5_7 
REMARK    2  A    between atoms: C5_7  and  C6_8 
REMARK    3  A    between atoms: C7_9  and  C8_10 
REMARK    4  A    between atoms: C8_10  and  C9_11 
REMARK    5  A    between atoms: C9_11  and  C10_12 
ROOT
HETATM    1  C6  UNL     1      23.107   2.530  52.269  1.00  0.00    -0.025 C 
HETATM    2  C7  UNL     1      24.133   3.133  52.861  1.00  0.00     0.037 C 
HETATM    3  N3  UNL     1      23.883   4.527  52.759  1.00  0.00    -0.270 N 
HETATM    4  O1  UNL     1      22.567   4.689  52.529  1.00  0.00    -0.276 OA
HETATM    5  C15 UNL     1      22.194   3.581  51.785  1.00  0.00     0.237 C 
HETATM    6  H15 UNL     1      24.623   5.274  52.854  1.00  0.00     0.194 HD
ENDROOT
BRANCH   1   7
HETATM    7  C5  UNL     1      22.717   1.121  52.010  1.00  0.00     0.081 C 
BRANCH   7   8
HETATM    8  C4  UNL     1      21.906   0.534  53.107  1.00  0.00    -0.010 A 
HETATM    9  C2  UNL     1      22.449  -0.357  54.125  1.00  0.00     0.046 A 
HETATM   10  C1  UNL     1      23.690  -0.792  54.266  1.00  0.00     0.045 C 
HETATM   11  N1  UNL     1      21.318  -0.666  54.959  1.00  0.00    -0.301 N 
HETATM   12  N2  UNL     1      20.237   0.018  54.421  1.00  0.00    -0.311 N 
HETATM   13  H3  UNL     1      21.319  -1.281  55.799  1.00  0.00     0.187 HD
HETATM   14  C3  UNL     1      20.617   0.761  53.268  1.00  0.00     0.116 A 
HETATM   15  H4  UNL     1      19.282  -0.036  54.845  1.00  0.00     0.186 HD
ENDBRANCH   7   8
ENDBRANCH   1   7
BRANCH   2  16
HETATM   16  C8  UNL     1      25.294   2.459  53.494  1.00  0.00     0.064 C 
BRANCH  16  17
HETATM   17  C9  UNL     1      26.280   2.115  52.377  1.00  0.00     0.045 C 
BRANCH  17  18
HETATM   18  C10 UNL     1      27.084   0.942  52.841  1.00  0.00    -0.051 C 
HETATM   19  C11 UNL     1      26.867  -0.314  52.474  1.00  0.00     0.009 C 
HETATM   20  C12 UNL     1      27.577  -1.532  52.856  1.00  0.00     0.021 C 
HETATM   21  C13 UNL     1      28.839  -1.390  53.189  1.00  0.00     0.021 C 
HETATM   22  S1  UNL     1      29.039  -0.161  54.236  1.00  0.00    -0.100 SA
HETATM   23  C14 UNL     1      28.198   1.182  53.769  1.00  0.00     0.057 C 
ENDBRANCH  17  18
ENDBRANCH  16  17
ENDBRANCH   2  16
TORSDOF 5
ENDMDL
MODEL 4
REMARK VINA RESULT:      -7.2      1.807      3.873
REMARK  5 active torsions:
REMARK  status: ('A' for Active; 'I' for Inactive)
REMARK    1  A    between atoms: C4_6  and  C5_7 
REMARK    2  A    between atoms: C5_7  and  C6_8 
REMARK    3  A    between atoms: C7_9  and  C8_10 
REMARK    4  A    between atoms: C8_10  and  C9_11 
REMARK    5  A    between atoms: C9_11  and  C10_12 
ROOT
HETATM    1  C6  UNL     1      26.163   0.826  53.510  1.00  0.00    -0.025 C 
HETATM    2  C7  UNL     1      25.888   2.122  53.401  1.00  0.00     0.037 C 
HETATM    3  N3  UNL     1      26.996   2.808  53.967  1.00  0.00    -0.270 N 
HETATM    4  O1  UNL     1      28.039   1.958  53.977  1.00  0.00    -0.276 OA
HETATM    5  C15 UNL     1      27.479   0.704  54.162  1.00  0.00     0.237 C 
HETATM    6  H15 UNL     1      26.968   3.807  54.307  1.00  0.00     0.194 HD
ENDROOT
BRANCH   1   7
HETATM    7  C5  UNL     1      25.471  -0.434  53.139  1.00  0.00     0.081 C 
BRANCH   7   8
HETATM    8  C4  UNL     1      24.395  -0.806  54.093  1.00  0.00    -0.010 A 
HETATM    9  C2  UNL     1      22.974  -0.717  53.783  1.00  0.00     0.046 A 
HETATM   10  C1  UNL     1      22.395  -0.313  52.664  1.00  0.00     0.045 C 
HETATM   11  N1  UNL     1      22.323  -1.172  54.982  1.00  0.00    -0.301 N 
HETATM   12  N2  UNL     1      23.335  -1.487  55.879  1.00  0.00    -0.311 N 
HETATM   13  H3  UNL     1      21.297  -1.248  55.139  1.00  0.00     0.187 HD
HETATM   14  C3  UNL     1      24.619  -1.254  55.313  1.00  0.00     0.116 A 
HETATM   15  H4  UNL     1      23.129  -1.847  56.840  1.00  0.00     0.186 HD
ENDBRANCH   7   8
ENDBRANCH   1   7
BRANCH   2  16
HETATM   16  C8  UNL     1      24.662   2.708  52.804  1.00  0.00     0.064 C 
BRANCH  16  17
HETATM   17  C9  UNL     1      24.677   2.362  51.315  1.00  0.00     0.045 C 
BRANCH  17  18
HETATM   18  C10 UNL     1      25.321   3.506  50.600  1.00  0.00    -0.051 C 
HETATM   19  C11 UNL     1      26.432   3.418  49.880  1.00  0.00     0.009 C 
HETATM   20  C12 UNL     1      27.150   4.455  49.143  1.00  0.00     0.021 C 
HETATM   21  C13 UNL     1      26.430   5.462  48.706  1.00  0.00     0.021 C 
HETATM   22  S1  UNL     1      25.458   6.044  49.873  1.00  0.00    -0.100 SA
HETATM   23  C14 UNL     1      24.689   4.831  50.689  1.00  0.00     0.057 C 
ENDBRANCH  17  18
ENDBRANCH  16  17
ENDBRANCH   2  16
TORSDOF 5
ENDMDL
MODEL 5
REMARK VINA RESULT:      -7.0      1.987      2.610
REMARK  5 active torsions:
REMARK  status: ('A' for Active; 'I' for Inactive)
REMARK    1  A    between atoms: C4_6  and  C5_7 
REMARK    2  A    between atoms: C5_7  and  C6_8 
REMARK    3  A    between atoms: C7_9  and  C8_10 
REMARK    4  A    between atoms: C8_10  and  C9_11 
REMARK    5  A    between atoms: C9_11  and  C10_12 
ROOT
HETATM    1  C6  UNL     1      24.980   1.421  52.672  1.00  0.00    -0.025 C 
HETATM    2  C7  UNL     1      25.199   2.108  51.555  1.00  0.00     0.037 C 
HETATM    3  N3  UNL     1      23.958   2.141  50.865  1.00  0.00    -0.270 N 
HETATM    4  O1  UNL     1      22.988   1.884  51.759  1.00  0.00    -0.276 OA
HETATM    5  C15 UNL     1      23.563   1.017  52.675  1.00  0.00     0.237 C 
HETATM    6  H15 UNL     1      23.856   2.337  49.832  1.00  0.00     0.194 HD
ENDROOT
BRANCH   1   7
HETATM    7  C5  UNL     1      25.806   1.006  53.834  1.00  0.00     0.081 C 
BRANCH   7   8
HETATM    8  C4  UNL     1      26.655  -0.178  53.548  1.00  0.00    -0.010 A 
HETATM    9  C2  UNL     1      28.087  -0.228  53.813  1.00  0.00     0.046 A 
HETATM   10  C1  UNL     1      28.867   0.709  54.326  1.00  0.00     0.045 C 
HETATM   11  N1  UNL     1      28.477  -1.546  53.385  1.00  0.00    -0.301 N 
HETATM   12  N2  UNL     1      27.323  -2.162  52.920  1.00  0.00    -0.311 N 
HETATM   13  H3  UNL     1      29.436  -1.949  53.420  1.00  0.00     0.187 HD
HETATM   14  C3  UNL     1      26.197  -1.300  53.027  1.00  0.00     0.116 A 
HETATM   15  H4  UNL     1      27.331  -3.140  52.548  1.00  0.00     0.186 HD
ENDBRANCH   7   8
ENDBRANCH   1   7
BRANCH   2  16
HETATM   16  C8  UNL     1      26.490   2.708  51.137  1.00  0.00     0.064 C 
BRANCH  16  17
HETATM   17  C9  UNL     1      26.445   2.863  49.617  1.00  0.00     0.045 C 
BRANCH  17  18
HETATM   18  C10 UNL     1      26.658   4.311  49.312  1.00  0.00    -0.051 C 
HETATM   19  C11 UNL     1      27.703   4.799  48.655  1.00  0.00     0.009 C 
HETATM   20  C12 UNL     1      28.019   6.180  48.301  1.00  0.00     0.021 C 
HETATM   21  C13 UNL     1      26.998   6.991  48.152  1.00  0.00     0.021 C 
HETATM   22  S1  UNL     1      25.951   6.857  49.391  1.00  0.00    -0.100 SA
HETATM   23  C14 UNL     1      25.647   5.277  49.765  1.00  0.00     0.057 C 
ENDBRANCH  17  18
ENDBRANCH  16  17
ENDBRANCH   2  16
TORSDOF 5
ENDMDL
MODEL 6
REMARK VINA RESULT:      -7.0      1.701      2.140
REMARK  5 active torsions:
REMARK  status: ('A' for Active; 'I' for Inactive)
REMARK    1  A    between atoms: C4_6  and  C5_7 
REMARK    2  A    between atoms: C5_7  and  C6_8 
REMARK    3  A    between atoms: C7_9  and  C8_10 
REMARK    4  A    between atoms: C8_10  and  C9_11 
REMARK    5  A    between atoms: C9_11  and  C10_12 
ROOT
HETATM    1  C6  UNL     1      25.164  -0.034  53.299  1.00  0.00    -0.025 C 
HETATM    2  C7  UNL     1      23.963   0.368  52.894  1.00  0.00     0.037 C 
HETATM    3  N3  UNL     1      23.030  -0.222  53.787  1.00  0.00    -0.270 N 
HETATM    4  O1  UNL     1      23.695  -0.565  54.904  1.00  0.00    -0.276 OA
HETATM    5  C15 UNL     1      24.969  -0.899  54.475  1.00  0.00     0.237 C 
HETATM    6  H15 UNL     1      22.003  -0.352  53.576  1.00  0.00     0.194 HD
ENDROOT
BRANCH   1   7
HETATM    7  C5  UNL     1      26.560   0.189  52.844  1.00  0.00     0.081 C 
BRANCH   7   8
HETATM    8  C4  UNL     1      27.408  -1.024  52.960  1.00  0.00    -0.010 A 
HETATM    9  C2  UNL     1      28.749  -1.020  53.530  1.00  0.00     0.046 A 
HETATM   10  C1  UNL     1      29.435  -0.003  54.025  1.00  0.00     0.045 C 
HETATM   11  N1  UNL     1      29.175  -2.392  53.435  1.00  0.00    -0.301 N 
HETATM   12  N2  UNL     1      28.124  -3.086  52.850  1.00  0.00    -0.311 N 
HETATM   13  H3  UNL     1      30.090  -2.778  53.745  1.00  0.00     0.187 HD
HETATM   14  C3  UNL     1      27.032  -2.223  52.560  1.00  0.00     0.116 A 
HETATM   15  H4  UNL     1      28.177  -4.115  52.667  1.00  0.00     0.186 HD
ENDBRANCH   7   8
ENDBRANCH   1   7
BRANCH   2  16
HETATM   16  C8  UNL     1      23.683   1.257  51.739  1.00  0.00     0.064 C 
BRANCH  16  17
HETATM   17  C9  UNL     1      23.699   2.694  52.261  1.00  0.00     0.045 C 
BRANCH  17  18
HETATM   18  C10 UNL     1      24.568   3.490  51.341  1.00  0.00    -0.051 C 
HETATM   19  C11 UNL     1      25.678   3.039  50.772  1.00  0.00     0.009 C 
HETATM   20  C12 UNL     1      26.602   3.714  49.864  1.00  0.00     0.021 C 
HETATM   21  C13 UNL     1      26.093   4.670  49.122  1.00  0.00     0.021 C 
HETATM   22  S1  UNL     1      25.186   5.689  50.009  1.00  0.00    -0.100 SA
HETATM   23  C14 UNL     1      24.178   4.874  51.033  1.00  0.00     0.057 C 
ENDBRANCH  17  18
ENDBRANCH  16  17
ENDBRANCH   2  16
TORSDOF 5
ENDMDL
MODEL 7
REMARK VINA RESULT:      -7.0      3.549      5.874
REMARK  5 active torsions:
REMARK  status: ('A' for Active; 'I' for Inactive)
REMARK    1  A    between atoms: C4_6  and  C5_7 
REMARK    2  A    between atoms: C5_7  and  C6_8 
REMARK    3  A    between atoms: C7_9  and  C8_10 
REMARK    4  A    between atoms: C8_10  and  C9_11 
REMARK    5  A    between atoms: C9_11  and  C10_12 
ROOT
HETATM    1  C6  UNL     1      22.050  -0.588  53.375  1.00  0.00    -0.025 C 
HETATM    2  C7  UNL     1      23.270  -0.720  53.886  1.00  0.00     0.037 C 
HETATM    3  N3  UNL     1      23.096  -1.267  55.185  1.00  0.00    -0.270 N 
HETATM    4  O1  UNL     1      21.879  -1.839  55.226  1.00  0.00    -0.276 OA
HETATM    5  C15 UNL     1      21.092  -1.067  54.387  1.00  0.00     0.237 C 
HETATM    6  H15 UNL     1      23.816  -1.215  55.955  1.00  0.00     0.194 HD
ENDROOT
BRANCH   1   7
HETATM    7  C5  UNL     1      21.492  -0.094  52.091  1.00  0.00     0.081 C 
BRANCH   7   8
HETATM    8  C4  UNL     1      21.343   1.383  52.055  1.00  0.00    -0.010 A 
HETATM    9  C2  UNL     1      22.199   2.261  51.268  1.00  0.00     0.046 A 
HETATM   10  C1  UNL     1      23.213   1.941  50.480  1.00  0.00     0.045 C 
HETATM   11  N1  UNL     1      21.692   3.580  51.538  1.00  0.00    -0.301 N 
HETATM   12  N2  UNL     1      20.629   3.417  52.416  1.00  0.00    -0.311 N 
HETATM   13  H3  UNL     1      22.055   4.474  51.149  1.00  0.00     0.187 HD
HETATM   14  C3  UNL     1      20.423   2.044  52.729  1.00  0.00     0.116 A 
HETATM   15  H4  UNL     1      20.078   4.231  52.775  1.00  0.00     0.186 HD
ENDBRANCH   7   8
ENDBRANCH   1   7
BRANCH   2  16
HETATM   16  C8  UNL     1      24.543  -0.360  53.213  1.00  0.00     0.064 C 
BRANCH  16  17
HETATM   17  C9  UNL     1      24.886   1.070  53.633  1.00  0.00     0.045 C 
BRANCH  17  18
HETATM   18  C10 UNL     1      26.358   1.116  53.889  1.00  0.00    -0.051 C 
HETATM   19  C11 UNL     1      27.036   0.193  54.560  1.00  0.00     0.009 C 
HETATM   20  C12 UNL     1      28.461   0.128  54.873  1.00  0.00     0.021 C 
HETATM   21  C13 UNL     1      29.269   0.735  54.035  1.00  0.00     0.021 C 
HETATM   22  S1  UNL     1      28.745   2.235  53.690  1.00  0.00    -0.100 SA
HETATM   23  C14 UNL     1      27.125   2.256  53.367  1.00  0.00     0.057 C 
ENDBRANCH  17  18
ENDBRANCH  16  17
ENDBRANCH   2  16
TORSDOF 5
ENDMDL
MODEL 8
REMARK VINA RESULT:      -6.8      3.332      6.117
REMARK  5 active torsions:
REMARK  status: ('A' for Active; 'I' for Inactive)
REMARK    1  A    between atoms: C4_6  and  C5_7 
REMARK    2  A    between atoms: C5_7  and  C6_8 
REMARK    3  A    between atoms: C7_9  and  C8_10 
REMARK    4  A    between atoms: C8_10  and  C9_11 
REMARK    5  A    between atoms: C9_11  and  C10_12 
ROOT
HETATM    1  C6  UNL     1      24.533   4.772  50.569  1.00  0.00    -0.025 C 
HETATM    2  C7  UNL     1      24.615   3.704  51.356  1.00  0.00     0.037 C 
HETATM    3  N3  UNL     1      24.063   4.093  52.605  1.00  0.00    -0.270 N 
HETATM    4  O1  UNL     1      23.295   5.177  52.391  1.00  0.00    -0.276 OA
HETATM    5  C15 UNL     1      23.912   5.855  51.352  1.00  0.00     0.237 C 
HETATM    6  H15 UNL     1      24.244   3.596  53.518  1.00  0.00     0.194 HD
ENDROOT
BRANCH   1   7
HETATM    7  C5  UNL     1      24.910   5.080  49.166  1.00  0.00     0.081 C 
BRANCH   7   8
HETATM    8  C4  UNL     1      26.331   5.490  49.025  1.00  0.00    -0.010 A 
HETATM    9  C2  UNL     1      26.777   6.877  49.046  1.00  0.00     0.046 A 
HETATM   10  C1  UNL     1      26.054   7.977  49.185  1.00  0.00     0.045 C 
HETATM   11  N1  UNL     1      28.203   6.790  48.879  1.00  0.00    -0.301 N 
HETATM   12  N2  UNL     1      28.501   5.439  48.775  1.00  0.00    -0.311 N 
HETATM   13  H3  UNL     1      28.872   7.587  48.843  1.00  0.00     0.187 HD
HETATM   14  C3  UNL     1      27.327   4.641  48.867  1.00  0.00     0.116 A 
HETATM   15  H4  UNL     1      29.482   5.098  48.646  1.00  0.00     0.186 HD
ENDBRANCH   7   8
ENDBRANCH   1   7
BRANCH   2  16
HETATM   16  C8  UNL     1      25.176   2.383  50.980  1.00  0.00     0.064 C 
BRANCH  16  17
HETATM   17  C9  UNL     1      24.556   1.346  51.918  1.00  0.00     0.045 C 
BRANCH  17  18
HETATM   18  C10 UNL     1      25.680   0.673  52.639  1.00  0.00    -0.051 C 
HETATM   19  C11 UNL     1      26.401  -0.327  52.148  1.00  0.00     0.009 C 
HETATM   20  C12 UNL     1      27.512  -1.059  52.750  1.00  0.00     0.021 C 
HETATM   21  C13 UNL     1      28.226  -0.405  53.636  1.00  0.00     0.021 C 
HETATM   22  S1  UNL     1      27.277   0.350  54.720  1.00  0.00    -0.100 SA
HETATM   23  C14 UNL     1      26.026   1.142  53.989  1.00  0.00     0.057 C 
ENDBRANCH  17  18
ENDBRANCH  16  17
ENDBRANCH   2  16
TORSDOF 5
ENDMDL
MODEL 9
REMARK VINA RESULT:      -6.8      1.986      2.620
REMARK  5 active torsions:
REMARK  status: ('A' for Active; 'I' for Inactive)
REMARK    1  A    between atoms: C4_6  and  C5_7 
REMARK    2  A    between atoms: C5_7  and  C6_8 
REMARK    3  A    between atoms: C7_9  and  C8_10 
REMARK    4  A    between atoms: C8_10  and  C9_11 
REMARK    5  A    between atoms: C9_11  and  C10_12 
ROOT
HETATM    1  C6  UNL     1      25.466   1.923  51.581  1.00  0.00    -0.025 C 
HETATM    2  C7  UNL     1      24.994   2.931  50.852  1.00  0.00     0.037 C 
HETATM    3  N3  UNL     1      23.846   3.408  51.538  1.00  0.00    -0.270 N 
HETATM    4  O1  UNL     1      23.932   2.993  52.815  1.00  0.00    -0.276 OA
HETATM    5  C15 UNL     1      24.584   1.772  52.752  1.00  0.00     0.237 C 
HETATM    6  H15 UNL     1      23.082   3.984  51.093  1.00  0.00     0.194 HD
ENDROOT
BRANCH   1   7
HETATM    7  C5  UNL     1      26.612   0.986  51.468  1.00  0.00     0.081 C 
BRANCH   7   8
HETATM    8  C4  UNL     1      27.280   0.729  52.769  1.00  0.00    -0.010 A 
HETATM    9  C2  UNL     1      27.432  -0.598  53.350  1.00  0.00     0.046 A 
HETATM   10  C1  UNL     1      27.033  -1.764  52.868  1.00  0.00     0.045 C 
HETATM   11  N1  UNL     1      28.126  -0.362  54.588  1.00  0.00    -0.301 N 
HETATM   12  N2  UNL     1      28.332   1.008  54.664  1.00  0.00    -0.311 N 
HETATM   13  H3  UNL     1      28.413  -1.081  55.284  1.00  0.00     0.187 HD
HETATM   14  C3  UNL     1      27.800   1.675  53.526  1.00  0.00     0.116 A 
HETATM   15  H4  UNL     1      28.823   1.449  55.477  1.00  0.00     0.186 HD
ENDBRANCH   7   8
ENDBRANCH   1   7
BRANCH   2  16
HETATM   16  C8  UNL     1      25.571   3.434  49.581  1.00  0.00     0.064 C 
BRANCH  16  17
HETATM   17  C9  UNL     1      25.290   4.937  49.523  1.00  0.00     0.045 C 
BRANCH  17  18
HETATM   18  C10 UNL     1      26.546   5.605  49.062  1.00  0.00    -0.051 C 
HETATM   19  C11 UNL     1      27.636   4.966  48.655  1.00  0.00     0.009 C 
HETATM   20  C12 UNL     1      28.910   5.502  48.187  1.00  0.00     0.021 C 
HETATM   21  C13 UNL     1      28.872   6.690  47.628  1.00  0.00     0.021 C 
HETATM   22  S1  UNL     1      28.013   7.738  48.528  1.00  0.00    -0.100 SA
HETATM   23  C14 UNL     1      26.593   7.074  49.050  1.00  0.00     0.057 C 
ENDBRANCH  17  18
ENDBRANCH  16  17
ENDBRANCH   2  16
TORSDOF 5
ENDMDL
