MODEL 1
REMARK VINA RESULT:      -6.5      0.000      0.000
REMARK  7 active torsions:
REMARK  status: ('A' for Active; 'I' for Inactive)
REMARK    1  A    between atoms: C2_2  and  C3_3 
REMARK    2  A    between atoms: C3_3  and  O1_4 
REMARK    3  A    between atoms: O1_4  and  C4_5 
REMARK    4  A    between atoms: C9_12  and  N3_13 
REMARK    5  A    between atoms: N3_13  and  C10_14 
REMARK    6  A    between atoms: C10_14  and  C11_15 
REMARK    7  A    between atoms: C13_18  and  O2_19 
ROOT
HETATM    1  C4  UNL     1      24.977   2.527  51.424  1.00  0.00     0.099 C 
HETATM    2  C5  UNL     1      25.882   2.402  52.363  1.00  0.00     0.028 C 
HETATM    3  C6  UNL     1      25.572   1.515  53.482  1.00  0.00     0.118 C 
HETATM    4  C7  UNL     1      24.376   0.710  53.207  1.00  0.00     0.050 C 
HETATM    5  N1  UNL     1      24.182  -0.446  53.806  1.00  0.00    -0.246 NA
HETATM    6  C8  UNL     1      25.170  -0.926  54.704  1.00  0.00     0.229 C 
HETATM    7  N2  UNL     1      26.264  -0.300  54.940  1.00  0.00    -0.246 NA
HETATM    8  C9  UNL     1      26.633   0.955  54.315  1.00  0.00     0.356 C 
HETATM    9  C12 UNL     1      23.364   0.940  52.187  1.00  0.00     0.067 C 
HETATM   10  C13 UNL     1      23.690   1.864  51.260  1.00  0.00     0.103 C 
ENDROOT
BRANCH   8  11
HETATM   11  N3  UNL     1      27.900   0.808  53.594  1.00  0.00     0.110 N 
HETATM   12  H12 UNL     1      28.149   1.740  53.241  1.00  0.00     0.318 HD
BRANCH  11  13
HETATM   13  C10 UNL     1      28.883   0.312  54.520  1.00  0.00     0.287 C 
BRANCH  13  14
HETATM   14  C11 UNL     1      29.869  -0.586  53.794  1.00  0.00     0.144 C 
HETATM   15 CL1  UNL     1      28.962  -2.001  53.187  1.00  0.00    -0.129 Cl
ENDBRANCH  13  14
ENDBRANCH  11  13
ENDBRANCH   8  11
BRANCH   1  16
HETATM   16  O1  UNL     1      25.330   3.398  50.430  1.00  0.00    -0.349 OA
BRANCH  16  17
HETATM   17  C3  UNL     1      26.523   3.413  49.698  1.00  0.00     0.175 C 
BRANCH  17  18
HETATM   18  C2  UNL     1      26.661   4.763  49.023  1.00  0.00     0.022 C 
HETATM   19  C1  UNL     1      28.072   5.004  48.540  1.00  0.00     0.007 C 
ENDBRANCH  17  18
ENDBRANCH  16  17
ENDBRANCH   1  16
BRANCH  10  20
HETATM   20  O2  UNL     1      22.832   2.158  50.211  1.00  0.00    -0.353 OA
HETATM   21  C14 UNL     1      21.803   1.206  49.977  1.00  0.00     0.210 C 
ENDBRANCH  10  20
TORSDOF 7
ENDMDL
MODEL 2
REMARK VINA RESULT:      -6.4      3.233      5.382
REMARK  7 active torsions:
REMARK  status: ('A' for Active; 'I' for Inactive)
REMARK    1  A    between atoms: C2_2  and  C3_3 
REMARK    2  A    between atoms: C3_3  and  O1_4 
REMARK    3  A    between atoms: O1_4  and  C4_5 
REMARK    4  A    between atoms: C9_12  and  N3_13 
REMARK    5  A    between atoms: N3_13  and  C10_14 
REMARK    6  A    between atoms: C10_14  and  C11_15 
REMARK    7  A    between atoms: C13_18  and  O2_19 
ROOT
HETATM    1  C4  UNL     1      26.116   0.490  52.729  1.00  0.00     0.099 C 
HETATM    2  C5  UNL     1      25.961   1.402  51.801  1.00  0.00     0.028 C 
HETATM    3  C6  UNL     1      24.595   1.803  51.473  1.00  0.00     0.118 C 
HETATM    4  C7  UNL     1      23.637   1.279  52.454  1.00  0.00     0.050 C 
HETATM    5  N1  UNL     1      22.478   1.868  52.655  1.00  0.00    -0.246 NA
HETATM    6  C8  UNL     1      22.175   3.048  51.928  1.00  0.00     0.229 C 
HETATM    7  N2  UNL     1      22.993   3.590  51.102  1.00  0.00    -0.246 NA
HETATM    8  C9  UNL     1      24.321   3.081  50.822  1.00  0.00     0.356 C 
HETATM    9  C12 UNL     1      23.848   0.210  53.419  1.00  0.00     0.067 C 
HETATM   10  C13 UNL     1      25.131  -0.176  53.569  1.00  0.00     0.103 C 
ENDROOT
BRANCH   8  11
HETATM   11  N3  UNL     1      25.329   4.100  51.128  1.00  0.00     0.110 N 
HETATM   12  H12 UNL     1      26.123   3.609  51.558  1.00  0.00     0.318 HD
BRANCH  11  13
HETATM   13  C10 UNL     1      25.706   4.737  49.894  1.00  0.00     0.287 C 
BRANCH  13  14
HETATM   14  C11 UNL     1      26.848   3.973  49.248  1.00  0.00     0.144 C 
HETATM   15 CL1  UNL     1      27.927   5.170  48.476  1.00  0.00    -0.129 Cl
ENDBRANCH  13  14
ENDBRANCH  11  13
ENDBRANCH   8  11
BRANCH   1  16
HETATM   16  O1  UNL     1      27.422   0.148  52.952  1.00  0.00    -0.349 OA
BRANCH  16  17
HETATM   17  C3  UNL     1      28.449   0.977  53.418  1.00  0.00     0.175 C 
BRANCH  17  18
HETATM   18  C2  UNL     1      29.597   0.107  53.892  1.00  0.00     0.022 C 
HETATM   19  C1  UNL     1      29.505  -1.292  53.330  1.00  0.00     0.007 C 
ENDBRANCH  17  18
ENDBRANCH  16  17
ENDBRANCH   1  16
BRANCH  10  20
HETATM   20  O2  UNL     1      25.479  -1.162  54.480  1.00  0.00    -0.353 OA
HETATM   21  C14 UNL     1      24.654  -1.247  55.635  1.00  0.00     0.210 C 
ENDBRANCH  10  20
TORSDOF 7
ENDMDL
MODEL 3
REMARK VINA RESULT:      -6.3      3.768      6.495
REMARK  7 active torsions:
REMARK  status: ('A' for Active; 'I' for Inactive)
REMARK    1  A    between atoms: C2_2  and  C3_3 
REMARK    2  A    between atoms: C3_3  and  O1_4 
REMARK    3  A    between atoms: O1_4  and  C4_5 
REMARK    4  A    between atoms: C9_12  and  N3_13 
REMARK    5  A    between atoms: N3_13  and  C10_14 
REMARK    6  A    between atoms: C10_14  and  C11_15 
REMARK    7  A    between atoms: C13_18  and  O2_19 
ROOT
HETATM    1  C4  UNL     1      24.603   0.183  53.105  1.00  0.00     0.099 C 
HETATM    2  C5  UNL     1      23.989   1.279  52.733  1.00  0.00     0.028 C 
HETATM    3  C6  UNL     1      24.809   2.354  52.179  1.00  0.00     0.118 C 
HETATM    4  C7  UNL     1      26.174   1.891  51.899  1.00  0.00     0.050 C 
HETATM    5  N1  UNL     1      26.922   2.488  50.995  1.00  0.00    -0.246 NA
HETATM    6  C8  UNL     1      26.376   3.573  50.263  1.00  0.00     0.229 C 
HETATM    7  N2  UNL     1      25.171   3.986  50.417  1.00  0.00    -0.246 NA
HETATM    8  C9  UNL     1      24.221   3.392  51.338  1.00  0.00     0.356 C 
HETATM    9  C12 UNL     1      26.827   0.692  52.401  1.00  0.00     0.067 C 
HETATM   10  C13 UNL     1      26.007  -0.193  53.003  1.00  0.00     0.103 C 
ENDROOT
BRANCH   8  11
HETATM   11  N3  UNL     1      23.036   2.928  50.611  1.00  0.00     0.110 N 
HETATM   12  H12 UNL     1      22.667   2.123  51.133  1.00  0.00     0.318 HD
BRANCH  11  13
HETATM   13  C10 UNL     1      22.089   4.010  50.568  1.00  0.00     0.287 C 
BRANCH  13  14
HETATM   14  C11 UNL     1      21.625   4.346  51.974  1.00  0.00     0.144 C 
HETATM   15 CL1  UNL     1      20.521   3.043  52.501  1.00  0.00    -0.129 Cl
ENDBRANCH  13  14
ENDBRANCH  11  13
ENDBRANCH   8  11
BRANCH   1  16
HETATM   16  O1  UNL     1      23.770  -0.761  53.642  1.00  0.00    -0.349 OA
BRANCH  16  17
HETATM   17  C3  UNL     1      22.487  -1.109  53.204  1.00  0.00     0.175 C 
BRANCH  17  18
HETATM   18  C2  UNL     1      21.567  -1.180  54.406  1.00  0.00     0.022 C 
HETATM   19  C1  UNL     1      20.951   0.164  54.717  1.00  0.00     0.007 C 
ENDBRANCH  17  18
ENDBRANCH  16  17
ENDBRANCH   1  16
BRANCH  10  20
HETATM   20  O2  UNL     1      26.491  -1.395  53.497  1.00  0.00    -0.353 OA
HETATM   21  C14 UNL     1      27.084  -2.258  52.536  1.00  0.00     0.210 C 
ENDBRANCH  10  20
TORSDOF 7
ENDMDL
MODEL 4
REMARK VINA RESULT:      -6.3      2.601      4.758
REMARK  7 active torsions:
REMARK  status: ('A' for Active; 'I' for Inactive)
REMARK    1  A    between atoms: C2_2  and  C3_3 
REMARK    2  A    between atoms: C3_3  and  O1_4 
REMARK    3  A    between atoms: O1_4  and  C4_5 
REMARK    4  A    between atoms: C9_12  and  N3_13 
REMARK    5  A    between atoms: N3_13  and  C10_14 
REMARK    6  A    between atoms: C10_14  and  C11_15 
REMARK    7  A    between atoms: C13_18  and  O2_19 
ROOT
HETATM    1  C4  UNL     1      25.834   1.473  52.125  1.00  0.00     0.099 C 
HETATM    2  C5  UNL     1      24.678   0.860  52.205  1.00  0.00     0.028 C 
HETATM    3  C6  UNL     1      24.551  -0.211  53.190  1.00  0.00     0.118 C 
HETATM    4  C7  UNL     1      25.696  -0.227  54.108  1.00  0.00     0.050 C 
HETATM    5  N1  UNL     1      25.593  -0.744  55.314  1.00  0.00    -0.246 NA
HETATM    6  C8  UNL     1      24.339  -1.259  55.734  1.00  0.00     0.229 C 
HETATM    7  N2  UNL     1      23.287  -1.219  55.002  1.00  0.00    -0.246 NA
HETATM    8  C9  UNL     1      23.241  -0.635  53.676  1.00  0.00     0.356 C 
HETATM    9  C12 UNL     1      26.987   0.421  53.932  1.00  0.00     0.067 C 
HETATM   10  C13 UNL     1      27.044   1.310  52.920  1.00  0.00     0.103 C 
ENDROOT
BRANCH   8  11
HETATM   11  N3  UNL     1      22.246   0.440  53.631  1.00  0.00     0.110 N 
HETATM   12  H12 UNL     1      22.462   1.007  52.802  1.00  0.00     0.318 HD
BRANCH  11  13
HETATM   13  C10 UNL     1      20.944  -0.165  53.534  1.00  0.00     0.287 C 
BRANCH  13  14
HETATM   14  C11 UNL     1      20.174   0.451  52.378  1.00  0.00     0.144 C 
HETATM   15 CL1  UNL     1      21.166   0.251  50.905  1.00  0.00    -0.129 Cl
ENDBRANCH  13  14
ENDBRANCH  11  13
ENDBRANCH   8  11
BRANCH   1  16
HETATM   16  O1  UNL     1      25.881   2.439  51.157  1.00  0.00    -0.349 OA
BRANCH  16  17
HETATM   17  C3  UNL     1      24.889   3.375  50.844  1.00  0.00     0.175 C 
BRANCH  17  18
HETATM   18  C2  UNL     1      25.499   4.454  49.971  1.00  0.00     0.022 C 
HETATM   19  C1  UNL     1      26.786   3.991  49.330  1.00  0.00     0.007 C 
ENDBRANCH  17  18
ENDBRANCH  16  17
ENDBRANCH   1  16
BRANCH  10  20
HETATM   20  O2  UNL     1      28.203   2.025  52.660  1.00  0.00    -0.353 OA
HETATM   21  C14 UNL     1      28.957   2.406  53.804  1.00  0.00     0.210 C 
ENDBRANCH  10  20
TORSDOF 7
ENDMDL
MODEL 5
REMARK VINA RESULT:      -6.3      3.638      6.487
REMARK  7 active torsions:
REMARK  status: ('A' for Active; 'I' for Inactive)
REMARK    1  A    between atoms: C2_2  and  C3_3 
REMARK    2  A    between atoms: C3_3  and  O1_4 
REMARK    3  A    between atoms: O1_4  and  C4_5 
REMARK    4  A    between atoms: C9_12  and  N3_13 
REMARK    5  A    between atoms: N3_13  and  C10_14 
REMARK    6  A    between atoms: C10_14  and  C11_15 
REMARK    7  A    between atoms: C13_18  and  O2_19 
ROOT
HETATM    1  C4  UNL     1      24.594   0.157  52.941  1.00  0.00     0.099 C 
HETATM    2  C5  UNL     1      23.925   1.175  52.457  1.00  0.00     0.028 C 
HETATM    3  C6  UNL     1      24.695   2.260  51.852  1.00  0.00     0.118 C 
HETATM    4  C7  UNL     1      26.099   1.876  51.667  1.00  0.00     0.050 C 
HETATM    5  N1  UNL     1      26.847   2.453  50.750  1.00  0.00    -0.246 NA
HETATM    6  C8  UNL     1      26.263   3.437  49.911  1.00  0.00     0.229 C 
HETATM    7  N2  UNL     1      25.027   3.773  49.982  1.00  0.00    -0.246 NA
HETATM    8  C9  UNL     1      24.078   3.185  50.907  1.00  0.00     0.356 C 
HETATM    9  C12 UNL     1      26.809   0.768  52.290  1.00  0.00     0.067 C 
HETATM   10  C13 UNL     1      26.023  -0.124  52.927  1.00  0.00     0.103 C 
ENDROOT
BRANCH   8  11
HETATM   11  N3  UNL     1      22.962   2.582  50.172  1.00  0.00     0.110 N 
HETATM   12  H12 UNL     1      22.100   2.898  50.634  1.00  0.00     0.318 HD
BRANCH  11  13
HETATM   13  C10 UNL     1      23.030   3.039  48.809  1.00  0.00     0.287 C 
BRANCH  13  14
HETATM   14  C11 UNL     1      22.277   2.078  47.906  1.00  0.00     0.144 C 
HETATM   15 CL1  UNL     1      21.441   0.897  48.955  1.00  0.00    -0.129 Cl
ENDBRANCH  13  14
ENDBRANCH  11  13
ENDBRANCH   8  11
BRANCH   1  16
HETATM   16  O1  UNL     1      23.803  -0.799  53.517  1.00  0.00    -0.349 OA
BRANCH  16  17
HETATM   17  C3  UNL     1      22.483  -1.123  53.183  1.00  0.00     0.175 C 
BRANCH  17  18
HETATM   18  C2  UNL     1      21.653  -1.143  54.451  1.00  0.00     0.022 C 
HETATM   19  C1  UNL     1      20.962   0.180  54.687  1.00  0.00     0.007 C 
ENDBRANCH  17  18
ENDBRANCH  16  17
ENDBRANCH   1  16
BRANCH  10  20
HETATM   20  O2  UNL     1      26.565  -1.246  53.536  1.00  0.00    -0.353 OA
HETATM   21  C14 UNL     1      27.175  -2.184  52.659  1.00  0.00     0.210 C 
ENDBRANCH  10  20
TORSDOF 7
ENDMDL
MODEL 6
REMARK VINA RESULT:      -6.3      2.441      4.752
REMARK  7 active torsions:
REMARK  status: ('A' for Active; 'I' for Inactive)
REMARK    1  A    between atoms: C2_2  and  C3_3 
REMARK    2  A    between atoms: C3_3  and  O1_4 
REMARK    3  A    between atoms: O1_4  and  C4_5 
REMARK    4  A    between atoms: C9_12  and  N3_13 
REMARK    5  A    between atoms: N3_13  and  C10_14 
REMARK    6  A    between atoms: C10_14  and  C11_15 
REMARK    7  A    between atoms: C13_18  and  O2_19 
ROOT
HETATM    1  C4  UNL     1      22.835   0.965  53.120  1.00  0.00     0.099 C 
HETATM    2  C5  UNL     1      24.079   0.621  53.348  1.00  0.00     0.028 C 
HETATM    3  C6  UNL     1      25.081   1.033  52.367  1.00  0.00     0.118 C 
HETATM    4  C7  UNL     1      24.526   2.001  51.415  1.00  0.00     0.050 C 
HETATM    5  N1  UNL     1      25.304   2.848  50.776  1.00  0.00    -0.246 NA
HETATM    6  C8  UNL     1      26.697   2.837  51.047  1.00  0.00     0.229 C 
HETATM    7  N2  UNL     1      27.235   2.057  51.911  1.00  0.00    -0.246 NA
HETATM    8  C9  UNL     1      26.494   1.112  52.724  1.00  0.00     0.356 C 
HETATM    9  C12 UNL     1      23.124   2.291  51.156  1.00  0.00     0.067 C 
HETATM   10  C13 UNL     1      22.261   1.770  52.051  1.00  0.00     0.103 C 
ENDROOT
BRANCH   8  11
HETATM   11  N3  UNL     1      26.705   1.394  54.146  1.00  0.00     0.110 N 
HETATM   12  H12 UNL     1      25.774   1.527  54.561  1.00  0.00     0.318 HD
BRANCH  11  13
HETATM   13  C10 UNL     1      27.386   0.267  54.727  1.00  0.00     0.287 C 
BRANCH  13  14
HETATM   14  C11 UNL     1      28.888   0.464  54.623  1.00  0.00     0.144 C 
HETATM   15 CL1  UNL     1      29.552  -0.926  53.716  1.00  0.00    -0.129 Cl
ENDBRANCH  13  14
ENDBRANCH  11  13
ENDBRANCH   8  11
BRANCH   1  16
HETATM   16  O1  UNL     1      21.956   0.514  54.067  1.00  0.00    -0.349 OA
BRANCH  16  17
HETATM   17  C3  UNL     1      21.998  -0.706  54.752  1.00  0.00     0.175 C 
BRANCH  17  18
HETATM   18  C2  UNL     1      20.932  -1.620  54.180  1.00  0.00     0.022 C 
HETATM   19  C1  UNL     1      19.738  -0.841  53.682  1.00  0.00     0.007 C 
ENDBRANCH  17  18
ENDBRANCH  16  17
ENDBRANCH   1  16
BRANCH  10  20
HETATM   20  O2  UNL     1      20.897   1.996  51.944  1.00  0.00    -0.353 OA
HETATM   21  C14 UNL     1      20.483   3.344  52.131  1.00  0.00     0.210 C 
ENDBRANCH  10  20
TORSDOF 7
ENDMDL
MODEL 7
REMARK VINA RESULT:      -6.1      2.481      4.945
REMARK  7 active torsions:
REMARK  status: ('A' for Active; 'I' for Inactive)
REMARK    1  A    between atoms: C2_2  and  C3_3 
REMARK    2  A    between atoms: C3_3  and  O1_4 
REMARK    3  A    between atoms: O1_4  and  C4_5 
REMARK    4  A    between atoms: C9_12  and  N3_13 
REMARK    5  A    between atoms: N3_13  and  C10_14 
REMARK    6  A    between atoms: C10_14  and  C11_15 
REMARK    7  A    between atoms: C13_18  and  O2_19 
ROOT
HETATM    1  C4  UNL     1      26.317   2.494  51.663  1.00  0.00     0.099 C 
HETATM    2  C5  UNL     1      25.415   1.955  52.446  1.00  0.00     0.028 C 
HETATM    3  C6  UNL     1      24.018   2.051  52.027  1.00  0.00     0.118 C 
HETATM    4  C7  UNL     1      23.909   2.524  50.642  1.00  0.00     0.050 C 
HETATM    5  N1  UNL     1      22.853   2.245  49.909  1.00  0.00    -0.246 NA
HETATM    6  C8  UNL     1      21.825   1.443  50.468  1.00  0.00     0.229 C 
HETATM    7  N2  UNL     1      21.887   0.949  51.650  1.00  0.00    -0.246 NA
HETATM    8  C9  UNL     1      23.011   1.132  52.548  1.00  0.00     0.356 C 
HETATM    9  C12 UNL     1      24.933   3.182  49.844  1.00  0.00     0.067 C 
HETATM   10  C13 UNL     1      26.175   3.144  50.368  1.00  0.00     0.103 C 
ENDROOT
BRANCH   8  11
HETATM   11  N3  UNL     1      23.573  -0.168  52.926  1.00  0.00     0.110 N 
HETATM   12  H12 UNL     1      24.184  -0.001  53.735  1.00  0.00     0.318 HD
BRANCH  11  13
HETATM   13  C10 UNL     1      22.481  -1.044  53.259  1.00  0.00     0.287 C 
BRANCH  13  14
HETATM   14  C11 UNL     1      22.096  -0.857  54.715  1.00  0.00     0.144 C 
HETATM   15 CL1  UNL     1      23.460  -1.440  55.712  1.00  0.00    -0.129 Cl
ENDBRANCH  13  14
ENDBRANCH  11  13
ENDBRANCH   8  11
BRANCH   1  16
HETATM   16  O1  UNL     1      27.595   2.388  52.142  1.00  0.00    -0.349 OA
BRANCH  16  17
HETATM   17  C3  UNL     1      27.991   2.199  53.471  1.00  0.00     0.175 C 
BRANCH  17  18
HETATM   18  C2  UNL     1      28.973   1.046  53.524  1.00  0.00     0.022 C 
HETATM   19  C1  UNL     1      28.279  -0.286  53.365  1.00  0.00     0.007 C 
ENDBRANCH  17  18
ENDBRANCH  16  17
ENDBRANCH   1  16
BRANCH  10  20
HETATM   20  O2  UNL     1      27.252   3.703  49.696  1.00  0.00    -0.353 OA
HETATM   21  C14 UNL     1      26.949   4.830  48.884  1.00  0.00     0.210 C 
ENDBRANCH  10  20
TORSDOF 7
ENDMDL
MODEL 8
REMARK VINA RESULT:      -6.0      3.405      5.341
REMARK  7 active torsions:
REMARK  status: ('A' for Active; 'I' for Inactive)
REMARK    1  A    between atoms: C2_2  and  C3_3 
REMARK    2  A    between atoms: C3_3  and  O1_4 
REMARK    3  A    between atoms: O1_4  and  C4_5 
REMARK    4  A    between atoms: C9_12  and  N3_13 
REMARK    5  A    between atoms: N3_13  and  C10_14 
REMARK    6  A    between atoms: C10_14  and  C11_15 
REMARK    7  A    between atoms: C13_18  and  O2_19 
ROOT
HETATM    1  C4  UNL     1      24.789   1.229  52.156  1.00  0.00     0.099 C 
HETATM    2  C5  UNL     1      23.658   0.626  52.427  1.00  0.00     0.028 C 
HETATM    3  C6  UNL     1      23.692  -0.462  53.403  1.00  0.00     0.118 C 
HETATM    4  C7  UNL     1      24.980  -0.505  54.105  1.00  0.00     0.050 C 
HETATM    5  N1  UNL     1      25.084  -1.042  55.302  1.00  0.00    -0.246 NA
HETATM    6  C8  UNL     1      23.917  -1.553  55.926  1.00  0.00     0.229 C 
HETATM    7  N2  UNL     1      22.753  -1.491  55.392  1.00  0.00    -0.246 NA
HETATM    8  C9  UNL     1      22.483  -0.882  54.104  1.00  0.00     0.356 C 
HETATM    9  C12 UNL     1      26.228   0.134  53.715  1.00  0.00     0.067 C 
HETATM   10  C13 UNL     1      26.118   1.041  52.723  1.00  0.00     0.103 C 
ENDROOT
BRANCH   8  11
HETATM   11  N3  UNL     1      21.508   0.202  54.251  1.00  0.00     0.110 N 
HETATM   12  H12 UNL     1      21.876   1.004  53.723  1.00  0.00     0.318 HD
BRANCH  11  13
HETATM   13  C10 UNL     1      20.253  -0.253  53.715  1.00  0.00     0.287 C 
BRANCH  13  14
HETATM   14  C11 UNL     1      19.920   0.522  52.453  1.00  0.00     0.144 C 
HETATM   15 CL1  UNL     1      18.509  -0.269  51.692  1.00  0.00    -0.129 Cl
ENDBRANCH  13  14
ENDBRANCH  11  13
ENDBRANCH   8  11
BRANCH   1  16
HETATM   16  O1  UNL     1      24.678   2.212  51.210  1.00  0.00    -0.349 OA
BRANCH  16  17
HETATM   17  C3  UNL     1      23.620   3.113  51.044  1.00  0.00     0.175 C 
BRANCH  17  18
HETATM   18  C2  UNL     1      23.688   4.150  52.147  1.00  0.00     0.022 C 
HETATM   19  C1  UNL     1      22.344   4.796  52.389  1.00  0.00     0.007 C 
ENDBRANCH  17  18
ENDBRANCH  16  17
ENDBRANCH   1  16
BRANCH  10  20
HETATM   20  O2  UNL     1      27.222   1.749  52.276  1.00  0.00    -0.353 OA
HETATM   21  C14 UNL     1      28.129   2.173  53.287  1.00  0.00     0.210 C 
ENDBRANCH  10  20
TORSDOF 7
ENDMDL
MODEL 9
REMARK VINA RESULT:      -5.9      2.883      5.187
REMARK  7 active torsions:
REMARK  status: ('A' for Active; 'I' for Inactive)
REMARK    1  A    between atoms: C2_2  and  C3_3 
REMARK    2  A    between atoms: C3_3  and  O1_4 
REMARK    3  A    between atoms: O1_4  and  C4_5 
REMARK    4  A    between atoms: C9_12  and  N3_13 
REMARK    5  A    between atoms: N3_13  and  C10_14 
REMARK    6  A    between atoms: C10_14  and  C11_15 
REMARK    7  A    between atoms: C13_18  and  O2_19 
ROOT
HETATM    1  C4  UNL     1      25.098   1.414  52.533  1.00  0.00     0.099 C 
HETATM    2  C5  UNL     1      23.866   1.215  52.134  1.00  0.00     0.028 C 
HETATM    3  C6  UNL     1      23.139   0.096  52.729  1.00  0.00     0.118 C 
HETATM    4  C7  UNL     1      23.861  -0.454  53.882  1.00  0.00     0.050 C 
HETATM    5  N1  UNL     1      23.227  -1.104  54.834  1.00  0.00    -0.246 NA
HETATM    6  C8  UNL     1      21.817  -1.238  54.750  1.00  0.00     0.229 C 
HETATM    7  N2  UNL     1      21.121  -0.728  53.800  1.00  0.00    -0.246 NA
HETATM    8  C9  UNL     1      21.680   0.055  52.715  1.00  0.00     0.356 C 
HETATM    9  C12 UNL     1      25.258  -0.251  54.237  1.00  0.00     0.067 C 
HETATM   10  C13 UNL     1      25.882   0.727  53.551  1.00  0.00     0.103 C 
ENDROOT
BRANCH   8  11
HETATM   11  N3  UNL     1      21.075   1.389  52.691  1.00  0.00     0.110 N 
HETATM   12  H12 UNL     1      21.835   2.054  52.499  1.00  0.00     0.318 HD
BRANCH  11  13
HETATM   13  C10 UNL     1      20.080   1.408  51.652  1.00  0.00     0.287 C 
BRANCH  13  14
HETATM   14  C11 UNL     1      20.600   2.183  50.455  1.00  0.00     0.144 C 
HETATM   15 CL1  UNL     1      21.208   0.994  49.267  1.00  0.00    -0.129 Cl
ENDBRANCH  13  14
ENDBRANCH  11  13
ENDBRANCH   8  11
BRANCH   1  16
HETATM   16  O1  UNL     1      25.719   2.460  51.906  1.00  0.00    -0.349 OA
BRANCH  16  17
HETATM   17  C3  UNL     1      25.319   3.101  50.727  1.00  0.00     0.175 C 
BRANCH  17  18
HETATM   18  C2  UNL     1      26.473   3.070  49.744  1.00  0.00     0.022 C 
HETATM   19  C1  UNL     1      26.787   4.448  49.210  1.00  0.00     0.007 C 
ENDBRANCH  17  18
ENDBRANCH  16  17
ENDBRANCH   1  16
BRANCH  10  20
HETATM   20  O2  UNL     1      27.205   1.050  53.811  1.00  0.00    -0.353 OA
HETATM   21  C14 UNL     1      27.869   0.208  54.744  1.00  0.00     0.210 C 
ENDBRANCH  10  20
TORSDOF 7
ENDMDL
