MODEL 1
REMARK VINA RESULT:      -9.0      0.000      0.000
REMARK  4 active torsions:
REMARK  status: ('A' for Active; 'I' for Inactive)
REMARK       I    between atoms: C1_2  and  N1_3 
REMARK    1  A    between atoms: C1_2  and  C15_20 
REMARK    2  A    between atoms: N1_3  and  C2_4 
REMARK    3  A    between atoms: C6_8  and  N2_9 
REMARK    4  A    between atoms: N2_9  and  C7_10 
ROOT
HETATM    1  C2  UNL     1      22.327   0.024  52.623  1.00  0.00     0.037 A 
HETATM    2  C3  UNL     1      21.242  -0.610  53.143  1.00  0.00     0.029 A 
HETATM    3  C4  UNL     1      21.247  -1.322  54.312  1.00  0.00     0.004 A 
HETATM    4  C5  UNL     1      22.404  -1.412  55.017  1.00  0.00     0.029 A 
HETATM    5  C6  UNL     1      23.552  -0.809  54.581  1.00  0.00     0.037 A 
HETATM    6  C14 UNL     1      23.480  -0.111  53.400  1.00  0.00     0.059 A 
ENDROOT
BRANCH   5   7
HETATM    7  N2  UNL     1      24.791  -0.840  55.258  1.00  0.00    -0.325 N 
HETATM    8  H5  UNL     1      25.050  -1.075  56.234  1.00  0.00     0.169 HD
BRANCH   7   9
HETATM    9  C7  UNL     1      25.958  -0.489  54.587  1.00  0.00     0.229 C 
HETATM   10  N3  UNL     1      26.532   0.773  54.805  1.00  0.00    -0.218 NA
HETATM   11  C8  UNL     1      27.827   0.871  54.126  1.00  0.00     0.044 C 
HETATM   12  C9  UNL     1      29.134   1.043  54.211  1.00  0.00     0.027 C 
HETATM   13  C13 UNL     1      27.417   0.452  52.660  1.00  0.00     0.118 C 
HETATM   14  C10 UNL     1      29.947  -0.111  53.650  1.00  0.00     0.004 C 
HETATM   15  C11 UNL     1      29.227  -1.174  53.150  1.00  0.00     0.027 C 
HETATM   16  C12 UNL     1      27.783  -0.966  53.181  1.00  0.00     0.044 C 
HETATM   17  N4  UNL     1      26.659  -1.504  53.651  1.00  0.00    -0.218 NA
ENDBRANCH   7   9
ENDBRANCH   5   7
BRANCH   1  18
HETATM   18  N1  UNL     1      22.411   0.776  51.428  1.00  0.00    -0.323 N 
HETATM   19  C1  UNL     1      22.228   2.152  51.171  1.00  0.00     0.252 C 
HETATM   20  O1  UNL     1      21.937   2.802  52.222  1.00  0.00    -0.268 OA
HETATM   21  H1  UNL     1      22.649   0.257  50.558  1.00  0.00     0.169 HD
BRANCH  19  22
HETATM   22  C15 UNL     1      22.341   2.835  49.870  1.00  0.00     0.010 A 
HETATM   23  C16 UNL     1      22.606   4.110  49.906  1.00  0.00     0.012 A 
HETATM   24  C17 UNL     1      22.730   4.840  48.650  1.00  0.00    -0.003 A 
HETATM   25  C18 UNL     1      22.539   4.036  47.601  1.00  0.00    -0.026 A 
HETATM   26  C19 UNL     1      22.239   2.603  47.433  1.00  0.00     0.032 A 
HETATM   27  C20 UNL     1      22.123   1.924  48.739  1.00  0.00     0.048 A 
ENDBRANCH  19  22
ENDBRANCH   1  18
TORSDOF 4
ENDMDL
MODEL 2
REMARK VINA RESULT:      -8.8      3.769      5.066
REMARK  4 active torsions:
REMARK  status: ('A' for Active; 'I' for Inactive)
REMARK       I    between atoms: C1_2  and  N1_3 
REMARK    1  A    between atoms: C1_2  and  C15_20 
REMARK    2  A    between atoms: N1_3  and  C2_4 
REMARK    3  A    between atoms: C6_8  and  N2_9 
REMARK    4  A    between atoms: N2_9  and  C7_10 
ROOT
HETATM    1  C2  UNL     1      24.497   3.858  49.677  1.00  0.00     0.037 A 
HETATM    2  C3  UNL     1      23.493   3.201  49.037  1.00  0.00     0.029 A 
HETATM    3  C4  UNL     1      22.680   2.269  49.622  1.00  0.00     0.004 A 
HETATM    4  C5  UNL     1      22.872   1.964  50.931  1.00  0.00     0.029 A 
HETATM    5  C6  UNL     1      23.854   2.569  51.666  1.00  0.00     0.037 A 
HETATM    6  C14 UNL     1      24.636   3.496  51.020  1.00  0.00     0.059 A 
ENDROOT
BRANCH   5   7
HETATM    7  N2  UNL     1      24.112   2.323  53.032  1.00  0.00    -0.325 N 
HETATM    8  H5  UNL     1      23.675   2.677  53.902  1.00  0.00     0.169 HD
BRANCH   7   9
HETATM    9  C7  UNL     1      25.146   1.466  53.401  1.00  0.00     0.229 C 
HETATM   10  N3  UNL     1      25.061   0.100  53.089  1.00  0.00    -0.218 NA
HETATM   11  C8  UNL     1      26.315  -0.580  53.424  1.00  0.00     0.044 C 
HETATM   12  C9  UNL     1      27.364  -1.274  53.020  1.00  0.00     0.027 C 
HETATM   13  C13 UNL     1      26.487  -0.142  54.930  1.00  0.00     0.118 C 
HETATM   14  C10 UNL     1      28.697  -0.611  53.319  1.00  0.00     0.004 C 
HETATM   15  C11 UNL     1      28.637   0.614  53.948  1.00  0.00     0.027 C 
HETATM   16  C12 UNL     1      27.280   1.030  54.287  1.00  0.00     0.044 C 
HETATM   17  N4  UNL     1      26.413   2.022  54.096  1.00  0.00    -0.218 NA
ENDBRANCH   7   9
ENDBRANCH   5   7
BRANCH   1  18
HETATM   18  N1  UNL     1      25.380   4.830  49.152  1.00  0.00    -0.323 N 
HETATM   19  C1  UNL     1      26.772   4.803  48.914  1.00  0.00     0.252 C 
HETATM   20  O1  UNL     1      27.293   3.693  49.242  1.00  0.00    -0.268 OA
HETATM   21  H1  UNL     1      24.967   5.745  48.878  1.00  0.00     0.169 HD
BRANCH  19  22
HETATM   22  C15 UNL     1      27.598   5.888  48.356  1.00  0.00     0.010 A 
HETATM   23  C16 UNL     1      26.977   6.992  48.054  1.00  0.00     0.012 A 
HETATM   24  C17 UNL     1      27.742   8.102  47.499  1.00  0.00    -0.003 A 
HETATM   25  C18 UNL     1      29.035   7.789  47.381  1.00  0.00    -0.026 A 
HETATM   26  C19 UNL     1      29.846   6.596  47.684  1.00  0.00     0.032 A 
HETATM   27  C20 UNL     1      29.013   5.510  48.238  1.00  0.00     0.048 A 
ENDBRANCH  19  22
ENDBRANCH   1  18
TORSDOF 4
ENDMDL
MODEL 3
REMARK VINA RESULT:      -8.7      2.222      2.948
REMARK  4 active torsions:
REMARK  status: ('A' for Active; 'I' for Inactive)
REMARK       I    between atoms: C1_2  and  N1_3 
REMARK    1  A    between atoms: C1_2  and  C15_20 
REMARK    2  A    between atoms: N1_3  and  C2_4 
REMARK    3  A    between atoms: C6_8  and  N2_9 
REMARK    4  A    between atoms: N2_9  and  C7_10 
ROOT
HETATM    1  C2  UNL     1      23.238   2.731  51.788  1.00  0.00     0.037 A 
HETATM    2  C3  UNL     1      21.883   2.641  51.887  1.00  0.00     0.029 A 
HETATM    3  C4  UNL     1      21.220   1.655  52.566  1.00  0.00     0.004 A 
HETATM    4  C5  UNL     1      21.944   0.691  53.191  1.00  0.00     0.029 A 
HETATM    5  C6  UNL     1      23.312   0.691  53.153  1.00  0.00     0.037 A 
HETATM    6  C14 UNL     1      23.917   1.708  52.455  1.00  0.00     0.059 A 
ENDROOT
BRANCH   5   7
HETATM    7  N2  UNL     1      24.140  -0.262  53.785  1.00  0.00    -0.325 N 
HETATM    8  H5  UNL     1      23.933  -1.089  54.374  1.00  0.00     0.169 HD
BRANCH   7   9
HETATM    9  C7  UNL     1      25.524  -0.159  53.680  1.00  0.00     0.229 C 
HETATM   10  N3  UNL     1      26.226   0.692  54.547  1.00  0.00    -0.218 NA
HETATM   11  C8  UNL     1      27.671   0.527  54.368  1.00  0.00     0.044 C 
HETATM   12  C9  UNL     1      28.840   0.194  54.884  1.00  0.00     0.027 C 
HETATM   13  C13 UNL     1      27.794   0.743  52.809  1.00  0.00     0.118 C 
HETATM   14  C10 UNL     1      29.534  -0.945  54.158  1.00  0.00     0.004 C 
HETATM   15  C11 UNL     1      28.857  -1.482  53.085  1.00  0.00     0.027 C 
HETATM   16  C12 UNL     1      27.603  -0.799  52.786  1.00  0.00     0.044 C 
HETATM   17  N4  UNL     1      26.297  -1.022  52.653  1.00  0.00    -0.218 NA
ENDBRANCH   7   9
ENDBRANCH   5   7
BRANCH   1  18
HETATM   18  N1  UNL     1      24.001   3.710  51.110  1.00  0.00    -0.323 N 
HETATM   19  C1  UNL     1      24.283   3.896  49.739  1.00  0.00     0.252 C 
HETATM   20  O1  UNL     1      23.741   3.008  49.013  1.00  0.00    -0.268 OA
HETATM   21  H1  UNL     1      24.451   4.445  51.693  1.00  0.00     0.169 HD
BRANCH  19  22
HETATM   22  C15 UNL     1      25.101   4.965  49.139  1.00  0.00     0.010 A 
HETATM   23  C16 UNL     1      26.392   4.796  49.176  1.00  0.00     0.012 A 
HETATM   24  C17 UNL     1      27.254   5.820  48.597  1.00  0.00    -0.003 A 
HETATM   25  C18 UNL     1      26.539   6.828  48.092  1.00  0.00    -0.026 A 
HETATM   26  C19 UNL     1      25.099   7.129  47.990  1.00  0.00     0.032 A 
HETATM   27  C20 UNL     1      24.284   6.058  48.596  1.00  0.00     0.048 A 
ENDBRANCH  19  22
ENDBRANCH   1  18
TORSDOF 4
ENDMDL
MODEL 4
REMARK VINA RESULT:      -8.5      1.600      6.436
REMARK  4 active torsions:
REMARK  status: ('A' for Active; 'I' for Inactive)
REMARK       I    between atoms: C1_2  and  N1_3 
REMARK    1  A    between atoms: C1_2  and  C15_20 
REMARK    2  A    between atoms: N1_3  and  C2_4 
REMARK    3  A    between atoms: C6_8  and  N2_9 
REMARK    4  A    between atoms: N2_9  and  C7_10 
ROOT
HETATM    1  C2  UNL     1      23.490  -0.517  53.723  1.00  0.00     0.037 A 
HETATM    2  C3  UNL     1      22.629  -0.888  54.709  1.00  0.00     0.029 A 
HETATM    3  C4  UNL     1      21.293  -0.593  54.723  1.00  0.00     0.004 A 
HETATM    4  C5  UNL     1      20.769   0.117  53.690  1.00  0.00     0.029 A 
HETATM    5  C6  UNL     1      21.550   0.537  52.648  1.00  0.00     0.037 A 
HETATM    6  C14 UNL     1      22.883   0.209  52.694  1.00  0.00     0.059 A 
ENDROOT
BRANCH   5   7
HETATM    7  N2  UNL     1      21.085   1.265  51.530  1.00  0.00    -0.325 N 
HETATM    8  H5  UNL     1      20.237   1.179  50.942  1.00  0.00     0.169 HD
BRANCH   7   9
HETATM    9  C7  UNL     1      21.843   2.316  51.022  1.00  0.00     0.229 C 
HETATM   10  N3  UNL     1      21.881   3.540  51.708  1.00  0.00    -0.218 NA
HETATM   11  C8  UNL     1      22.855   4.444  51.089  1.00  0.00     0.044 C 
HETATM   12  C9  UNL     1      23.964   5.152  51.198  1.00  0.00     0.027 C 
HETATM   13  C13 UNL     1      22.362   4.414  49.589  1.00  0.00     0.118 C 
HETATM   14  C10 UNL     1      25.045   4.767  50.203  1.00  0.00     0.004 C 
HETATM   15  C11 UNL     1      24.737   3.737  49.342  1.00  0.00     0.027 C 
HETATM   16  C12 UNL     1      23.374   3.238  49.493  1.00  0.00     0.044 C 
HETATM   17  N4  UNL     1      22.690   2.123  49.741  1.00  0.00    -0.218 NA
ENDBRANCH   7   9
ENDBRANCH   5   7
BRANCH   1  18
HETATM   18  N1  UNL     1      24.877  -0.777  53.629  1.00  0.00    -0.323 N 
HETATM   19  C1  UNL     1      25.999   0.076  53.715  1.00  0.00     0.252 C 
HETATM   20  O1  UNL     1      25.669   1.286  53.910  1.00  0.00    -0.268 OA
HETATM   21  H1  UNL     1      25.163  -1.764  53.470  1.00  0.00     0.169 HD
BRANCH  19  22
HETATM   22  C15 UNL     1      27.417  -0.309  53.601  1.00  0.00     0.010 A 
HETATM   23  C16 UNL     1      28.292   0.604  53.916  1.00  0.00     0.012 A 
HETATM   24  C17 UNL     1      29.711   0.281  53.824  1.00  0.00    -0.003 A 
HETATM   25  C18 UNL     1      29.897  -0.973  53.406  1.00  0.00    -0.026 A 
HETATM   26  C19 UNL     1      29.006  -2.084  53.026  1.00  0.00     0.032 A 
HETATM   27  C20 UNL     1      27.587  -1.692  53.137  1.00  0.00     0.048 A 
ENDBRANCH  19  22
ENDBRANCH   1  18
TORSDOF 4
ENDMDL
MODEL 5
REMARK VINA RESULT:      -8.4      3.068      5.425
REMARK  4 active torsions:
REMARK  status: ('A' for Active; 'I' for Inactive)
REMARK       I    between atoms: C1_2  and  N1_3 
REMARK    1  A    between atoms: C1_2  and  C15_20 
REMARK    2  A    between atoms: N1_3  and  C2_4 
REMARK    3  A    between atoms: C6_8  and  N2_9 
REMARK    4  A    between atoms: N2_9  and  C7_10 
ROOT
HETATM    1  C2  UNL     1      23.179  -0.004  53.091  1.00  0.00     0.037 A 
HETATM    2  C3  UNL     1      23.920  -0.915  53.778  1.00  0.00     0.029 A 
HETATM    3  C4  UNL     1      25.177  -0.682  54.265  1.00  0.00     0.004 A 
HETATM    4  C5  UNL     1      25.742   0.536  54.062  1.00  0.00     0.029 A 
HETATM    5  C6  UNL     1      25.080   1.523  53.385  1.00  0.00     0.037 A 
HETATM    6  C14 UNL     1      23.821   1.225  52.921  1.00  0.00     0.059 A 
ENDROOT
BRANCH   5   7
HETATM    7  N2  UNL     1      25.586   2.819  53.142  1.00  0.00    -0.325 N 
HETATM    8  H5  UNL     1      25.961   3.553  53.770  1.00  0.00     0.169 HD
BRANCH   7   9
HETATM    9  C7  UNL     1      25.620   3.320  51.844  1.00  0.00     0.229 C 
HETATM   10  N3  UNL     1      24.626   4.214  51.418  1.00  0.00    -0.218 NA
HETATM   11  C8  UNL     1      24.941   4.733  50.084  1.00  0.00     0.044 C 
HETATM   12  C9  UNL     1      25.214   5.770  49.314  1.00  0.00     0.027 C 
HETATM   13  C13 UNL     1      25.155   3.383  49.294  1.00  0.00     0.118 C 
HETATM   14  C10 UNL     1      26.554   5.678  48.604  1.00  0.00     0.004 C 
HETATM   15  C11 UNL     1      27.302   4.551  48.866  1.00  0.00     0.027 C 
HETATM   16  C12 UNL     1      26.629   3.594  49.738  1.00  0.00     0.044 C 
HETATM   17  N4  UNL     1      26.780   2.944  50.890  1.00  0.00    -0.218 NA
ENDBRANCH   7   9
ENDBRANCH   5   7
BRANCH   1  18
HETATM   18  N1  UNL     1      21.880  -0.160  52.554  1.00  0.00    -0.323 N 
HETATM   19  C1  UNL     1      20.601   0.001  53.130  1.00  0.00     0.252 C 
HETATM   20  O1  UNL     1      20.665   0.347  54.350  1.00  0.00    -0.268 OA
HETATM   21  H1  UNL     1      21.812  -0.442  51.555  1.00  0.00     0.169 HD
BRANCH  19  22
HETATM   22  C15 UNL     1      19.299  -0.190  52.468  1.00  0.00     0.010 A 
HETATM   23  C16 UNL     1      19.153   0.372  51.302  1.00  0.00     0.012 A 
HETATM   24  C17 UNL     1      17.886   0.217  50.598  1.00  0.00    -0.003 A 
HETATM   25  C18 UNL     1      17.025  -0.520  51.304  1.00  0.00    -0.026 A 
HETATM   26  C19 UNL     1      17.071  -1.201  52.611  1.00  0.00     0.032 A 
HETATM   27  C20 UNL     1      18.376  -1.002  53.272  1.00  0.00     0.048 A 
ENDBRANCH  19  22
ENDBRANCH   1  18
TORSDOF 4
ENDMDL
MODEL 6
REMARK VINA RESULT:      -8.3      8.383     10.412
REMARK  4 active torsions:
REMARK  status: ('A' for Active; 'I' for Inactive)
REMARK       I    between atoms: C1_2  and  N1_3 
REMARK    1  A    between atoms: C1_2  and  C15_20 
REMARK    2  A    between atoms: N1_3  and  C2_4 
REMARK    3  A    between atoms: C6_8  and  N2_9 
REMARK    4  A    between atoms: N2_9  and  C7_10 
ROOT
HETATM    1  C2  UNL     1      30.023   7.680  48.509  1.00  0.00     0.037 A 
HETATM    2  C3  UNL     1      30.153   8.965  48.938  1.00  0.00     0.029 A 
HETATM    3  C4  UNL     1      31.166   9.807  48.566  1.00  0.00     0.004 A 
HETATM    4  C5  UNL     1      32.115   9.349  47.709  1.00  0.00     0.029 A 
HETATM    5  C6  UNL     1      32.074   8.073  47.218  1.00  0.00     0.037 A 
HETATM    6  C14 UNL     1      31.032   7.278  47.631  1.00  0.00     0.059 A 
ENDROOT
BRANCH   5   7
HETATM    7  N2  UNL     1      33.010   7.522  46.315  1.00  0.00    -0.325 N 
HETATM    8  H5  UNL     1      33.521   7.921  45.507  1.00  0.00     0.169 HD
BRANCH   7   9
HETATM    9  C7  UNL     1      33.378   6.185  46.425  1.00  0.00     0.229 C 
HETATM   10  N3  UNL     1      34.457   5.826  47.248  1.00  0.00    -0.218 NA
HETATM   11  C8  UNL     1      34.569   4.368  47.341  1.00  0.00     0.044 C 
HETATM   12  C9  UNL     1      34.548   3.281  48.091  1.00  0.00     0.027 C 
HETATM   13  C13 UNL     1      34.605   3.984  45.810  1.00  0.00     0.118 C 
HETATM   14  C10 UNL     1      33.491   2.269  47.686  1.00  0.00     0.004 C 
HETATM   15  C11 UNL     1      32.695   2.619  46.616  1.00  0.00     0.027 C 
HETATM   16  C12 UNL     1      33.066   3.891  46.006  1.00  0.00     0.044 C 
HETATM   17  N4  UNL     1      32.566   5.086  45.696  1.00  0.00    -0.218 NA
ENDBRANCH   7   9
ENDBRANCH   5   7
BRANCH   1  18
HETATM   18  N1  UNL     1      29.014   6.746  48.842  1.00  0.00    -0.323 N 
HETATM   19  C1  UNL     1      27.713   6.548  48.330  1.00  0.00     0.252 C 
HETATM   20  O1  UNL     1      27.429   7.373  47.409  1.00  0.00    -0.268 OA
HETATM   21  H1  UNL     1      29.233   6.062  49.595  1.00  0.00     0.169 HD
BRANCH  19  22
HETATM   22  C15 UNL     1      26.737   5.530  48.758  1.00  0.00     0.010 A 
HETATM   23  C16 UNL     1      27.221   4.367  49.090  1.00  0.00     0.012 A 
HETATM   24  C17 UNL     1      26.303   3.320  49.523  1.00  0.00    -0.003 A 
HETATM   25  C18 UNL     1      25.038   3.746  49.508  1.00  0.00    -0.026 A 
HETATM   26  C19 UNL     1      24.375   5.016  49.159  1.00  0.00     0.032 A 
HETATM   27  C20 UNL     1      25.357   6.030  48.727  1.00  0.00     0.048 A 
ENDBRANCH  19  22
ENDBRANCH   1  18
TORSDOF 4
ENDMDL
MODEL 7
REMARK VINA RESULT:      -8.2      2.182      5.203
REMARK  4 active torsions:
REMARK  status: ('A' for Active; 'I' for Inactive)
REMARK       I    between atoms: C1_2  and  N1_3 
REMARK    1  A    between atoms: C1_2  and  C15_20 
REMARK    2  A    between atoms: N1_3  and  C2_4 
REMARK    3  A    between atoms: C6_8  and  N2_9 
REMARK    4  A    between atoms: N2_9  and  C7_10 
ROOT
HETATM    1  C2  UNL     1      26.785   2.108  52.996  1.00  0.00     0.037 A 
HETATM    2  C3  UNL     1      28.088   2.097  53.387  1.00  0.00     0.029 A 
HETATM    3  C4  UNL     1      28.636   1.168  54.229  1.00  0.00     0.004 A 
HETATM    4  C5  UNL     1      27.843   0.180  54.719  1.00  0.00     0.029 A 
HETATM    5  C6  UNL     1      26.518   0.101  54.385  1.00  0.00     0.037 A 
HETATM    6  C14 UNL     1      26.030   1.064  53.536  1.00  0.00     0.059 A 
ENDROOT
BRANCH   5   7
HETATM    7  N2  UNL     1      25.628  -0.898  54.836  1.00  0.00    -0.325 N 
HETATM    8  H5  UNL     1      25.763  -1.746  55.416  1.00  0.00     0.169 HD
BRANCH   7   9
HETATM    9  C7  UNL     1      24.285  -0.845  54.477  1.00  0.00     0.229 C 
HETATM   10  N3  UNL     1      23.296  -0.899  55.471  1.00  0.00    -0.218 NA
HETATM   11  C8  UNL     1      21.971  -0.670  54.890  1.00  0.00     0.044 C 
HETATM   12  C9  UNL     1      20.877   0.068  54.833  1.00  0.00     0.027 C 
HETATM   13  C13 UNL     1      21.969  -1.753  53.741  1.00  0.00     0.118 C 
HETATM   14  C10 UNL     1      20.584   0.634  53.454  1.00  0.00     0.004 C 
HETATM   15  C11 UNL     1      21.490   0.321  52.465  1.00  0.00     0.027 C 
HETATM   16  C12 UNL     1      22.552  -0.576  52.909  1.00  0.00     0.044 C 
HETATM   17  N4  UNL     1      23.878  -0.665  52.994  1.00  0.00    -0.218 NA
ENDBRANCH   7   9
ENDBRANCH   5   7
BRANCH   1  18
HETATM   18  N1  UNL     1      26.139   3.025  52.135  1.00  0.00    -0.323 N 
HETATM   19  C1  UNL     1      26.144   3.154  50.729  1.00  0.00     0.252 C 
HETATM   20  O1  UNL     1      26.867   2.275  50.168  1.00  0.00    -0.268 OA
HETATM   21  H1  UNL     1      25.542   3.751  52.580  1.00  0.00     0.169 HD
BRANCH  19  22
HETATM   22  C15 UNL     1      25.424   4.161  49.928  1.00  0.00     0.010 A 
HETATM   23  C16 UNL     1      24.137   3.996  49.811  1.00  0.00     0.012 A 
HETATM   24  C17 UNL     1      23.371   4.961  49.031  1.00  0.00    -0.003 A 
HETATM   25  C18 UNL     1      24.159   5.915  48.529  1.00  0.00    -0.026 A 
HETATM   26  C19 UNL     1      25.603   6.206  48.589  1.00  0.00     0.032 A 
HETATM   27  C20 UNL     1      26.320   5.193  49.389  1.00  0.00     0.048 A 
ENDBRANCH  19  22
ENDBRANCH   1  18
TORSDOF 4
ENDMDL
MODEL 8
REMARK VINA RESULT:      -8.1      6.986      9.057
REMARK  4 active torsions:
REMARK  status: ('A' for Active; 'I' for Inactive)
REMARK       I    between atoms: C1_2  and  N1_3 
REMARK    1  A    between atoms: C1_2  and  C15_20 
REMARK    2  A    between atoms: N1_3  and  C2_4 
REMARK    3  A    between atoms: C6_8  and  N2_9 
REMARK    4  A    between atoms: N2_9  and  C7_10 
ROOT
HETATM    1  C2  UNL     1      27.734   5.601  48.544  1.00  0.00     0.037 A 
HETATM    2  C3  UNL     1      27.014   6.567  47.913  1.00  0.00     0.029 A 
HETATM    3  C4  UNL     1      27.560   7.630  47.246  1.00  0.00     0.004 A 
HETATM    4  C5  UNL     1      28.912   7.746  47.196  1.00  0.00     0.029 A 
HETATM    5  C6  UNL     1      29.727   6.826  47.797  1.00  0.00     0.037 A 
HETATM    6  C14 UNL     1      29.117   5.783  48.451  1.00  0.00     0.059 A 
ENDROOT
BRANCH   5   7
HETATM    7  N2  UNL     1      31.139   6.862  47.782  1.00  0.00    -0.325 N 
HETATM    8  H5  UNL     1      31.823   7.598  48.035  1.00  0.00     0.169 HD
BRANCH   7   9
HETATM    9  C7  UNL     1      31.858   5.754  47.342  1.00  0.00     0.229 C 
HETATM   10  N3  UNL     1      32.268   5.679  46.002  1.00  0.00    -0.218 NA
HETATM   11  C8  UNL     1      33.137   4.517  45.797  1.00  0.00     0.044 C 
HETATM   12  C9  UNL     1      34.320   4.041  45.451  1.00  0.00     0.027 C 
HETATM   13  C13 UNL     1      32.231   3.370  46.393  1.00  0.00     0.118 C 
HETATM   14  C10 UNL     1      34.998   3.221  46.535  1.00  0.00     0.004 C 
HETATM   15  C11 UNL     1      34.309   3.097  47.722  1.00  0.00     0.027 C 
HETATM   16  C12 UNL     1      32.993   3.726  47.700  1.00  0.00     0.044 C 
HETATM   17  N4  UNL     1      32.260   4.637  48.336  1.00  0.00    -0.218 NA
ENDBRANCH   7   9
ENDBRANCH   5   7
BRANCH   1  18
HETATM   18  N1  UNL     1      27.254   4.475  49.253  1.00  0.00    -0.323 N 
HETATM   19  C1  UNL     1      26.114   4.295  50.066  1.00  0.00     0.252 C 
HETATM   20  O1  UNL     1      25.417   5.352  50.156  1.00  0.00    -0.268 OA
HETATM   21  H1  UNL     1      27.815   3.601  49.189  1.00  0.00     0.169 HD
BRANCH  19  22
HETATM   22  C15 UNL     1      25.707   3.063  50.765  1.00  0.00     0.010 A 
HETATM   23  C16 UNL     1      26.669   2.290  51.182  1.00  0.00     0.012 A 
HETATM   24  C17 UNL     1      26.329   1.057  51.882  1.00  0.00    -0.003 A 
HETATM   25  C18 UNL     1      25.006   0.908  51.987  1.00  0.00    -0.026 A 
HETATM   26  C19 UNL     1      23.836   1.698  51.563  1.00  0.00     0.032 A 
HETATM   27  C20 UNL     1      24.248   2.929  50.860  1.00  0.00     0.048 A 
ENDBRANCH  19  22
ENDBRANCH   1  18
TORSDOF 4
ENDMDL
MODEL 9
REMARK VINA RESULT:      -8.1      3.409      6.585
REMARK  4 active torsions:
REMARK  status: ('A' for Active; 'I' for Inactive)
REMARK       I    between atoms: C1_2  and  N1_3 
REMARK    1  A    between atoms: C1_2  and  C15_20 
REMARK    2  A    between atoms: N1_3  and  C2_4 
REMARK    3  A    between atoms: C6_8  and  N2_9 
REMARK    4  A    between atoms: N2_9  and  C7_10 
ROOT
HETATM    1  C2  UNL     1      26.223   2.280  51.457  1.00  0.00     0.037 A 
HETATM    2  C3  UNL     1      26.887   1.106  51.634  1.00  0.00     0.029 A 
HETATM    3  C4  UNL     1      26.395   0.035  52.330  1.00  0.00     0.004 A 
HETATM    4  C5  UNL     1      25.161   0.129  52.889  1.00  0.00     0.029 A 
HETATM    5  C6  UNL     1      24.411   1.267  52.767  1.00  0.00     0.037 A 
HETATM    6  C14 UNL     1      24.961   2.306  52.057  1.00  0.00     0.059 A 
ENDROOT
BRANCH   5   7
HETATM    7  N2  UNL     1      23.116   1.444  53.303  1.00  0.00    -0.325 N 
HETATM    8  H5  UNL     1      22.777   1.659  54.259  1.00  0.00     0.169 HD
BRANCH   7   9
HETATM    9  C7  UNL     1      22.000   1.309  52.483  1.00  0.00     0.229 C 
HETATM   10  N3  UNL     1      21.402   0.050  52.324  1.00  0.00    -0.218 NA
HETATM   11  C8  UNL     1      20.161   0.165  51.553  1.00  0.00     0.044 C 
HETATM   12  C9  UNL     1      18.850   0.013  51.497  1.00  0.00     0.027 C 
HETATM   13  C13 UNL     1      20.684   0.937  50.279  1.00  0.00     0.118 C 
HETATM   14  C10 UNL     1      18.091   1.294  51.198  1.00  0.00     0.004 C 
HETATM   15  C11 UNL     1      18.855   2.430  51.043  1.00  0.00     0.027 C 
HETATM   16  C12 UNL     1      20.291   2.181  51.122  1.00  0.00     0.044 C 
HETATM   17  N4  UNL     1      21.380   2.550  51.795  1.00  0.00    -0.218 NA
ENDBRANCH   7   9
ENDBRANCH   5   7
BRANCH   1  18
HETATM   18  N1  UNL     1      26.654   3.431  50.757  1.00  0.00    -0.323 N 
HETATM   19  C1  UNL     1      26.171   4.052  49.584  1.00  0.00     0.252 C 
HETATM   20  O1  UNL     1      25.171   3.442  49.096  1.00  0.00    -0.268 OA
HETATM   21  H1  UNL     1      27.473   3.941  51.146  1.00  0.00     0.169 HD
BRANCH  19  22
HETATM   22  C15 UNL     1      26.705   5.263  48.937  1.00  0.00     0.010 A 
HETATM   23  C16 UNL     1      25.874   6.254  48.787  1.00  0.00     0.012 A 
HETATM   24  C17 UNL     1      26.345   7.480  48.153  1.00  0.00    -0.003 A 
HETATM   25  C18 UNL     1      27.631   7.383  47.806  1.00  0.00    -0.026 A 
HETATM   26  C19 UNL     1      28.660   6.335  47.920  1.00  0.00     0.032 A 
HETATM   27  C20 UNL     1      28.119   5.122  48.566  1.00  0.00     0.048 A 
ENDBRANCH  19  22
ENDBRANCH   1  18
TORSDOF 4
ENDMDL
