MODEL 1
REMARK VINA RESULT:      -9.9      0.000      0.000
REMARK  6 active torsions:
REMARK  status: ('A' for Active; 'I' for Inactive)
REMARK    1  A    between atoms: C5_5  and  N1_6 
REMARK    2  A    between atoms: N1_6  and  C6_7 
REMARK    3  A    between atoms: C9_11  and  N3_12 
REMARK    4  A    between atoms: N3_12  and  C11_14 
REMARK    5  A    between atoms: C21_27  and  S1_28 
REMARK    6  A    between atoms: S1_28  and  N7_29 
ROOT
HETATM    1  C6  UNL     1      23.772   4.353  52.488  1.00  0.00     0.702 A 
HETATM    2  N2  UNL     1      22.480   4.143  52.462  1.00  0.00    -0.077 NA
HETATM    3  C7  UNL     1      21.688   4.821  51.496  1.00  0.00     0.136 A 
HETATM    4  C8  UNL     1      22.291   5.658  50.639  1.00  0.00     0.040 A 
HETATM    5  C9  UNL     1      23.745   5.988  50.559  1.00  0.00     0.226 A 
HETATM    6  N6  UNL     1      24.450   5.233  51.606  1.00  0.00    -0.200 N 
HETATM    7  H22 UNL     1      25.482   5.385  51.661  1.00  0.00     0.180 HD
ENDROOT
BRANCH   1   8
HETATM    8  N1  UNL     1      24.505   3.650  53.470  1.00  0.00    -0.190 N 
HETATM    9  H6  UNL     1      24.578   4.102  54.413  1.00  0.00     0.184 HD
BRANCH   8  10
HETATM   10  C5  UNL     1      25.141   2.400  53.262  1.00  0.00     0.050 A 
HETATM   11  C4  UNL     1      24.622   1.303  52.619  1.00  0.00     0.030 A 
HETATM   12  C3  UNL     1      25.293   0.110  52.455  1.00  0.00     0.010 A 
HETATM   13  C2  UNL     1      26.570  -0.037  52.951  1.00  0.00    -0.039 A 
HETATM   14  C1  UNL     1      27.239  -1.335  52.746  1.00  0.00     0.050 C 
HETATM   15  C21 UNL     1      27.135   1.032  53.604  1.00  0.00     0.087 A 
HETATM   16  C20 UNL     1      26.430   2.207  53.746  1.00  0.00     0.055 A 
BRANCH  15  17
HETATM   17  S1  UNL     1      28.739   0.836  54.224  1.00  0.00     0.257 S 
HETATM   18  O1  UNL     1      28.699  -0.220  55.307  1.00  0.00    -0.201 OA
HETATM   19  O2  UNL     1      29.119   2.124  54.899  1.00  0.00    -0.201 OA
BRANCH  17  20
HETATM   20  N7  UNL     1      29.882   0.332  53.062  1.00  0.00    -0.324 N 
HETATM   21  H24 UNL     1      29.609  -0.550  52.580  1.00  0.00     0.169 HD
HETATM   22  H25 UNL     1      30.866   0.393  53.340  1.00  0.00     0.169 HD
ENDBRANCH  17  20
ENDBRANCH  15  17
ENDBRANCH   8  10
ENDBRANCH   1   8
BRANCH   5  23
HETATM   23  N3  UNL     1      24.287   5.683  49.255  1.00  0.00    -0.360 N 
HETATM   24  C10 UNL     1      23.356   5.292  48.226  1.00  0.00     0.152 C 
BRANCH  23  25
HETATM   25  C11 UNL     1      25.665   5.743  48.918  1.00  0.00     0.034 A 
HETATM   26  C12 UNL     1      26.547   4.686  48.959  1.00  0.00     0.030 A 
HETATM   27  C13 UNL     1      27.871   4.738  48.638  1.00  0.00     0.018 A 
HETATM   28  C14 UNL     1      28.410   5.938  48.233  1.00  0.00     0.018 A 
HETATM   29  C15 UNL     1      29.673   6.298  47.853  1.00  0.00     0.039 A 
HETATM   30  C18 UNL     1      27.580   7.036  48.170  1.00  0.00     0.091 A 
HETATM   31  C16 UNL     1      30.844   5.389  47.792  1.00  0.00     0.071 C 
HETATM   32  N4  UNL     1      29.609   7.613  47.562  1.00  0.00    -0.277 N 
HETATM   33  C17 UNL     1      30.732   8.430  47.109  1.00  0.00     0.179 C 
HETATM   34  N5  UNL     1      28.385   8.034  47.749  1.00  0.00    -0.172 NA
HETATM   35  C19 UNL     1      26.248   6.922  48.507  1.00  0.00     0.063 A 
ENDBRANCH  23  25
ENDBRANCH   5  23
TORSDOF 6
ENDMDL
MODEL 2
REMARK VINA RESULT:      -9.4      4.351      9.153
REMARK  6 active torsions:
REMARK  status: ('A' for Active; 'I' for Inactive)
REMARK    1  A    between atoms: C5_5  and  N1_6 
REMARK    2  A    between atoms: N1_6  and  C6_7 
REMARK    3  A    between atoms: C9_11  and  N3_12 
REMARK    4  A    between atoms: N3_12  and  C11_14 
REMARK    5  A    between atoms: C21_27  and  S1_28 
REMARK    6  A    between atoms: S1_28  and  N7_29 
ROOT
HETATM    1  C6  UNL     1      26.344   2.537  51.223  1.00  0.00     0.702 A 
HETATM    2  N2  UNL     1      27.467   2.559  51.895  1.00  0.00    -0.077 NA
HETATM    3  C7  UNL     1      27.460   2.189  53.267  1.00  0.00     0.136 A 
HETATM    4  C8  UNL     1      26.299   1.829  53.833  1.00  0.00     0.040 A 
HETATM    5  C9  UNL     1      24.955   1.761  53.188  1.00  0.00     0.226 A 
HETATM    6  N6  UNL     1      25.093   2.170  51.782  1.00  0.00    -0.200 N 
HETATM    7  H22 UNL     1      24.213   2.173  51.219  1.00  0.00     0.180 HD
ENDROOT
BRANCH   1   8
HETATM    8  N1  UNL     1      26.415   2.914  49.863  1.00  0.00    -0.190 N 
HETATM    9  H6  UNL     1      26.235   2.160  49.158  1.00  0.00     0.184 HD
BRANCH   8  10
HETATM   10  C5  UNL     1      26.716   4.221  49.403  1.00  0.00     0.050 A 
HETATM   11  C4  UNL     1      27.797   4.606  48.649  1.00  0.00     0.030 A 
HETATM   12  C3  UNL     1      28.036   5.900  48.237  1.00  0.00     0.010 A 
HETATM   13  C2  UNL     1      27.159   6.905  48.581  1.00  0.00    -0.039 A 
HETATM   14  C1  UNL     1      27.464   8.270  48.113  1.00  0.00     0.050 C 
HETATM   15  C21 UNL     1      26.060   6.572  49.335  1.00  0.00     0.087 A 
HETATM   16  C20 UNL     1      25.858   5.266  49.726  1.00  0.00     0.055 A 
BRANCH  15  17
HETATM   17  S1  UNL     1      24.965   7.843  49.762  1.00  0.00     0.257 S 
HETATM   18  O1  UNL     1      23.908   7.266  50.679  1.00  0.00    -0.201 OA
HETATM   19  O2  UNL     1      24.255   8.264  48.506  1.00  0.00    -0.201 OA
BRANCH  17  20
HETATM   20  N7  UNL     1      25.694   9.150  50.583  1.00  0.00    -0.324 N 
HETATM   21  H24 UNL     1      26.728   9.179  50.460  1.00  0.00     0.169 HD
HETATM   22  H25 UNL     1      25.360   9.328  51.535  1.00  0.00     0.169 HD
ENDBRANCH  17  20
ENDBRANCH  15  17
ENDBRANCH   8  10
ENDBRANCH   1   8
BRANCH   5  23
HETATM   23  N3  UNL     1      24.387   0.435  53.283  1.00  0.00    -0.360 N 
HETATM   24  C10 UNL     1      25.299  -0.661  53.489  1.00  0.00     0.152 C 
BRANCH  23  25
HETATM   25  C11 UNL     1      23.001   0.141  53.189  1.00  0.00     0.034 A 
HETATM   26  C12 UNL     1      22.261  -0.535  54.133  1.00  0.00     0.030 A 
HETATM   27  C13 UNL     1      20.930  -0.821  54.049  1.00  0.00     0.018 A 
HETATM   28  C14 UNL     1      20.231  -0.414  52.935  1.00  0.00     0.018 A 
HETATM   29  C15 UNL     1      18.921  -0.547  52.570  1.00  0.00     0.039 A 
HETATM   30  C18 UNL     1      20.915   0.269  51.953  1.00  0.00     0.091 A 
HETATM   31  C16 UNL     1      17.872  -1.226  53.371  1.00  0.00     0.071 C 
HETATM   32  N4  UNL     1      18.811   0.052  51.368  1.00  0.00    -0.277 N 
HETATM   33  C17 UNL     1      17.579   0.154  50.589  1.00  0.00     0.179 C 
HETATM   34  N5  UNL     1      19.978   0.525  51.016  1.00  0.00    -0.172 NA
HETATM   35  C19 UNL     1      22.262   0.529  52.094  1.00  0.00     0.063 A 
ENDBRANCH  23  25
ENDBRANCH   5  23
TORSDOF 6
ENDMDL
MODEL 3
REMARK VINA RESULT:      -9.3      4.220      9.120
REMARK  6 active torsions:
REMARK  status: ('A' for Active; 'I' for Inactive)
REMARK    1  A    between atoms: C5_5  and  N1_6 
REMARK    2  A    between atoms: N1_6  and  C6_7 
REMARK    3  A    between atoms: C9_11  and  N3_12 
REMARK    4  A    between atoms: N3_12  and  C11_14 
REMARK    5  A    between atoms: C21_27  and  S1_28 
REMARK    6  A    between atoms: S1_28  and  N7_29 
ROOT
HETATM    1  C6  UNL     1      26.372   2.419  51.216  1.00  0.00     0.702 A 
HETATM    2  N2  UNL     1      27.487   2.486  51.898  1.00  0.00    -0.077 NA
HETATM    3  C7  UNL     1      27.476   2.154  53.279  1.00  0.00     0.136 A 
HETATM    4  C8  UNL     1      26.317   1.780  53.844  1.00  0.00     0.040 A 
HETATM    5  C9  UNL     1      24.982   1.660  53.188  1.00  0.00     0.226 A 
HETATM    6  N6  UNL     1      25.125   2.035  51.773  1.00  0.00    -0.200 N 
HETATM    7  H22 UNL     1      24.251   2.001  51.201  1.00  0.00     0.180 HD
ENDROOT
BRANCH   1   8
HETATM    8  N1  UNL     1      26.448   2.761  49.847  1.00  0.00    -0.190 N 
HETATM    9  H6  UNL     1      26.543   1.967  49.171  1.00  0.00     0.184 HD
BRANCH   8  10
HETATM   10  C5  UNL     1      26.412   4.086  49.344  1.00  0.00     0.050 A 
HETATM   11  C4  UNL     1      25.302   4.875  49.166  1.00  0.00     0.030 A 
HETATM   12  C3  UNL     1      25.334   6.159  48.664  1.00  0.00     0.010 A 
HETATM   13  C2  UNL     1      26.536   6.728  48.305  1.00  0.00    -0.039 A 
HETATM   14  C1  UNL     1      26.510   8.103  47.773  1.00  0.00     0.050 C 
HETATM   15  C21 UNL     1      27.677   5.980  48.462  1.00  0.00     0.087 A 
HETATM   16  C20 UNL     1      27.601   4.700  48.968  1.00  0.00     0.055 A 
BRANCH  15  17
HETATM   17  S1  UNL     1      29.182   6.705  48.007  1.00  0.00     0.257 S 
HETATM   18  O1  UNL     1      29.030   7.262  46.607  1.00  0.00    -0.201 OA
HETATM   19  O2  UNL     1      30.202   5.604  47.919  1.00  0.00    -0.201 OA
BRANCH  17  20
HETATM   20  N7  UNL     1      29.674   7.989  49.016  1.00  0.00    -0.324 N 
HETATM   21  H24 UNL     1      29.299   8.911  48.711  1.00  0.00     0.169 HD
HETATM   22  H25 UNL     1      30.658   7.988  49.301  1.00  0.00     0.169 HD
ENDBRANCH  17  20
ENDBRANCH  15  17
ENDBRANCH   8  10
ENDBRANCH   1   8
BRANCH   5  23
HETATM   23  N3  UNL     1      24.447   0.324  53.312  1.00  0.00    -0.360 N 
HETATM   24  C10 UNL     1      25.389  -0.751  53.503  1.00  0.00     0.152 C 
BRANCH  23  25
HETATM   25  C11 UNL     1      23.066  -0.002  53.262  1.00  0.00     0.034 A 
HETATM   26  C12 UNL     1      22.397  -0.795  54.167  1.00  0.00     0.030 A 
HETATM   27  C13 UNL     1      21.071  -1.111  54.125  1.00  0.00     0.018 A 
HETATM   28  C14 UNL     1      20.301  -0.612  53.098  1.00  0.00     0.018 A 
HETATM   29  C15 UNL     1      18.976  -0.747  52.792  1.00  0.00     0.039 A 
HETATM   30  C18 UNL     1      20.912   0.189  52.159  1.00  0.00     0.091 A 
HETATM   31  C16 UNL     1      17.991  -1.537  53.571  1.00  0.00     0.071 C 
HETATM   32  N4  UNL     1      18.783  -0.030  51.667  1.00  0.00    -0.277 N 
HETATM   33  C17 UNL     1      17.508   0.114  50.969  1.00  0.00     0.179 C 
HETATM   34  N5  UNL     1      19.917   0.512  51.305  1.00  0.00    -0.172 NA
HETATM   35  C19 UNL     1      22.257   0.475  52.254  1.00  0.00     0.063 A 
ENDBRANCH  23  25
ENDBRANCH   5  23
TORSDOF 6
ENDMDL
MODEL 4
REMARK VINA RESULT:      -9.2      2.636      3.405
REMARK  6 active torsions:
REMARK  status: ('A' for Active; 'I' for Inactive)
REMARK    1  A    between atoms: C5_5  and  N1_6 
REMARK    2  A    between atoms: N1_6  and  C6_7 
REMARK    3  A    between atoms: C9_11  and  N3_12 
REMARK    4  A    between atoms: N3_12  and  C11_14 
REMARK    5  A    between atoms: C21_27  and  S1_28 
REMARK    6  A    between atoms: S1_28  and  N7_29 
ROOT
HETATM    1  C6  UNL     1      21.877   1.623  50.262  1.00  0.00     0.702 A 
HETATM    2  N2  UNL     1      21.835   1.226  49.016  1.00  0.00    -0.077 NA
HETATM    3  C7  UNL     1      22.446   2.025  48.013  1.00  0.00     0.136 A 
HETATM    4  C8  UNL     1      23.050   3.167  48.377  1.00  0.00     0.040 A 
HETATM    5  C9  UNL     1      23.171   3.734  49.752  1.00  0.00     0.226 A 
HETATM    6  N6  UNL     1      22.498   2.824  50.691  1.00  0.00    -0.200 N 
HETATM    7  H22 UNL     1      22.504   3.117  51.694  1.00  0.00     0.180 HD
ENDROOT
BRANCH   1   8
HETATM    8  N1  UNL     1      21.251   0.784  51.212  1.00  0.00    -0.190 N 
HETATM    9  H6  UNL     1      20.240   0.565  51.049  1.00  0.00     0.184 HD
BRANCH   8  10
HETATM   10  C5  UNL     1      21.892   0.239  52.353  1.00  0.00     0.050 A 
HETATM   11  C4  UNL     1      21.292  -0.339  53.445  1.00  0.00     0.030 A 
HETATM   12  C3  UNL     1      21.975  -0.847  54.529  1.00  0.00     0.010 A 
HETATM   13  C2  UNL     1      23.351  -0.794  54.563  1.00  0.00    -0.039 A 
HETATM   14  C1  UNL     1      24.029  -1.351  55.747  1.00  0.00     0.050 C 
HETATM   15  C21 UNL     1      24.001  -0.223  53.495  1.00  0.00     0.087 A 
HETATM   16  C20 UNL     1      23.280   0.273  52.430  1.00  0.00     0.055 A 
BRANCH  15  17
HETATM   17  S1  UNL     1      25.730  -0.160  53.549  1.00  0.00     0.257 S 
HETATM   18  O1  UNL     1      26.232   0.165  52.159  1.00  0.00    -0.201 OA
HETATM   19  O2  UNL     1      26.220  -1.546  53.864  1.00  0.00    -0.201 OA
BRANCH  17  20
HETATM   20  N7  UNL     1      26.355   1.023  54.607  1.00  0.00    -0.324 N 
HETATM   21  H24 UNL     1      26.828   0.613  55.440  1.00  0.00     0.169 HD
HETATM   22  H25 UNL     1      25.746   1.825  54.799  1.00  0.00     0.169 HD
ENDBRANCH  17  20
ENDBRANCH  15  17
ENDBRANCH   8  10
ENDBRANCH   1   8
BRANCH   5  23
HETATM   23  N3  UNL     1      24.553   3.927  50.127  1.00  0.00    -0.360 N 
HETATM   24  C10 UNL     1      25.040   3.183  51.261  1.00  0.00     0.152 C 
BRANCH  23  25
HETATM   25  C11 UNL     1      25.459   4.791  49.457  1.00  0.00     0.034 A 
HETATM   26  C12 UNL     1      25.145   6.019  48.919  1.00  0.00     0.030 A 
HETATM   27  C13 UNL     1      26.010   6.853  48.275  1.00  0.00     0.018 A 
HETATM   28  C14 UNL     1      27.324   6.467  48.130  1.00  0.00     0.018 A 
HETATM   29  C15 UNL     1      28.402   7.071  47.548  1.00  0.00     0.039 A 
HETATM   30  C18 UNL     1      27.703   5.247  48.647  1.00  0.00     0.091 A 
HETATM   31  C16 UNL     1      28.388   8.397  46.882  1.00  0.00     0.071 C 
HETATM   32  N4  UNL     1      29.434   6.218  47.710  1.00  0.00    -0.277 N 
HETATM   33  C17 UNL     1      30.798   6.450  47.241  1.00  0.00     0.179 C 
HETATM   34  N5  UNL     1      29.017   5.158  48.352  1.00  0.00    -0.172 NA
HETATM   35  C19 UNL     1      26.782   4.446  49.289  1.00  0.00     0.063 A 
ENDBRANCH  23  25
ENDBRANCH   5  23
TORSDOF 6
ENDMDL
MODEL 5
REMARK VINA RESULT:      -9.1      3.832      7.245
REMARK  6 active torsions:
REMARK  status: ('A' for Active; 'I' for Inactive)
REMARK    1  A    between atoms: C5_5  and  N1_6 
REMARK    2  A    between atoms: N1_6  and  C6_7 
REMARK    3  A    between atoms: C9_11  and  N3_12 
REMARK    4  A    between atoms: N3_12  and  C11_14 
REMARK    5  A    between atoms: C21_27  and  S1_28 
REMARK    6  A    between atoms: S1_28  and  N7_29 
ROOT
HETATM    1  C6  UNL     1      21.257   2.509  50.978  1.00  0.00     0.702 A 
HETATM    2  N2  UNL     1      20.000   2.514  51.343  1.00  0.00    -0.077 NA
HETATM    3  C7  UNL     1      19.475   1.390  52.035  1.00  0.00     0.136 A 
HETATM    4  C8  UNL     1      20.287   0.354  52.294  1.00  0.00     0.040 A 
HETATM    5  C9  UNL     1      21.730   0.217  51.938  1.00  0.00     0.226 A 
HETATM    6  N6  UNL     1      22.149   1.434  51.225  1.00  0.00    -0.200 N 
HETATM    7  H22 UNL     1      23.146   1.458  50.911  1.00  0.00     0.180 HD
ENDROOT
BRANCH   1   8
HETATM    8  N1  UNL     1      21.720   3.655  50.294  1.00  0.00    -0.190 N 
HETATM    9  H6  UNL     1      20.994   4.355  50.009  1.00  0.00     0.184 HD
BRANCH   8  10
HETATM   10  C5  UNL     1      23.077   3.909  49.971  1.00  0.00     0.050 A 
HETATM   11  C4  UNL     1      24.071   2.982  49.778  1.00  0.00     0.030 A 
HETATM   12  C3  UNL     1      25.377   3.296  49.470  1.00  0.00     0.010 A 
HETATM   13  C2  UNL     1      25.756   4.614  49.336  1.00  0.00    -0.039 A 
HETATM   14  C1  UNL     1      27.166   4.890  49.006  1.00  0.00     0.050 C 
HETATM   15  C21 UNL     1      24.798   5.581  49.520  1.00  0.00     0.087 A 
HETATM   16  C20 UNL     1      23.503   5.225  49.826  1.00  0.00     0.055 A 
BRANCH  15  17
HETATM   17  S1  UNL     1      25.285   7.234  49.350  1.00  0.00     0.257 S 
HETATM   18  O1  UNL     1      24.055   8.104  49.490  1.00  0.00    -0.201 OA
HETATM   19  O2  UNL     1      25.775   7.415  47.940  1.00  0.00    -0.201 OA
BRANCH  17  20
HETATM   20  N7  UNL     1      26.414   7.755  50.518  1.00  0.00    -0.324 N 
HETATM   21  H24 UNL     1      26.483   8.792  50.581  1.00  0.00     0.169 HD
HETATM   22  H25 UNL     1      27.307   7.253  50.538  1.00  0.00     0.169 HD
ENDBRANCH  17  20
ENDBRANCH  15  17
ENDBRANCH   8  10
ENDBRANCH   1   8
BRANCH   5  23
HETATM   23  N3  UNL     1      22.548   0.003  53.109  1.00  0.00    -0.360 N 
HETATM   24  C10 UNL     1      21.931  -0.652  54.235  1.00  0.00     0.152 C 
BRANCH  23  25
HETATM   25  C11 UNL     1      23.910   0.388  53.226  1.00  0.00     0.034 A 
HETATM   26  C12 UNL     1      24.372   1.683  53.299  1.00  0.00     0.030 A 
HETATM   27  C13 UNL     1      25.677   2.060  53.411  1.00  0.00     0.018 A 
HETATM   28  C14 UNL     1      26.649   1.086  53.457  1.00  0.00     0.018 A 
HETATM   29  C15 UNL     1      28.010   1.147  53.564  1.00  0.00     0.039 A 
HETATM   30  C18 UNL     1      26.252  -0.232  53.388  1.00  0.00     0.091 A 
HETATM   31  C16 UNL     1      28.808   2.395  53.662  1.00  0.00     0.071 C 
HETATM   32  N4  UNL     1      28.438  -0.131  53.559  1.00  0.00    -0.277 N 
HETATM   33  C17 UNL     1      29.834  -0.551  53.654  1.00  0.00     0.179 C 
HETATM   34  N5  UNL     1      27.407  -0.928  53.456  1.00  0.00    -0.172 NA
HETATM   35  C19 UNL     1      24.916  -0.552  53.275  1.00  0.00     0.063 A 
ENDBRANCH  23  25
ENDBRANCH   5  23
TORSDOF 6
ENDMDL
MODEL 6
REMARK VINA RESULT:      -9.0      3.665      6.949
REMARK  6 active torsions:
REMARK  status: ('A' for Active; 'I' for Inactive)
REMARK    1  A    between atoms: C5_5  and  N1_6 
REMARK    2  A    between atoms: N1_6  and  C6_7 
REMARK    3  A    between atoms: C9_11  and  N3_12 
REMARK    4  A    between atoms: N3_12  and  C11_14 
REMARK    5  A    between atoms: C21_27  and  S1_28 
REMARK    6  A    between atoms: S1_28  and  N7_29 
ROOT
HETATM    1  C6  UNL     1      23.277   5.780  49.838  1.00  0.00     0.702 A 
HETATM    2  N2  UNL     1      22.964   6.213  51.032  1.00  0.00    -0.077 NA
HETATM    3  C7  UNL     1      22.061   5.457  51.828  1.00  0.00     0.136 A 
HETATM    4  C8  UNL     1      21.556   4.320  51.327  1.00  0.00     0.040 A 
HETATM    5  C9  UNL     1      21.826   3.715  49.990  1.00  0.00     0.226 A 
HETATM    6  N6  UNL     1      22.762   4.588  49.266  1.00  0.00    -0.200 N 
HETATM    7  H22 UNL     1      23.026   4.277  48.304  1.00  0.00     0.180 HD
ENDROOT
BRANCH   1   8
HETATM    8  N1  UNL     1      24.179   6.575  49.095  1.00  0.00    -0.190 N 
HETATM    9  H6  UNL     1      23.791   7.449  48.668  1.00  0.00     0.184 HD
BRANCH   8  10
HETATM   10  C5  UNL     1      25.548   6.266  48.892  1.00  0.00     0.050 A 
HETATM   11  C4  UNL     1      26.124   5.019  48.882  1.00  0.00     0.030 A 
HETATM   12  C3  UNL     1      27.468   4.786  48.684  1.00  0.00     0.010 A 
HETATM   13  C2  UNL     1      28.327   5.843  48.477  1.00  0.00    -0.039 A 
HETATM   14  C1  UNL     1      29.754   5.535  48.271  1.00  0.00     0.050 C 
HETATM   15  C21 UNL     1      27.801   7.112  48.478  1.00  0.00     0.087 A 
HETATM   16  C20 UNL     1      26.451   7.302  48.680  1.00  0.00     0.055 A 
BRANCH  15  17
HETATM   17  S1  UNL     1      28.890   8.432  48.219  1.00  0.00     0.257 S 
HETATM   18  O1  UNL     1      28.072   9.701  48.103  1.00  0.00    -0.201 OA
HETATM   19  O2  UNL     1      29.539   8.222  46.879  1.00  0.00    -0.201 OA
BRANCH  17  20
HETATM   20  N7  UNL     1      30.020   8.666  49.476  1.00  0.00    -0.324 N 
HETATM   21  H24 UNL     1      30.385   7.771  49.864  1.00  0.00     0.169 HD
HETATM   22  H25 UNL     1      29.781   9.380  50.170  1.00  0.00     0.169 HD
ENDBRANCH  17  20
ENDBRANCH  15  17
ENDBRANCH   8  10
ENDBRANCH   1   8
BRANCH   5  23
HETATM   23  N3  UNL     1      22.360   2.378  50.111  1.00  0.00    -0.360 N 
HETATM   24  C10 UNL     1      21.877   1.386  49.184  1.00  0.00     0.152 C 
BRANCH  23  25
HETATM   25  C11 UNL     1      23.326   1.977  51.073  1.00  0.00     0.034 A 
HETATM   26  C12 UNL     1      23.096   1.129  52.132  1.00  0.00     0.030 A 
HETATM   27  C13 UNL     1      24.018   0.741  53.059  1.00  0.00     0.018 A 
HETATM   28  C14 UNL     1      25.304   1.221  52.959  1.00  0.00     0.018 A 
HETATM   29  C15 UNL     1      26.424   1.019  53.716  1.00  0.00     0.039 A 
HETATM   30  C18 UNL     1      25.599   2.076  51.919  1.00  0.00     0.091 A 
HETATM   31  C16 UNL     1      26.501   0.160  54.923  1.00  0.00     0.071 C 
HETATM   32  N4  UNL     1      27.396   1.751  53.138  1.00  0.00    -0.277 N 
HETATM   33  C17 UNL     1      28.776   1.841  53.610  1.00  0.00     0.179 C 
HETATM   34  N5  UNL     1      26.907   2.364  52.091  1.00  0.00    -0.172 NA
HETATM   35  C19 UNL     1      24.625   2.433  51.012  1.00  0.00     0.063 A 
ENDBRANCH  23  25
ENDBRANCH   5  23
TORSDOF 6
ENDMDL
MODEL 7
REMARK VINA RESULT:      -8.9      1.675      2.602
REMARK  6 active torsions:
REMARK  status: ('A' for Active; 'I' for Inactive)
REMARK    1  A    between atoms: C5_5  and  N1_6 
REMARK    2  A    between atoms: N1_6  and  C6_7 
REMARK    3  A    between atoms: C9_11  and  N3_12 
REMARK    4  A    between atoms: N3_12  and  C11_14 
REMARK    5  A    between atoms: C21_27  and  S1_28 
REMARK    6  A    between atoms: S1_28  and  N7_29 
ROOT
HETATM    1  C6  UNL     1      23.622   4.764  50.916  1.00  0.00     0.702 A 
HETATM    2  N2  UNL     1      22.744   4.739  49.945  1.00  0.00    -0.077 NA
HETATM    3  C7  UNL     1      23.081   5.317  48.692  1.00  0.00     0.136 A 
HETATM    4  C8  UNL     1      24.292   5.873  48.542  1.00  0.00     0.040 A 
HETATM    5  C9  UNL     1      25.381   5.970  49.558  1.00  0.00     0.226 A 
HETATM    6  N6  UNL     1      24.911   5.346  50.804  1.00  0.00    -0.200 N 
HETATM    7  H22 UNL     1      25.584   5.358  51.603  1.00  0.00     0.180 HD
ENDROOT
BRANCH   1   8
HETATM    8  N1  UNL     1      23.228   4.173  52.137  1.00  0.00    -0.190 N 
HETATM    9  H6  UNL     1      22.610   4.748  52.757  1.00  0.00     0.184 HD
BRANCH   8  10
HETATM   10  C5  UNL     1      23.616   2.879  52.570  1.00  0.00     0.050 A 
HETATM   11  C4  UNL     1      22.822   1.762  52.659  1.00  0.00     0.030 A 
HETATM   12  C3  UNL     1      23.260   0.530  53.095  1.00  0.00     0.010 A 
HETATM   13  C2  UNL     1      24.574   0.361  53.475  1.00  0.00    -0.039 A 
HETATM   14  C1  UNL     1      24.987  -0.978  53.933  1.00  0.00     0.050 C 
HETATM   15  C21 UNL     1      25.410   1.449  53.405  1.00  0.00     0.087 A 
HETATM   16  C20 UNL     1      24.931   2.664  52.963  1.00  0.00     0.055 A 
BRANCH  15  17
HETATM   17  S1  UNL     1      27.058   1.226  53.886  1.00  0.00     0.257 S 
HETATM   18  O1  UNL     1      27.695   0.236  52.935  1.00  0.00    -0.201 OA
HETATM   19  O2  UNL     1      27.045   0.569  55.239  1.00  0.00    -0.201 OA
BRANCH  17  20
HETATM   20  N7  UNL     1      27.998   2.649  53.847  1.00  0.00    -0.324 N 
HETATM   21  H24 UNL     1      27.648   3.384  54.497  1.00  0.00     0.169 HD
HETATM   22  H25 UNL     1      28.277   2.981  52.919  1.00  0.00     0.169 HD
ENDBRANCH  17  20
ENDBRANCH  15  17
ENDBRANCH   8  10
ENDBRANCH   1   8
BRANCH   5  23
HETATM   23  N3  UNL     1      26.596   5.339  49.096  1.00  0.00    -0.360 N 
HETATM   24  C10 UNL     1      26.744   3.927  49.347  1.00  0.00     0.152 C 
BRANCH  23  25
HETATM   25  C11 UNL     1      27.646   6.009  48.414  1.00  0.00     0.034 A 
HETATM   26  C12 UNL     1      27.536   7.218  47.764  1.00  0.00     0.030 A 
HETATM   27  C13 UNL     1      28.540   7.866  47.107  1.00  0.00     0.018 A 
HETATM   28  C14 UNL     1      29.789   7.290  47.069  1.00  0.00     0.018 A 
HETATM   29  C15 UNL     1      30.969   7.687  46.504  1.00  0.00     0.039 A 
HETATM   30  C18 UNL     1      29.966   6.078  47.701  1.00  0.00     0.091 A 
HETATM   31  C16 UNL     1      31.175   8.940  45.737  1.00  0.00     0.071 C 
HETATM   32  N4  UNL     1      31.860   6.716  46.791  1.00  0.00    -0.277 N 
HETATM   33  C17 UNL     1      33.263   6.715  46.385  1.00  0.00     0.179 C 
HETATM   34  N5  UNL     1      31.266   5.783  47.489  1.00  0.00    -0.172 NA
HETATM   35  C19 UNL     1      28.913   5.470  48.349  1.00  0.00     0.063 A 
ENDBRANCH  23  25
ENDBRANCH   5  23
TORSDOF 6
ENDMDL
MODEL 8
REMARK VINA RESULT:      -8.9      1.770      2.169
REMARK  6 active torsions:
REMARK  status: ('A' for Active; 'I' for Inactive)
REMARK    1  A    between atoms: C5_5  and  N1_6 
REMARK    2  A    between atoms: N1_6  and  C6_7 
REMARK    3  A    between atoms: C9_11  and  N3_12 
REMARK    4  A    between atoms: N3_12  and  C11_14 
REMARK    5  A    between atoms: C21_27  and  S1_28 
REMARK    6  A    between atoms: S1_28  and  N7_29 
ROOT
HETATM    1  C6  UNL     1      23.361   3.696  50.713  1.00  0.00     0.702 A 
HETATM    2  N2  UNL     1      22.309   4.396  51.056  1.00  0.00    -0.077 NA
HETATM    3  C7  UNL     1      22.412   5.810  51.127  1.00  0.00     0.136 A 
HETATM    4  C8  UNL     1      23.589   6.388  50.841  1.00  0.00     0.040 A 
HETATM    5  C9  UNL     1      24.859   5.715  50.440  1.00  0.00     0.226 A 
HETATM    6  N6  UNL     1      24.626   4.263  50.409  1.00  0.00    -0.200 N 
HETATM    7  H22 UNL     1      25.448   3.673  50.149  1.00  0.00     0.180 HD
ENDROOT
BRANCH   1   8
HETATM    8  N1  UNL     1      23.196   2.293  50.660  1.00  0.00    -0.190 N 
HETATM    9  H6  UNL     1      22.893   1.893  49.740  1.00  0.00     0.184 HD
BRANCH   8  10
HETATM   10  C5  UNL     1      23.404   1.414  51.752  1.00  0.00     0.050 A 
HETATM   11  C4  UNL     1      22.443   0.805  52.521  1.00  0.00     0.030 A 
HETATM   12  C3  UNL     1      22.713  -0.039  53.577  1.00  0.00     0.010 A 
HETATM   13  C2  UNL     1      24.018  -0.318  53.920  1.00  0.00    -0.039 A 
HETATM   14  C1  UNL     1      24.247  -1.226  55.059  1.00  0.00     0.050 C 
HETATM   15  C21 UNL     1      25.017   0.267  53.182  1.00  0.00     0.087 A 
HETATM   16  C20 UNL     1      24.705   1.105  52.133  1.00  0.00     0.055 A 
BRANCH  15  17
HETATM   17  S1  UNL     1      26.653  -0.090  53.622  1.00  0.00     0.257 S 
HETATM   18  O1  UNL     1      27.568   0.593  52.628  1.00  0.00    -0.201 OA
HETATM   19  O2  UNL     1      26.855  -1.569  53.438  1.00  0.00    -0.201 OA
BRANCH  17  20
HETATM   20  N7  UNL     1      27.094   0.453  55.178  1.00  0.00    -0.324 N 
HETATM   21  H24 UNL     1      27.895   1.118  55.164  1.00  0.00     0.169 HD
HETATM   22  H25 UNL     1      27.130  -0.261  55.912  1.00  0.00     0.169 HD
ENDBRANCH  17  20
ENDBRANCH  15  17
ENDBRANCH   8  10
ENDBRANCH   1   8
BRANCH   5  23
HETATM   23  N3  UNL     1      25.327   6.186  49.156  1.00  0.00    -0.360 N 
HETATM   24  C10 UNL     1      24.331   6.596  48.199  1.00  0.00     0.152 C 
BRANCH  23  25
HETATM   25  C11 UNL     1      26.693   6.273  48.776  1.00  0.00     0.034 A 
HETATM   26  C12 UNL     1      27.541   5.205  48.587  1.00  0.00     0.030 A 
HETATM   27  C13 UNL     1      28.853   5.282  48.223  1.00  0.00     0.018 A 
HETATM   28  C14 UNL     1      29.414   6.522  48.018  1.00  0.00     0.018 A 
HETATM   29  C15 UNL     1      30.672   6.914  47.655  1.00  0.00     0.039 A 
HETATM   30  C18 UNL     1      28.617   7.633  48.191  1.00  0.00     0.091 A 
HETATM   31  C16 UNL     1      31.810   6.003  47.379  1.00  0.00     0.071 C 
HETATM   32  N4  UNL     1      30.639   8.261  47.609  1.00  0.00    -0.277 N 
HETATM   33  C17 UNL     1      31.769   9.119  47.262  1.00  0.00     0.179 C 
HETATM   34  N5  UNL     1      29.437   8.671  47.923  1.00  0.00    -0.172 NA
HETATM   35  C19 UNL     1      27.297   7.492  48.560  1.00  0.00     0.063 A 
ENDBRANCH  23  25
ENDBRANCH   5  23
TORSDOF 6
ENDMDL
MODEL 9
REMARK VINA RESULT:      -8.9      4.395      7.766
REMARK  6 active torsions:
REMARK  status: ('A' for Active; 'I' for Inactive)
REMARK    1  A    between atoms: C5_5  and  N1_6 
REMARK    2  A    between atoms: N1_6  and  C6_7 
REMARK    3  A    between atoms: C9_11  and  N3_12 
REMARK    4  A    between atoms: N3_12  and  C11_14 
REMARK    5  A    between atoms: C21_27  and  S1_28 
REMARK    6  A    between atoms: S1_28  and  N7_29 
ROOT
HETATM    1  C6  UNL     1      20.539   0.979  49.963  1.00  0.00     0.702 A 
HETATM    2  N2  UNL     1      19.253   1.128  50.152  1.00  0.00    -0.077 NA
HETATM    3  C7  UNL     1      18.658   0.583  51.321  1.00  0.00     0.136 A 
HETATM    4  C8  UNL     1      19.436  -0.069  52.199  1.00  0.00     0.040 A 
HETATM    5  C9  UNL     1      20.906  -0.309  52.108  1.00  0.00     0.226 A 
HETATM    6  N6  UNL     1      21.398   0.293  50.860  1.00  0.00    -0.200 N 
HETATM    7  H22 UNL     1      22.421   0.184  50.673  1.00  0.00     0.180 HD
ENDROOT
BRANCH   1   8
HETATM    8  N1  UNL     1      21.072   1.543  48.782  1.00  0.00    -0.190 N 
HETATM    9  H6  UNL     1      21.018   0.955  47.917  1.00  0.00     0.184 HD
BRANCH   8  10
HETATM   10  C5  UNL     1      21.669   2.826  48.698  1.00  0.00     0.050 A 
HETATM   11  C4  UNL     1      22.166   3.438  47.574  1.00  0.00     0.030 A 
HETATM   12  C3  UNL     1      22.742   4.691  47.561  1.00  0.00     0.010 A 
HETATM   13  C2  UNL     1      22.846   5.413  48.730  1.00  0.00    -0.039 A 
HETATM   14  C1  UNL     1      23.471   6.746  48.657  1.00  0.00     0.050 C 
HETATM   15  C21 UNL     1      22.364   4.845  49.884  1.00  0.00     0.087 A 
HETATM   16  C20 UNL     1      21.795   3.590  49.853  1.00  0.00     0.055 A 
BRANCH  15  17
HETATM   17  S1  UNL     1      22.501   5.762  51.346  1.00  0.00     0.257 S 
HETATM   18  O1  UNL     1      21.956   4.921  52.481  1.00  0.00    -0.201 OA
HETATM   19  O2  UNL     1      21.587   6.949  51.219  1.00  0.00    -0.201 OA
BRANCH  17  20
HETATM   20  N7  UNL     1      24.100   6.194  51.754  1.00  0.00    -0.324 N 
HETATM   21  H24 UNL     1      24.467   6.981  51.179  1.00  0.00     0.169 HD
HETATM   22  H25 UNL     1      24.753   5.419  51.905  1.00  0.00     0.169 HD
ENDBRANCH  17  20
ENDBRANCH  15  17
ENDBRANCH   8  10
ENDBRANCH   1   8
BRANCH   5  23
HETATM   23  N3  UNL     1      21.604   0.236  53.250  1.00  0.00    -0.360 N 
HETATM   24  C10 UNL     1      20.833   0.477  54.443  1.00  0.00     0.152 C 
BRANCH  23  25
HETATM   25  C11 UNL     1      22.990   0.546  53.277  1.00  0.00     0.034 A 
HETATM   26  C12 UNL     1      23.536   1.789  53.046  1.00  0.00     0.030 A 
HETATM   27  C13 UNL     1      24.865   2.093  53.071  1.00  0.00     0.018 A 
HETATM   28  C14 UNL     1      25.771   1.094  53.346  1.00  0.00     0.018 A 
HETATM   29  C15 UNL     1      27.135   1.088  53.440  1.00  0.00     0.039 A 
HETATM   30  C18 UNL     1      25.288  -0.174  53.586  1.00  0.00     0.091 A 
HETATM   31  C16 UNL     1      28.014   2.268  53.245  1.00  0.00     0.071 C 
HETATM   32  N4  UNL     1      27.478  -0.181  53.735  1.00  0.00    -0.277 N 
HETATM   33  C17 UNL     1      28.845  -0.660  53.930  1.00  0.00     0.179 C 
HETATM   34  N5  UNL     1      26.395  -0.910  53.818  1.00  0.00    -0.172 NA
HETATM   35  C19 UNL     1      23.932  -0.421  53.548  1.00  0.00     0.063 A 
ENDBRANCH  23  25
ENDBRANCH   5  23
TORSDOF 6
ENDMDL
