MODEL 1
REMARK VINA RESULT:      -7.4      0.000      0.000
REMARK  6 active torsions:
REMARK  status: ('A' for Active; 'I' for Inactive)
REMARK    1  A    between atoms: O1_2  and  C2_3 
REMARK    2  A    between atoms: C3_5  and  C4_6 
REMARK    3  A    between atoms: C3_5  and  O3_22 
REMARK    4  A    between atoms: C7_9  and  N1_10 
REMARK    5  A    between atoms: N1_10  and  C8_11 
REMARK    6  A    between atoms: C11_14  and  O2_15 
ROOT
HETATM    1  C4  UNL     1      26.628   0.847  52.712  1.00  0.00     0.069 C 
HETATM    2  C5  UNL     1      25.954   1.850  52.227  1.00  0.00     0.045 A 
HETATM    3  C6  UNL     1      26.250   2.423  50.894  1.00  0.00     0.137 A 
HETATM    4  C7  UNL     1      25.332   3.554  50.598  1.00  0.00     0.111 A 
HETATM    5  N2  UNL     1      24.386   4.001  51.382  1.00  0.00    -0.228 NA
HETATM    6  C15 UNL     1      24.181   3.380  52.643  1.00  0.00     0.235 A 
HETATM    7  N3  UNL     1      24.910   2.382  53.034  1.00  0.00    -0.246 NA
ENDROOT
BRANCH   4   8
HETATM    8  N1  UNL     1      25.430   4.267  49.375  1.00  0.00    -0.344 N 
HETATM    9  H7  UNL     1      24.654   4.119  48.660  1.00  0.00     0.167 HD
BRANCH   8  10
HETATM   10  C8  UNL     1      26.457   5.169  48.992  1.00  0.00     0.033 A 
HETATM   11  C9  UNL     1      26.229   6.547  48.966  1.00  0.00     0.032 A 
HETATM   12  C10 UNL     1      27.203   7.450  48.607  1.00  0.00     0.039 A 
HETATM   13  C11 UNL     1      28.467   7.033  48.251  1.00  0.00     0.068 A 
HETATM   14  C13 UNL     1      28.728   5.693  48.263  1.00  0.00     0.039 A 
HETATM   15  C14 UNL     1      27.739   4.829  48.626  1.00  0.00     0.032 A 
BRANCH  13  16
HETATM   16  O2  UNL     1      29.460   7.929  47.885  1.00  0.00    -0.356 OA
HETATM   17  C12 UNL     1      30.452   8.325  48.814  1.00  0.00     0.210 C 
ENDBRANCH  13  16
ENDBRANCH   8  10
ENDBRANCH   4   8
BRANCH   1  18
HETATM   18  C3  UNL     1      26.389   0.240  54.008  1.00  0.00     0.133 C 
HETATM   19  C2  UNL     1      25.367  -0.555  54.268  1.00  0.00     0.258 C 
HETATM   20  F1  UNL     1      24.440  -0.887  53.367  1.00  0.00    -0.175 F 
BRANCH  19  21
HETATM   21  O1  UNL     1      24.881  -1.254  55.335  1.00  0.00    -0.330 OA
HETATM   22  C1  UNL     1      23.521  -1.448  55.631  1.00  0.00     0.212 C 
ENDBRANCH  19  21
BRANCH  18  23
HETATM   23  O3  UNL     1      27.299   0.527  55.006  1.00  0.00    -0.351 OA
HETATM   24  C16 UNL     1      28.674   0.274  54.952  1.00  0.00     0.210 C 
ENDBRANCH  18  23
ENDBRANCH   1  18
TORSDOF 6
ENDMDL
MODEL 2
REMARK VINA RESULT:      -7.2      5.388      8.656
REMARK  6 active torsions:
REMARK  status: ('A' for Active; 'I' for Inactive)
REMARK    1  A    between atoms: O1_2  and  C2_3 
REMARK    2  A    between atoms: C3_5  and  C4_6 
REMARK    3  A    between atoms: C3_5  and  O3_22 
REMARK    4  A    between atoms: C7_9  and  N1_10 
REMARK    5  A    between atoms: N1_10  and  C8_11 
REMARK    6  A    between atoms: C11_14  and  O2_15 
ROOT
HETATM    1  C4  UNL     1      24.493   0.535  52.754  1.00  0.00     0.069 C 
HETATM    2  C5  UNL     1      23.596  -0.062  53.487  1.00  0.00     0.045 A 
HETATM    3  C6  UNL     1      22.147   0.074  53.218  1.00  0.00     0.137 A 
HETATM    4  C7  UNL     1      21.358  -0.708  54.206  1.00  0.00     0.111 A 
HETATM    5  N2  UNL     1      21.848  -1.426  55.185  1.00  0.00    -0.228 NA
HETATM    6  C15 UNL     1      23.256  -1.492  55.356  1.00  0.00     0.235 A 
HETATM    7  N3  UNL     1      24.067  -0.858  54.569  1.00  0.00    -0.246 NA
ENDROOT
BRANCH   4   8
HETATM    8  N1  UNL     1      19.940  -0.726  54.153  1.00  0.00    -0.344 N 
HETATM    9  H7  UNL     1      19.420  -0.917  55.062  1.00  0.00     0.167 HD
BRANCH   8  10
HETATM   10  C8  UNL     1      19.126  -0.513  53.010  1.00  0.00     0.033 A 
HETATM   11  C9  UNL     1      17.855  -1.085  52.916  1.00  0.00     0.032 A 
HETATM   12  C10 UNL     1      17.037  -0.893  51.827  1.00  0.00     0.039 A 
HETATM   13  C11 UNL     1      17.438  -0.118  50.761  1.00  0.00     0.068 A 
HETATM   14  C13 UNL     1      18.675   0.457  50.815  1.00  0.00     0.039 A 
HETATM   15  C14 UNL     1      19.456   0.246  51.911  1.00  0.00     0.032 A 
BRANCH  13  16
HETATM   16  O2  UNL     1      16.628   0.085  49.654  1.00  0.00    -0.356 OA
HETATM   17  C12 UNL     1      15.974  -1.003  49.028  1.00  0.00     0.210 C 
ENDBRANCH  13  16
ENDBRANCH   8  10
ENDBRANCH   4   8
BRANCH   1  18
HETATM   18  C3  UNL     1      25.925   0.444  52.963  1.00  0.00     0.133 C 
HETATM   19  C2  UNL     1      26.591   1.204  53.814  1.00  0.00     0.258 C 
HETATM   20  F1  UNL     1      26.019   2.141  54.572  1.00  0.00    -0.175 F 
BRANCH  19  21
HETATM   21  O1  UNL     1      27.883   1.360  54.226  1.00  0.00    -0.330 OA
HETATM   22  C1  UNL     1      28.665   0.372  54.847  1.00  0.00     0.212 C 
ENDBRANCH  19  21
BRANCH  18  23
HETATM   23  O3  UNL     1      26.604  -0.501  52.220  1.00  0.00    -0.351 OA
HETATM   24  C16 UNL     1      26.834  -1.827  52.603  1.00  0.00     0.210 C 
ENDBRANCH  18  23
ENDBRANCH   1  18
TORSDOF 6
ENDMDL
MODEL 3
REMARK VINA RESULT:      -7.2      5.060      7.672
REMARK  6 active torsions:
REMARK  status: ('A' for Active; 'I' for Inactive)
REMARK    1  A    between atoms: O1_2  and  C2_3 
REMARK    2  A    between atoms: C3_5  and  C4_6 
REMARK    3  A    between atoms: C3_5  and  O3_22 
REMARK    4  A    between atoms: C7_9  and  N1_10 
REMARK    5  A    between atoms: N1_10  and  C8_11 
REMARK    6  A    between atoms: C11_14  and  O2_15 
ROOT
HETATM    1  C4  UNL     1      25.646  -0.248  52.873  1.00  0.00     0.069 C 
HETATM    2  C5  UNL     1      24.642  -0.568  53.638  1.00  0.00     0.045 A 
HETATM    3  C6  UNL     1      23.238  -0.426  53.189  1.00  0.00     0.137 A 
HETATM    4  C7  UNL     1      22.303  -0.860  54.259  1.00  0.00     0.111 A 
HETATM    5  N2  UNL     1      22.642  -1.310  55.440  1.00  0.00    -0.228 NA
HETATM    6  C15 UNL     1      24.018  -1.410  55.773  1.00  0.00     0.235 A 
HETATM    7  N3  UNL     1      24.946  -1.064  54.936  1.00  0.00    -0.246 NA
ENDROOT
BRANCH   4   8
HETATM    8  N1  UNL     1      20.898  -0.808  54.061  1.00  0.00    -0.344 N 
HETATM    9  H7  UNL     1      20.305  -1.518  54.588  1.00  0.00     0.167 HD
BRANCH   8  10
HETATM   10  C8  UNL     1      20.186   0.097  53.232  1.00  0.00     0.033 A 
HETATM   11  C9  UNL     1      19.081  -0.327  52.489  1.00  0.00     0.032 A 
HETATM   12  C10 UNL     1      18.364   0.524  51.681  1.00  0.00     0.039 A 
HETATM   13  C11 UNL     1      18.706   1.854  51.563  1.00  0.00     0.068 A 
HETATM   14  C13 UNL     1      19.781   2.305  52.273  1.00  0.00     0.039 A 
HETATM   15  C14 UNL     1      20.466   1.434  53.064  1.00  0.00     0.032 A 
BRANCH  13  16
HETATM   16  O2  UNL     1      17.995   2.726  50.752  1.00  0.00    -0.356 OA
HETATM   17  C12 UNL     1      17.456   3.924  51.278  1.00  0.00     0.210 C 
ENDBRANCH  13  16
ENDBRANCH   8  10
ENDBRANCH   4   8
BRANCH   1  18
HETATM   18  C3  UNL     1      27.042  -0.363  53.251  1.00  0.00     0.133 C 
HETATM   19  C2  UNL     1      27.761  -1.459  53.080  1.00  0.00     0.258 C 
HETATM   20  F1  UNL     1      27.280  -2.581  52.542  1.00  0.00    -0.175 F 
BRANCH  19  21
HETATM   21  O1  UNL     1      29.040  -1.871  53.319  1.00  0.00    -0.330 OA
HETATM   22  C1  UNL     1      30.094  -1.047  53.746  1.00  0.00     0.212 C 
ENDBRANCH  19  21
BRANCH  18  23
HETATM   23  O3  UNL     1      27.626   0.752  53.818  1.00  0.00    -0.351 OA
HETATM   24  C16 UNL     1      27.722   2.014  53.221  1.00  0.00     0.210 C 
ENDBRANCH  18  23
ENDBRANCH   1  18
TORSDOF 6
ENDMDL
MODEL 4
REMARK VINA RESULT:      -7.0      3.683      4.900
REMARK  6 active torsions:
REMARK  status: ('A' for Active; 'I' for Inactive)
REMARK    1  A    between atoms: O1_2  and  C2_3 
REMARK    2  A    between atoms: C3_5  and  C4_6 
REMARK    3  A    between atoms: C3_5  and  O3_22 
REMARK    4  A    between atoms: C7_9  and  N1_10 
REMARK    5  A    between atoms: N1_10  and  C8_11 
REMARK    6  A    between atoms: C11_14  and  O2_15 
ROOT
HETATM    1  C4  UNL     1      25.205  -0.124  53.028  1.00  0.00     0.069 C 
HETATM    2  C5  UNL     1      25.253   0.949  52.291  1.00  0.00     0.045 A 
HETATM    3  C6  UNL     1      24.028   1.628  51.814  1.00  0.00     0.137 A 
HETATM    4  C7  UNL     1      24.377   2.820  50.997  1.00  0.00     0.111 A 
HETATM    5  N2  UNL     1      25.587   3.236  50.724  1.00  0.00    -0.228 NA
HETATM    6  C15 UNL     1      26.698   2.513  51.232  1.00  0.00     0.235 A 
HETATM    7  N3  UNL     1      26.543   1.452  51.959  1.00  0.00    -0.246 NA
ENDROOT
BRANCH   4   8
HETATM    8  N1  UNL     1      23.363   3.631  50.424  1.00  0.00    -0.344 N 
HETATM    9  H7  UNL     1      22.844   4.295  51.073  1.00  0.00     0.167 HD
BRANCH   8  10
HETATM   10  C8  UNL     1      22.959   3.658  49.063  1.00  0.00     0.033 A 
HETATM   11  C9  UNL     1      22.749   2.473  48.352  1.00  0.00     0.032 A 
HETATM   12  C10 UNL     1      22.351   2.463  47.036  1.00  0.00     0.039 A 
HETATM   13  C11 UNL     1      22.139   3.636  46.345  1.00  0.00     0.068 A 
HETATM   14  C13 UNL     1      22.335   4.814  47.005  1.00  0.00     0.039 A 
HETATM   15  C14 UNL     1      22.727   4.786  48.309  1.00  0.00     0.032 A 
BRANCH  13  16
HETATM   16  O2  UNL     1      21.739   3.645  45.017  1.00  0.00    -0.356 OA
HETATM   17  C12 UNL     1      20.399   3.939  44.668  1.00  0.00     0.210 C 
ENDBRANCH  13  16
ENDBRANCH   8  10
ENDBRANCH   4   8
BRANCH   1  18
HETATM   18  C3  UNL     1      26.366  -0.837  53.527  1.00  0.00     0.133 C 
HETATM   19  C2  UNL     1      26.953  -1.828  52.879  1.00  0.00     0.258 C 
HETATM   20  F1  UNL     1      26.540  -2.283  51.695  1.00  0.00    -0.175 F 
BRANCH  19  21
HETATM   21  O1  UNL     1      28.013  -2.666  53.069  1.00  0.00    -0.330 OA
HETATM   22  C1  UNL     1      29.357  -2.269  53.164  1.00  0.00     0.212 C 
ENDBRANCH  19  21
BRANCH  18  23
HETATM   23  O3  UNL     1      26.864  -0.433  54.749  1.00  0.00    -0.351 OA
HETATM   24  C16 UNL     1      28.000   0.360  54.944  1.00  0.00     0.210 C 
ENDBRANCH  18  23
ENDBRANCH   1  18
TORSDOF 6
ENDMDL
MODEL 5
REMARK VINA RESULT:      -6.7      5.282      9.454
REMARK  6 active torsions:
REMARK  status: ('A' for Active; 'I' for Inactive)
REMARK    1  A    between atoms: O1_2  and  C2_3 
REMARK    2  A    between atoms: C3_5  and  C4_6 
REMARK    3  A    between atoms: C3_5  and  O3_22 
REMARK    4  A    between atoms: C7_9  and  N1_10 
REMARK    5  A    between atoms: N1_10  and  C8_11 
REMARK    6  A    between atoms: C11_14  and  O2_15 
ROOT
HETATM    1  C4  UNL     1      25.071   0.078  52.644  1.00  0.00     0.069 C 
HETATM    2  C5  UNL     1      23.913  -0.138  53.201  1.00  0.00     0.045 A 
HETATM    3  C6  UNL     1      22.646   0.293  52.566  1.00  0.00     0.137 A 
HETATM    4  C7  UNL     1      21.485  -0.078  53.417  1.00  0.00     0.111 A 
HETATM    5  N2  UNL     1      21.543  -0.701  54.566  1.00  0.00    -0.228 NA
HETATM    6  C15 UNL     1      22.809  -1.074  55.088  1.00  0.00     0.235 A 
HETATM    7  N3  UNL     1      23.909  -0.812  54.454  1.00  0.00    -0.246 NA
ENDROOT
BRANCH   4   8
HETATM    8  N1  UNL     1      20.161   0.239  53.017  1.00  0.00    -0.344 N 
HETATM    9  H7  UNL     1      19.976   1.233  52.685  1.00  0.00     0.167 HD
BRANCH   8  10
HETATM   10  C8  UNL     1      19.041  -0.633  53.007  1.00  0.00     0.033 A 
HETATM   11  C9  UNL     1      17.910  -0.340  52.240  1.00  0.00     0.032 A 
HETATM   12  C10 UNL     1      16.810  -1.166  52.201  1.00  0.00     0.039 A 
HETATM   13  C11 UNL     1      16.770  -2.336  52.927  1.00  0.00     0.068 A 
HETATM   14  C13 UNL     1      17.856  -2.656  53.689  1.00  0.00     0.039 A 
HETATM   15  C14 UNL     1      18.928  -1.815  53.702  1.00  0.00     0.032 A 
BRANCH  13  16
HETATM   16  O2  UNL     1      15.670  -3.180  52.901  1.00  0.00    -0.356 OA
HETATM   17  C12 UNL     1      15.817  -4.549  52.575  1.00  0.00     0.210 C 
ENDBRANCH  13  16
ENDBRANCH   8  10
ENDBRANCH   4   8
BRANCH   1  18
HETATM   18  C3  UNL     1      26.346  -0.318  53.212  1.00  0.00     0.133 C 
HETATM   19  C2  UNL     1      26.953  -1.457  52.927  1.00  0.00     0.258 C 
HETATM   20  F1  UNL     1      26.459  -2.368  52.087  1.00  0.00    -0.175 F 
BRANCH  19  21
HETATM   21  O1  UNL     1      28.107  -2.097  53.276  1.00  0.00    -0.330 OA
HETATM   22  C1  UNL     1      29.388  -1.519  53.284  1.00  0.00     0.212 C 
ENDBRANCH  19  21
BRANCH  18  23
HETATM   23  O3  UNL     1      26.935   0.565  54.094  1.00  0.00    -0.351 OA
HETATM   24  C16 UNL     1      26.898   1.960  53.997  1.00  0.00     0.210 C 
ENDBRANCH  18  23
ENDBRANCH   1  18
TORSDOF 6
ENDMDL
MODEL 6
REMARK VINA RESULT:      -6.7      2.976      8.254
REMARK  6 active torsions:
REMARK  status: ('A' for Active; 'I' for Inactive)
REMARK    1  A    between atoms: O1_2  and  C2_3 
REMARK    2  A    between atoms: C3_5  and  C4_6 
REMARK    3  A    between atoms: C3_5  and  O3_22 
REMARK    4  A    between atoms: C7_9  and  N1_10 
REMARK    5  A    between atoms: N1_10  and  C8_11 
REMARK    6  A    between atoms: C11_14  and  O2_15 
ROOT
HETATM    1  C4  UNL     1      26.843   6.106  48.647  1.00  0.00     0.069 C 
HETATM    2  C5  UNL     1      26.053   5.508  49.492  1.00  0.00     0.045 A 
HETATM    3  C6  UNL     1      26.097   4.043  49.705  1.00  0.00     0.137 A 
HETATM    4  C7  UNL     1      25.091   3.633  50.719  1.00  0.00     0.111 A 
HETATM    5  N2  UNL     1      24.271   4.431  51.353  1.00  0.00    -0.228 NA
HETATM    6  C15 UNL     1      24.309   5.823  51.078  1.00  0.00     0.235 A 
HETATM    7  N3  UNL     1      25.136   6.322  50.214  1.00  0.00    -0.246 NA
ENDROOT
BRANCH   4   8
HETATM    8  N1  UNL     1      24.943   2.270  51.086  1.00  0.00    -0.344 N 
HETATM    9  H7  UNL     1      24.069   1.766  50.747  1.00  0.00     0.167 HD
BRANCH   8  10
HETATM   10  C8  UNL     1      25.842   1.492  51.861  1.00  0.00     0.033 A 
HETATM   11  C9  UNL     1      27.053   2.026  52.307  1.00  0.00     0.032 A 
HETATM   12  C10 UNL     1      27.944   1.303  53.066  1.00  0.00     0.039 A 
HETATM   13  C11 UNL     1      27.681  -0.000  53.427  1.00  0.00     0.068 A 
HETATM   14  C13 UNL     1      26.507  -0.557  53.010  1.00  0.00     0.039 A 
HETATM   15  C14 UNL     1      25.649   0.190  52.261  1.00  0.00     0.032 A 
BRANCH  13  16
HETATM   16  O2  UNL     1      28.568  -0.744  54.190  1.00  0.00    -0.356 OA
HETATM   17  C12 UNL     1      29.893  -0.967  53.746  1.00  0.00     0.210 C 
ENDBRANCH  13  16
ENDBRANCH   8  10
ENDBRANCH   4   8
BRANCH   1  18
HETATM   18  C3  UNL     1      26.851   7.534  48.392  1.00  0.00     0.133 C 
HETATM   19  C2  UNL     1      26.092   8.121  47.483  1.00  0.00     0.258 C 
HETATM   20  F1  UNL     1      25.236   7.463  46.698  1.00  0.00    -0.175 F 
BRANCH  19  21
HETATM   21  O1  UNL     1      25.873   9.386  47.019  1.00  0.00    -0.330 OA
HETATM   22  C1  UNL     1      26.795  10.157  46.292  1.00  0.00     0.212 C 
ENDBRANCH  19  21
BRANCH  18  23
HETATM   23  O3  UNL     1      27.707   8.298  49.159  1.00  0.00    -0.351 OA
HETATM   24  C16 UNL     1      27.323   9.185  50.172  1.00  0.00     0.210 C 
ENDBRANCH  18  23
ENDBRANCH   1  18
TORSDOF 6
ENDMDL
MODEL 7
REMARK VINA RESULT:      -6.5      1.799      2.289
REMARK  6 active torsions:
REMARK  status: ('A' for Active; 'I' for Inactive)
REMARK    1  A    between atoms: O1_2  and  C2_3 
REMARK    2  A    between atoms: C3_5  and  C4_6 
REMARK    3  A    between atoms: C3_5  and  O3_22 
REMARK    4  A    between atoms: C7_9  and  N1_10 
REMARK    5  A    between atoms: N1_10  and  C8_11 
REMARK    6  A    between atoms: C11_14  and  O2_15 
ROOT
HETATM    1  C4  UNL     1      24.332   1.455  51.640  1.00  0.00     0.069 C 
HETATM    2  C5  UNL     1      24.325   2.733  51.384  1.00  0.00     0.045 A 
HETATM    3  C6  UNL     1      24.833   3.279  50.106  1.00  0.00     0.137 A 
HETATM    4  C7  UNL     1      24.706   4.760  50.085  1.00  0.00     0.111 A 
HETATM    5  N2  UNL     1      24.217   5.502  51.045  1.00  0.00    -0.228 NA
HETATM    6  C15 UNL     1      23.753   4.879  52.233  1.00  0.00     0.235 A 
HETATM    7  N3  UNL     1      23.804   3.594  52.390  1.00  0.00    -0.246 NA
ENDROOT
BRANCH   4   8
HETATM    8  N1  UNL     1      25.136   5.511  48.960  1.00  0.00    -0.344 N 
HETATM    9  H7  UNL     1      24.393   5.801  48.254  1.00  0.00     0.167 HD
BRANCH   8  10
HETATM   10  C8  UNL     1      26.460   5.926  48.666  1.00  0.00     0.033 A 
HETATM   11  C9  UNL     1      27.508   5.003  48.612  1.00  0.00     0.032 A 
HETATM   12  C10 UNL     1      28.802   5.370  48.324  1.00  0.00     0.039 A 
HETATM   13  C11 UNL     1      29.132   6.684  48.071  1.00  0.00     0.068 A 
HETATM   14  C13 UNL     1      28.136   7.616  48.116  1.00  0.00     0.039 A 
HETATM   15  C14 UNL     1      26.866   7.215  48.403  1.00  0.00     0.032 A 
BRANCH  13  16
HETATM   16  O2  UNL     1      30.431   7.072  47.780  1.00  0.00    -0.356 OA
HETATM   17  C12 UNL     1      31.515   6.614  48.566  1.00  0.00     0.210 C 
ENDBRANCH  13  16
ENDBRANCH   8  10
ENDBRANCH   4   8
BRANCH   1  18
HETATM   18  C3  UNL     1      23.850   0.856  52.870  1.00  0.00     0.133 C 
HETATM   19  C2  UNL     1      22.581   0.568  53.097  1.00  0.00     0.258 C 
HETATM   20  F1  UNL     1      21.602   0.798  52.219  1.00  0.00    -0.175 F 
BRANCH  19  21
HETATM   21  O1  UNL     1      21.837   0.025  54.104  1.00  0.00    -0.330 OA
HETATM   22  C1  UNL     1      21.916  -1.304  54.549  1.00  0.00     0.212 C 
ENDBRANCH  19  21
BRANCH  18  23
HETATM   23  O3  UNL     1      24.794   0.582  53.839  1.00  0.00    -0.351 OA
HETATM   24  C16 UNL     1      25.663  -0.515  53.842  1.00  0.00     0.210 C 
ENDBRANCH  18  23
ENDBRANCH   1  18
TORSDOF 6
ENDMDL
MODEL 8
REMARK VINA RESULT:      -6.5      2.865      8.732
REMARK  6 active torsions:
REMARK  status: ('A' for Active; 'I' for Inactive)
REMARK    1  A    between atoms: O1_2  and  C2_3 
REMARK    2  A    between atoms: C3_5  and  C4_6 
REMARK    3  A    between atoms: C3_5  and  O3_22 
REMARK    4  A    between atoms: C7_9  and  N1_10 
REMARK    5  A    between atoms: N1_10  and  C8_11 
REMARK    6  A    between atoms: C11_14  and  O2_15 
ROOT
HETATM    1  C4  UNL     1      28.696   6.381  47.863  1.00  0.00     0.069 C 
HETATM    2  C5  UNL     1      27.629   6.160  48.576  1.00  0.00     0.045 A 
HETATM    3  C6  UNL     1      27.134   4.789  48.840  1.00  0.00     0.137 A 
HETATM    4  C7  UNL     1      25.905   4.832  49.675  1.00  0.00     0.111 A 
HETATM    5  N2  UNL     1      25.322   5.911  50.129  1.00  0.00    -0.228 NA
HETATM    6  C15 UNL     1      25.879   7.180  49.821  1.00  0.00     0.235 A 
HETATM    7  N3  UNL     1      26.949   7.295  49.100  1.00  0.00    -0.246 NA
ENDROOT
BRANCH   4   8
HETATM    8  N1  UNL     1      25.242   3.635  50.053  1.00  0.00    -0.344 N 
HETATM    9  H7  UNL     1      24.444   3.302  49.433  1.00  0.00     0.167 HD
BRANCH   8  10
HETATM   10  C8  UNL     1      25.529   2.821  51.180  1.00  0.00     0.033 A 
HETATM   11  C9  UNL     1      26.632   1.963  51.184  1.00  0.00     0.032 A 
HETATM   12  C10 UNL     1      26.943   1.166  52.261  1.00  0.00     0.039 A 
HETATM   13  C11 UNL     1      26.171   1.173  53.402  1.00  0.00     0.068 A 
HETATM   14  C13 UNL     1      25.083   1.997  53.435  1.00  0.00     0.039 A 
HETATM   15  C14 UNL     1      24.807   2.774  52.351  1.00  0.00     0.032 A 
BRANCH  13  16
HETATM   16  O2  UNL     1      26.469   0.375  54.496  1.00  0.00    -0.356 OA
HETATM   17  C12 UNL     1      27.813   0.120  54.860  1.00  0.00     0.210 C 
ENDBRANCH  13  16
ENDBRANCH   8  10
ENDBRANCH   4   8
BRANCH   1  18
HETATM   18  C3  UNL     1      29.234   7.696  47.568  1.00  0.00     0.133 C 
HETATM   19  C2  UNL     1      30.185   8.276  48.279  1.00  0.00     0.258 C 
HETATM   20  F1  UNL     1      30.754   7.716  49.348  1.00  0.00    -0.175 F 
BRANCH  19  21
HETATM   21  O1  UNL     1      30.877   9.452  48.264  1.00  0.00    -0.330 OA
HETATM   22  C1  UNL     1      30.354  10.709  48.611  1.00  0.00     0.212 C 
ENDBRANCH  19  21
BRANCH  18  23
HETATM   23  O3  UNL     1      28.704   8.354  46.476  1.00  0.00    -0.351 OA
HETATM   24  C16 UNL     1      29.256   8.375  45.190  1.00  0.00     0.210 C 
ENDBRANCH  18  23
ENDBRANCH   1  18
TORSDOF 6
ENDMDL
MODEL 9
REMARK VINA RESULT:      -6.4      3.986      5.154
REMARK  6 active torsions:
REMARK  status: ('A' for Active; 'I' for Inactive)
REMARK    1  A    between atoms: O1_2  and  C2_3 
REMARK    2  A    between atoms: C3_5  and  C4_6 
REMARK    3  A    between atoms: C3_5  and  O3_22 
REMARK    4  A    between atoms: C7_9  and  N1_10 
REMARK    5  A    between atoms: N1_10  and  C8_11 
REMARK    6  A    between atoms: C11_14  and  O2_15 
ROOT
HETATM    1  C4  UNL     1      26.479   2.242  51.412  1.00  0.00     0.069 C 
HETATM    2  C5  UNL     1      25.407   2.976  51.327  1.00  0.00     0.045 A 
HETATM    3  C6  UNL     1      25.088   3.760  50.112  1.00  0.00     0.137 A 
HETATM    4  C7  UNL     1      23.813   4.503  50.291  1.00  0.00     0.111 A 
HETATM    5  N2  UNL     1      23.057   4.485  51.359  1.00  0.00    -0.228 NA
HETATM    6  C15 UNL     1      23.452   3.698  52.472  1.00  0.00     0.235 A 
HETATM    7  N3  UNL     1      24.543   2.999  52.457  1.00  0.00    -0.246 NA
ENDROOT
BRANCH   4   8
HETATM    8  N1  UNL     1      23.304   5.332  49.258  1.00  0.00    -0.344 N 
HETATM    9  H7  UNL     1      23.291   6.381  49.435  1.00  0.00     0.167 HD
BRANCH   8  10
HETATM   10  C8  UNL     1      22.806   4.914  47.996  1.00  0.00     0.033 A 
HETATM   11  C9  UNL     1      22.442   3.583  47.772  1.00  0.00     0.032 A 
HETATM   12  C10 UNL     1      21.950   3.146  46.564  1.00  0.00     0.039 A 
HETATM   13  C11 UNL     1      21.791   4.010  45.502  1.00  0.00     0.068 A 
HETATM   14  C13 UNL     1      22.137   5.318  45.682  1.00  0.00     0.039 A 
HETATM   15  C14 UNL     1      22.619   5.715  46.892  1.00  0.00     0.032 A 
BRANCH  13  16
HETATM   16  O2  UNL     1      21.298   3.586  44.278  1.00  0.00    -0.356 OA
HETATM   17  C12 UNL     1      20.595   4.478  43.434  1.00  0.00     0.210 C 
ENDBRANCH  13  16
ENDBRANCH   8  10
ENDBRANCH   4   8
BRANCH   1  18
HETATM   18  C3  UNL     1      26.849   1.452  52.571  1.00  0.00     0.133 C 
HETATM   19  C2  UNL     1      27.784   1.809  53.434  1.00  0.00     0.258 C 
HETATM   20  F1  UNL     1      28.491   2.936  53.333  1.00  0.00    -0.175 F 
BRANCH  19  21
HETATM   21  O1  UNL     1      28.344   1.312  54.575  1.00  0.00    -0.330 OA
HETATM   22  C1  UNL     1      28.974   0.062  54.695  1.00  0.00     0.212 C 
ENDBRANCH  19  21
BRANCH  18  23
HETATM   23  O3  UNL     1      26.168   0.266  52.759  1.00  0.00    -0.351 OA
HETATM   24  C16 UNL     1      26.568  -0.988  52.281  1.00  0.00     0.210 C 
ENDBRANCH  18  23
ENDBRANCH   1  18
TORSDOF 6
ENDMDL
