MODEL 1
REMARK VINA RESULT:      -9.3      0.000      0.000
REMARK  3 active torsions:
REMARK  status: ('A' for Active; 'I' for Inactive)
REMARK    1  A    between atoms: C1_2  and  C2_3 
REMARK    2  A    between atoms: C2_3  and  N1_4 
REMARK    3  A    between atoms: N1_4  and  C3_5 
ROOT
HETATM    1  C3  UNL     1      26.067   2.506  51.016  1.00  0.00     0.006 C 
HETATM    2  C4  UNL     1      26.449   1.319  51.388  1.00  0.00     0.041 C 
HETATM    3  C5  UNL     1      26.573   0.676  52.634  1.00  0.00     0.029 A 
HETATM    4  C6  UNL     1      27.879   1.144  52.907  1.00  0.00     0.133 A 
HETATM    5  N2  UNL     1      28.649   0.887  54.028  1.00  0.00    -0.253 NA
HETATM    6  C7  UNL     1      28.071   0.086  54.974  1.00  0.00     0.234 A 
HETATM    7  N3  UNL     1      26.837  -0.371  54.737  1.00  0.00    -0.224 NA
HETATM    8  C8  UNL     1      26.121  -0.106  53.647  1.00  0.00     0.141 A 
HETATM    9  N4  UNL     1      24.901  -0.820  53.785  1.00  0.00    -0.343 N 
HETATM   10  C9  UNL     1      23.577  -0.325  53.844  1.00  0.00     0.016 C 
HETATM   11  C10 UNL     1      22.567  -0.682  54.661  1.00  0.00     0.027 C 
HETATM   12  C11 UNL     1      21.313  -0.474  53.897  1.00  0.00     0.029 C 
HETATM   13  C12 UNL     1      21.626  -0.019  52.694  1.00  0.00     0.040 C 
HETATM   14  C13 UNL     1      22.898   0.728  53.016  1.00  0.00     0.116 C 
HETATM   15  N5  UNL     1      20.786  -0.342  51.568  1.00  0.00    -0.265 NA
HETATM   16  C14 UNL     1      20.966   0.268  50.462  1.00  0.00     0.116 C 
HETATM   17  C15 UNL     1      21.496   1.158  49.454  1.00  0.00     0.015 C 
HETATM   18  C16 UNL     1      21.707   1.807  48.338  1.00  0.00    -0.024 C 
HETATM   19  C17 UNL     1      22.720   2.804  48.144  1.00  0.00    -0.001 C 
HETATM   20  C18 UNL     1      23.534   3.094  49.198  1.00  0.00     0.026 C 
HETATM   21  C19 UNL     1      24.634   3.976  49.496  1.00  0.00     0.011 C 
HETATM   22  C20 UNL     1      25.922   3.310  49.826  1.00  0.00     0.057 C 
HETATM   23  H8  UNL     1      25.006  -1.886  53.855  1.00  0.00     0.167 HD
ENDROOT
BRANCH   1  24
HETATM   24  N1  UNL     1      25.744   3.161  52.185  1.00  0.00    -0.387 N 
HETATM   25  H4  UNL     1      26.540   3.693  52.663  1.00  0.00     0.159 HD
BRANCH  24  26
HETATM   26  C2  UNL     1      24.458   3.184  52.812  1.00  0.00     0.188 C 
BRANCH  26  27
HETATM   27  C1  UNL     1      23.809   4.524  52.855  1.00  0.00     0.250 C 
HETATM   28  O1  UNL     1      22.708   4.812  52.415  1.00  0.00    -0.305 OA
ENDBRANCH  26  27
ENDBRANCH  24  26
ENDBRANCH   1  24
TORSDOF 3
ENDMDL
MODEL 2
REMARK VINA RESULT:      -9.3      1.947      5.120
REMARK  3 active torsions:
REMARK  status: ('A' for Active; 'I' for Inactive)
REMARK    1  A    between atoms: C1_2  and  C2_3 
REMARK    2  A    between atoms: C2_3  and  N1_4 
REMARK    3  A    between atoms: N1_4  and  C3_5 
ROOT
HETATM    1  C3  UNL     1      22.447   2.782  51.313  1.00  0.00     0.006 C 
HETATM    2  C4  UNL     1      23.426   2.428  50.530  1.00  0.00     0.041 C 
HETATM    3  C5  UNL     1      24.752   2.868  50.361  1.00  0.00     0.029 A 
HETATM    4  C6  UNL     1      24.444   3.902  49.449  1.00  0.00     0.133 A 
HETATM    5  N2  UNL     1      25.323   4.787  48.849  1.00  0.00    -0.253 NA
HETATM    6  C7  UNL     1      26.641   4.632  49.184  1.00  0.00     0.234 A 
HETATM    7  N3  UNL     1      26.957   3.658  50.043  1.00  0.00    -0.224 NA
HETATM    8  C8  UNL     1      26.087   2.822  50.604  1.00  0.00     0.141 A 
HETATM    9  N4  UNL     1      26.847   1.930  51.406  1.00  0.00    -0.343 N 
HETATM   10  C9  UNL     1      26.789   1.712  52.803  1.00  0.00     0.016 C 
HETATM   11  C10 UNL     1      27.794   1.572  53.687  1.00  0.00     0.027 C 
HETATM   12  C11 UNL     1      27.293   0.676  54.757  1.00  0.00     0.029 C 
HETATM   13  C12 UNL     1      26.047   0.332  54.466  1.00  0.00     0.040 C 
HETATM   14  C13 UNL     1      25.603   1.562  53.712  1.00  0.00     0.116 C 
HETATM   15  N5  UNL     1      25.547  -0.956  54.880  1.00  0.00    -0.265 NA
HETATM   16  C14 UNL     1      24.297  -1.196  54.789  1.00  0.00     0.116 C 
HETATM   17  C15 UNL     1      22.884  -1.044  54.525  1.00  0.00     0.015 C 
HETATM   18  C16 UNL     1      21.598  -1.253  54.421  1.00  0.00    -0.024 C 
HETATM   19  C17 UNL     1      20.648  -0.305  53.915  1.00  0.00    -0.001 C 
HETATM   20  C18 UNL     1      21.119   0.904  53.498  1.00  0.00     0.026 C 
HETATM   21  C19 UNL     1      20.598   2.130  52.949  1.00  0.00     0.011 C 
HETATM   22  C20 UNL     1      21.063   2.472  51.579  1.00  0.00     0.057 C 
HETATM   23  H8  UNL     1      27.566   1.340  50.870  1.00  0.00     0.167 HD
ENDROOT
BRANCH   1  24
HETATM   24  N1  UNL     1      22.956   3.807  52.080  1.00  0.00    -0.387 N 
HETATM   25  H4  UNL     1      23.910   3.630  52.531  1.00  0.00     0.159 HD
BRANCH  24  26
HETATM   26  C2  UNL     1      22.325   5.067  52.332  1.00  0.00     0.188 C 
BRANCH  26  27
HETATM   27  C1  UNL     1      22.220   5.960  51.145  1.00  0.00     0.250 C 
HETATM   28  O1  UNL     1      21.522   6.957  51.046  1.00  0.00    -0.305 OA
ENDBRANCH  26  27
ENDBRANCH  24  26
ENDBRANCH   1  24
TORSDOF 3
ENDMDL
MODEL 3
REMARK VINA RESULT:      -9.2      2.378      5.605
REMARK  3 active torsions:
REMARK  status: ('A' for Active; 'I' for Inactive)
REMARK    1  A    between atoms: C1_2  and  C2_3 
REMARK    2  A    between atoms: C2_3  and  N1_4 
REMARK    3  A    between atoms: N1_4  and  C3_5 
ROOT
HETATM    1  C3  UNL     1      23.892   3.289  51.104  1.00  0.00     0.006 C 
HETATM    2  C4  UNL     1      22.943   3.656  51.917  1.00  0.00     0.041 C 
HETATM    3  C5  UNL     1      21.578   3.335  52.036  1.00  0.00     0.029 A 
HETATM    4  C6  UNL     1      21.121   4.308  51.119  1.00  0.00     0.133 A 
HETATM    5  N2  UNL     1      19.815   4.557  50.733  1.00  0.00    -0.253 NA
HETATM    6  C7  UNL     1      18.865   3.762  51.313  1.00  0.00     0.234 A 
HETATM    7  N3  UNL     1      19.272   2.836  52.186  1.00  0.00    -0.224 NA
HETATM    8  C8  UNL     1      20.538   2.622  52.538  1.00  0.00     0.141 A 
HETATM    9  N4  UNL     1      20.515   1.588  53.510  1.00  0.00    -0.343 N 
HETATM   10  C9  UNL     1      21.112   0.305  53.468  1.00  0.00     0.016 C 
HETATM   11  C10 UNL     1      20.603  -0.887  53.832  1.00  0.00     0.027 C 
HETATM   12  C11 UNL     1      21.746  -1.710  54.295  1.00  0.00     0.029 C 
HETATM   13  C12 UNL     1      22.852  -0.989  54.191  1.00  0.00     0.040 C 
HETATM   14  C13 UNL     1      22.484  -0.110  53.019  1.00  0.00     0.116 C 
HETATM   15  N5  UNL     1      23.935  -1.206  55.116  1.00  0.00    -0.265 NA
HETATM   16  C14 UNL     1      25.069  -0.668  54.884  1.00  0.00     0.116 C 
HETATM   17  C15 UNL     1      26.126   0.095  54.260  1.00  0.00     0.015 C 
HETATM   18  C16 UNL     1      27.274   0.658  53.987  1.00  0.00    -0.024 C 
HETATM   19  C17 UNL     1      27.533   1.487  52.846  1.00  0.00    -0.001 C 
HETATM   20  C18 UNL     1      26.505   1.718  51.982  1.00  0.00     0.026 C 
HETATM   21  C19 UNL     1      26.272   2.433  50.752  1.00  0.00     0.011 C 
HETATM   22  C20 UNL     1      25.286   3.543  50.830  1.00  0.00     0.057 C 
HETATM   23  H8  UNL     1      19.964   1.817  54.403  1.00  0.00     0.167 HD
ENDROOT
BRANCH   1  24
HETATM   24  N1  UNL     1      23.296   2.401  50.236  1.00  0.00    -0.387 N 
HETATM   25  H4  UNL     1      22.972   1.472  50.659  1.00  0.00     0.159 HD
BRANCH  24  26
HETATM   26  C2  UNL     1      23.083   2.603  48.835  1.00  0.00     0.188 C 
BRANCH  26  27
HETATM   27  C1  UNL     1      21.886   1.913  48.280  1.00  0.00     0.250 C 
HETATM   28  O1  UNL     1      20.971   1.419  48.920  1.00  0.00    -0.305 OA
ENDBRANCH  26  27
ENDBRANCH  24  26
ENDBRANCH   1  24
TORSDOF 3
ENDMDL
MODEL 4
REMARK VINA RESULT:      -8.9      2.395      5.524
REMARK  3 active torsions:
REMARK  status: ('A' for Active; 'I' for Inactive)
REMARK    1  A    between atoms: C1_2  and  C2_3 
REMARK    2  A    between atoms: C2_3  and  N1_4 
REMARK    3  A    between atoms: N1_4  and  C3_5 
ROOT
HETATM    1  C3  UNL     1      24.710   2.795  52.936  1.00  0.00     0.006 C 
HETATM    2  C4  UNL     1      23.771   3.662  53.188  1.00  0.00     0.041 C 
HETATM    3  C5  UNL     1      22.797   4.306  52.403  1.00  0.00     0.029 A 
HETATM    4  C6  UNL     1      23.626   5.376  51.996  1.00  0.00     0.133 A 
HETATM    5  N2  UNL     1      23.294   6.431  51.164  1.00  0.00    -0.253 NA
HETATM    6  C7  UNL     1      22.011   6.430  50.688  1.00  0.00     0.234 A 
HETATM    7  N3  UNL     1      21.207   5.430  51.061  1.00  0.00    -0.224 NA
HETATM    8  C8  UNL     1      21.557   4.428  51.864  1.00  0.00     0.141 A 
HETATM    9  N4  UNL     1      20.398   3.623  52.030  1.00  0.00    -0.343 N 
HETATM   10  C9  UNL     1      20.195   2.265  51.688  1.00  0.00     0.016 C 
HETATM   11  C10 UNL     1      19.135   1.683  51.097  1.00  0.00     0.027 C 
HETATM   12  C11 UNL     1      19.070   0.295  51.617  1.00  0.00     0.029 C 
HETATM   13  C12 UNL     1      20.067   0.123  52.472  1.00  0.00     0.040 C 
HETATM   14  C13 UNL     1      21.085   1.072  51.887  1.00  0.00     0.116 C 
HETATM   15  N5  UNL     1      19.906  -0.786  53.580  1.00  0.00    -0.265 NA
HETATM   16  C14 UNL     1      20.929  -1.111  54.271  1.00  0.00     0.116 C 
HETATM   17  C15 UNL     1      22.287  -1.201  54.757  1.00  0.00     0.015 C 
HETATM   18  C16 UNL     1      23.358  -1.514  55.439  1.00  0.00    -0.024 C 
HETATM   19  C17 UNL     1      24.676  -1.013  55.179  1.00  0.00    -0.001 C 
HETATM   20  C18 UNL     1      24.828  -0.134  54.149  1.00  0.00     0.026 C 
HETATM   21  C19 UNL     1      25.891   0.606  53.515  1.00  0.00     0.011 C 
HETATM   22  C20 UNL     1      25.780   2.086  53.595  1.00  0.00     0.057 C 
HETATM   23  H8  UNL     1      19.560   4.123  52.479  1.00  0.00     0.167 HD
ENDROOT
BRANCH   1  24
HETATM   24  N1  UNL     1      24.613   2.546  51.584  1.00  0.00    -0.387 N 
HETATM   25  H4  UNL     1      23.690   2.120  51.247  1.00  0.00     0.159 HD
BRANCH  24  26
HETATM   26  C2  UNL     1      25.626   2.796  50.605  1.00  0.00     0.188 C 
BRANCH  26  27
HETATM   27  C1  UNL     1      25.160   3.533  49.398  1.00  0.00     0.250 C 
HETATM   28  O1  UNL     1      24.008   3.626  49.003  1.00  0.00    -0.305 OA
ENDBRANCH  26  27
ENDBRANCH  24  26
ENDBRANCH   1  24
TORSDOF 3
ENDMDL
MODEL 5
REMARK VINA RESULT:      -8.4      2.608      7.131
REMARK  3 active torsions:
REMARK  status: ('A' for Active; 'I' for Inactive)
REMARK    1  A    between atoms: C1_2  and  C2_3 
REMARK    2  A    between atoms: C2_3  and  N1_4 
REMARK    3  A    between atoms: N1_4  and  C3_5 
ROOT
HETATM    1  C3  UNL     1      21.339   0.917  51.143  1.00  0.00     0.006 C 
HETATM    2  C4  UNL     1      21.428   1.056  49.852  1.00  0.00     0.041 C 
HETATM    3  C5  UNL     1      21.230   2.134  48.967  1.00  0.00     0.029 A 
HETATM    4  C6  UNL     1      19.839   1.940  48.815  1.00  0.00     0.133 A 
HETATM    5  N2  UNL     1      18.962   2.689  48.048  1.00  0.00    -0.253 NA
HETATM    6  C7  UNL     1      19.519   3.733  47.361  1.00  0.00     0.234 A 
HETATM    7  N3  UNL     1      20.834   3.934  47.487  1.00  0.00    -0.224 NA
HETATM    8  C8  UNL     1      21.652   3.195  48.234  1.00  0.00     0.141 A 
HETATM    9  N4  UNL     1      22.956   3.725  48.046  1.00  0.00    -0.343 N 
HETATM   10  C9  UNL     1      23.838   4.289  48.998  1.00  0.00     0.016 C 
HETATM   11  C10 UNL     1      24.602   5.394  48.905  1.00  0.00     0.027 C 
HETATM   12  C11 UNL     1      25.800   5.151  49.744  1.00  0.00     0.029 C 
HETATM   13  C12 UNL     1      25.698   3.944  50.280  1.00  0.00     0.040 C 
HETATM   14  C13 UNL     1      24.196   3.825  50.381  1.00  0.00     0.116 C 
HETATM   15  N5  UNL     1      26.891   3.183  50.557  1.00  0.00    -0.265 NA
HETATM   16  C14 UNL     1      26.804   2.123  51.262  1.00  0.00     0.116 C 
HETATM   17  C15 UNL     1      26.267   1.045  52.062  1.00  0.00     0.015 C 
HETATM   18  C16 UNL     1      26.140  -0.032  52.792  1.00  0.00    -0.024 C 
HETATM   19  C17 UNL     1      24.902  -0.522  53.326  1.00  0.00    -0.001 C 
HETATM   20  C18 UNL     1      23.768   0.179  53.046  1.00  0.00     0.026 C 
HETATM   21  C19 UNL     1      22.359   0.107  53.340  1.00  0.00     0.011 C 
HETATM   22  C20 UNL     1      21.465  -0.091  52.168  1.00  0.00     0.057 C 
HETATM   23  H8  UNL     1      23.318   3.691  47.036  1.00  0.00     0.167 HD
ENDROOT
BRANCH   1  24
HETATM   24  N1  UNL     1      20.969   2.159  51.612  1.00  0.00    -0.387 N 
HETATM   25  H4  UNL     1      21.648   2.961  51.411  1.00  0.00     0.159 HD
BRANCH  24  26
HETATM   26  C2  UNL     1      19.777   2.465  52.343  1.00  0.00     0.188 C 
BRANCH  26  27
HETATM   27  C1  UNL     1      18.942   3.546  51.751  1.00  0.00     0.250 C 
HETATM   28  O1  UNL     1      17.790   3.820  52.048  1.00  0.00    -0.305 OA
ENDBRANCH  26  27
ENDBRANCH  24  26
ENDBRANCH   1  24
TORSDOF 3
ENDMDL
MODEL 6
REMARK VINA RESULT:      -8.4      2.931      5.839
REMARK  3 active torsions:
REMARK  status: ('A' for Active; 'I' for Inactive)
REMARK    1  A    between atoms: C1_2  and  C2_3 
REMARK    2  A    between atoms: C2_3  and  N1_4 
REMARK    3  A    between atoms: N1_4  and  C3_5 
ROOT
HETATM    1  C3  UNL     1      22.388   3.050  51.683  1.00  0.00     0.006 C 
HETATM    2  C4  UNL     1      23.505   2.974  52.348  1.00  0.00     0.041 C 
HETATM    3  C5  UNL     1      24.745   2.350  52.111  1.00  0.00     0.029 A 
HETATM    4  C6  UNL     1      24.379   1.096  52.651  1.00  0.00     0.133 A 
HETATM    5  N2  UNL     1      25.159  -0.044  52.739  1.00  0.00    -0.253 NA
HETATM    6  C7  UNL     1      26.430   0.068  52.244  1.00  0.00     0.234 A 
HETATM    7  N3  UNL     1      26.799   1.245  51.730  1.00  0.00    -0.224 NA
HETATM    8  C8  UNL     1      26.025   2.325  51.660  1.00  0.00     0.141 A 
HETATM    9  N4  UNL     1      26.820   3.354  51.090  1.00  0.00    -0.343 N 
HETATM   10  C9  UNL     1      26.624   4.075  49.888  1.00  0.00     0.016 C 
HETATM   11  C10 UNL     1      27.517   4.412  48.939  1.00  0.00     0.027 C 
HETATM   12  C11 UNL     1      27.048   5.691  48.353  1.00  0.00     0.029 C 
HETATM   13  C12 UNL     1      25.929   6.047  48.966  1.00  0.00     0.040 C 
HETATM   14  C13 UNL     1      25.376   4.687  49.318  1.00  0.00     0.116 C 
HETATM   15  N5  UNL     1      25.614   7.446  49.119  1.00  0.00    -0.265 NA
HETATM   16  C14 UNL     1      24.447   7.781  49.513  1.00  0.00     0.116 C 
HETATM   17  C15 UNL     1      23.075   7.709  49.961  1.00  0.00     0.015 C 
HETATM   18  C16 UNL     1      21.868   8.015  50.363  1.00  0.00    -0.024 C 
HETATM   19  C17 UNL     1      20.840   7.065  50.676  1.00  0.00    -0.001 C 
HETATM   20  C18 UNL     1      21.142   5.742  50.558  1.00  0.00     0.026 C 
HETATM   21  C19 UNL     1      20.488   4.469  50.737  1.00  0.00     0.011 C 
HETATM   22  C20 UNL     1      21.057   3.596  51.797  1.00  0.00     0.057 C 
HETATM   23  H8  UNL     1      27.694   3.617  51.655  1.00  0.00     0.167 HD
ENDROOT
BRANCH   1  24
HETATM   24  N1  UNL     1      22.607   2.326  50.531  1.00  0.00    -0.387 N 
HETATM   25  H4  UNL     1      23.417   2.656  49.914  1.00  0.00     0.159 HD
BRANCH  24  26
HETATM   26  C2  UNL     1      21.852   1.195  50.088  1.00  0.00     0.188 C 
BRANCH  26  27
HETATM   27  C1  UNL     1      21.485   1.216  48.645  1.00  0.00     0.250 C 
HETATM   28  O1  UNL     1      20.796   2.053  48.082  1.00  0.00    -0.305 OA
ENDBRANCH  26  27
ENDBRANCH  24  26
ENDBRANCH   1  24
TORSDOF 3
ENDMDL
MODEL 7
REMARK VINA RESULT:      -8.0      8.677     11.884
REMARK  3 active torsions:
REMARK  status: ('A' for Active; 'I' for Inactive)
REMARK    1  A    between atoms: C1_2  and  C2_3 
REMARK    2  A    between atoms: C2_3  and  N1_4 
REMARK    3  A    between atoms: N1_4  and  C3_5 
ROOT
HETATM    1  C3  UNL     1      31.491  11.097  47.705  1.00  0.00     0.006 C 
HETATM    2  C4  UNL     1      30.648  11.041  48.697  1.00  0.00     0.041 C 
HETATM    3  C5  UNL     1      29.271  10.766  48.797  1.00  0.00     0.029 A 
HETATM    4  C6  UNL     1      28.843  12.091  48.554  1.00  0.00     0.133 A 
HETATM    5  N2  UNL     1      27.542  12.560  48.501  1.00  0.00    -0.253 NA
HETATM    6  C7  UNL     1      26.566  11.625  48.711  1.00  0.00     0.234 A 
HETATM    7  N3  UNL     1      26.946  10.365  48.945  1.00  0.00    -0.224 NA
HETATM    8  C8  UNL     1      28.208   9.945  48.991  1.00  0.00     0.141 A 
HETATM    9  N4  UNL     1      28.159   8.561  49.307  1.00  0.00    -0.343 N 
HETATM   10  C9  UNL     1      28.622   7.455  48.556  1.00  0.00     0.016 C 
HETATM   11  C10 UNL     1      28.027   6.268  48.329  1.00  0.00     0.027 C 
HETATM   12  C11 UNL     1      29.116   5.272  48.178  1.00  0.00     0.029 C 
HETATM   13  C12 UNL     1      30.276   5.895  48.322  1.00  0.00     0.040 C 
HETATM   14  C13 UNL     1      29.907   7.264  47.802  1.00  0.00     0.116 C 
HETATM   15  N5  UNL     1      31.402   5.187  48.878  1.00  0.00    -0.265 NA
HETATM   16  C14 UNL     1      32.562   5.716  48.817  1.00  0.00     0.116 C 
HETATM   17  C15 UNL     1      33.637   6.642  48.542  1.00  0.00     0.015 C 
HETATM   18  C16 UNL     1      34.810   7.213  48.457  1.00  0.00    -0.024 C 
HETATM   19  C17 UNL     1      35.060   8.496  47.865  1.00  0.00    -0.001 C 
HETATM   20  C18 UNL     1      33.995   9.181  47.361  1.00  0.00     0.026 C 
HETATM   21  C19 UNL     1      33.740  10.433  46.695  1.00  0.00     0.011 C 
HETATM   22  C20 UNL     1      32.877  11.391  47.434  1.00  0.00     0.057 C 
HETATM   23  H8  UNL     1      27.704   8.328  50.251  1.00  0.00     0.167 HD
ENDROOT
BRANCH   1  24
HETATM   24  N1  UNL     1      30.744  10.804  46.585  1.00  0.00    -0.387 N 
HETATM   25  H4  UNL     1      30.210   9.876  46.603  1.00  0.00     0.159 HD
BRANCH  24  26
HETATM   26  C2  UNL     1      30.628  11.615  45.412  1.00  0.00     0.188 C 
BRANCH  26  27
HETATM   27  C1  UNL     1      29.230  11.877  44.970  1.00  0.00     0.250 C 
HETATM   28  O1  UNL     1      28.253  11.181  45.200  1.00  0.00    -0.305 OA
ENDBRANCH  26  27
ENDBRANCH  24  26
ENDBRANCH   1  24
TORSDOF 3
ENDMDL
MODEL 8
REMARK VINA RESULT:      -8.0      2.113      2.978
REMARK  3 active torsions:
REMARK  status: ('A' for Active; 'I' for Inactive)
REMARK    1  A    between atoms: C1_2  and  C2_3 
REMARK    2  A    between atoms: C2_3  and  N1_4 
REMARK    3  A    between atoms: N1_4  and  C3_5 
ROOT
HETATM    1  C3  UNL     1      22.776   3.455  50.605  1.00  0.00     0.006 C 
HETATM    2  C4  UNL     1      23.589   2.447  50.462  1.00  0.00     0.041 C 
HETATM    3  C5  UNL     1      24.555   1.844  51.290  1.00  0.00     0.029 A 
HETATM    4  C6  UNL     1      25.614   2.705  50.924  1.00  0.00     0.133 A 
HETATM    5  N2  UNL     1      26.918   2.682  51.387  1.00  0.00    -0.253 NA
HETATM    6  C7  UNL     1      27.203   1.707  52.304  1.00  0.00     0.234 A 
HETATM    7  N3  UNL     1      26.218   0.879  52.664  1.00  0.00    -0.224 NA
HETATM    8  C8  UNL     1      24.973   0.927  52.199  1.00  0.00     0.141 A 
HETATM    9  N4  UNL     1      24.276  -0.151  52.807  1.00  0.00    -0.343 N 
HETATM   10  C9  UNL     1      23.144  -0.119  53.657  1.00  0.00     0.016 C 
HETATM   11  C10 UNL     1      22.906  -0.811  54.787  1.00  0.00     0.027 C 
HETATM   12  C11 UNL     1      21.437  -1.003  54.863  1.00  0.00     0.029 C 
HETATM   13  C12 UNL     1      20.886  -0.434  53.801  1.00  0.00     0.040 C 
HETATM   14  C13 UNL     1      21.876   0.678  53.553  1.00  0.00     0.116 C 
HETATM   15  N5  UNL     1      19.671  -0.981  53.250  1.00  0.00    -0.265 NA
HETATM   16  C14 UNL     1      19.031  -0.313  52.370  1.00  0.00     0.116 C 
HETATM   17  C15 UNL     1      18.650   0.731  51.447  1.00  0.00     0.015 C 
HETATM   18  C16 UNL     1      18.019   1.446  50.551  1.00  0.00    -0.024 C 
HETATM   19  C17 UNL     1      18.450   2.725  50.067  1.00  0.00    -0.001 C 
HETATM   20  C18 UNL     1      19.611   3.234  50.566  1.00  0.00     0.026 C 
HETATM   21  C19 UNL     1      20.419   4.419  50.415  1.00  0.00     0.011 C 
HETATM   22  C20 UNL     1      21.785   4.202  49.869  1.00  0.00     0.057 C 
HETATM   23  H8  UNL     1      24.668  -1.126  52.587  1.00  0.00     0.167 HD
ENDROOT
BRANCH   1  24
HETATM   24  N1  UNL     1      23.019   3.932  51.875  1.00  0.00    -0.387 N 
HETATM   25  H4  UNL     1      22.902   3.230  52.674  1.00  0.00     0.159 HD
BRANCH  24  26
HETATM   26  C2  UNL     1      23.398   5.269  52.216  1.00  0.00     0.188 C 
BRANCH  26  27
HETATM   27  C1  UNL     1      24.149   5.994  51.153  1.00  0.00     0.250 C 
HETATM   28  O1  UNL     1      24.676   7.091  51.256  1.00  0.00    -0.305 OA
ENDBRANCH  26  27
ENDBRANCH  24  26
ENDBRANCH   1  24
TORSDOF 3
ENDMDL
MODEL 9
REMARK VINA RESULT:      -7.8      3.295      6.478
REMARK  3 active torsions:
REMARK  status: ('A' for Active; 'I' for Inactive)
REMARK    1  A    between atoms: C1_2  and  C2_3 
REMARK    2  A    between atoms: C2_3  and  N1_4 
REMARK    3  A    between atoms: N1_4  and  C3_5 
ROOT
HETATM    1  C3  UNL     1      22.751   3.064  51.579  1.00  0.00     0.006 C 
HETATM    2  C4  UNL     1      21.730   3.805  51.904  1.00  0.00     0.041 C 
HETATM    3  C5  UNL     1      20.563   4.213  51.231  1.00  0.00     0.029 A 
HETATM    4  C6  UNL     1      21.143   5.344  50.613  1.00  0.00     0.133 A 
HETATM    5  N2  UNL     1      20.530   6.246  49.760  1.00  0.00    -0.253 NA
HETATM    6  C7  UNL     1      19.210   6.006  49.493  1.00  0.00     0.234 A 
HETATM    7  N3  UNL     1      18.639   4.944  50.069  1.00  0.00    -0.224 NA
HETATM    8  C8  UNL     1      19.256   4.094  50.886  1.00  0.00     0.141 A 
HETATM    9  N4  UNL     1      18.278   3.150  51.297  1.00  0.00    -0.343 N 
HETATM   10  C9  UNL     1      18.250   1.748  51.103  1.00  0.00     0.016 C 
HETATM   11  C10 UNL     1      17.223   0.958  50.735  1.00  0.00     0.027 C 
HETATM   12  C11 UNL     1      17.458  -0.361  51.371  1.00  0.00     0.029 C 
HETATM   13  C12 UNL     1      18.581  -0.295  52.070  1.00  0.00     0.040 C 
HETATM   14  C13 UNL     1      19.339   0.727  51.257  1.00  0.00     0.116 C 
HETATM   15  N5  UNL     1      18.729  -1.096  53.260  1.00  0.00    -0.265 NA
HETATM   16  C14 UNL     1      19.878  -1.193  53.806  1.00  0.00     0.116 C 
HETATM   17  C15 UNL     1      21.288  -1.030  54.078  1.00  0.00     0.015 C 
HETATM   18  C16 UNL     1      22.481  -1.110  54.607  1.00  0.00    -0.024 C 
HETATM   19  C17 UNL     1      23.651  -0.451  54.102  1.00  0.00    -0.001 C 
HETATM   20  C18 UNL     1      23.512   0.328  52.993  1.00  0.00     0.026 C 
HETATM   21  C19 UNL     1      24.339   1.145  52.142  1.00  0.00     0.011 C 
HETATM   22  C20 UNL     1      24.005   2.593  52.117  1.00  0.00     0.057 C 
HETATM   23  H8  UNL     1      17.443   3.565  51.829  1.00  0.00     0.167 HD
ENDROOT
BRANCH   1  24
HETATM   24  N1  UNL     1      22.503   2.663  50.283  1.00  0.00    -0.387 N 
HETATM   25  H4  UNL     1      22.576   3.422  49.532  1.00  0.00     0.159 HD
BRANCH  24  26
HETATM   26  C2  UNL     1      22.154   1.341  49.861  1.00  0.00     0.188 C 
BRANCH  26  27
HETATM   27  C1  UNL     1      21.363   1.278  48.601  1.00  0.00     0.250 C 
HETATM   28  O1  UNL     1      20.574   2.117  48.196  1.00  0.00    -0.305 OA
ENDBRANCH  26  27
ENDBRANCH  24  26
ENDBRANCH   1  24
TORSDOF 3
ENDMDL
