MODEL 1
REMARK VINA RESULT:      -7.7      0.000      0.000
REMARK  7 active torsions:
REMARK  status: ('A' for Active; 'I' for Inactive)
REMARK    1  A    between atoms: N1_1  and  C1_2 
REMARK    2  A    between atoms: C1_2  and  N2_4 
REMARK    3  A    between atoms: N2_4  and  P1_5 
REMARK    4  A    between atoms: P1_5  and  C2_6 
REMARK    5  A    between atoms: C2_6  and  C3_7 
REMARK    6  A    between atoms: C2_6  and  C11_16 
REMARK    7  A    between atoms: C4_8  and  C5_9 
ROOT
HETATM    1  C2  UNL     1      25.964   1.673  51.574  1.00  0.00     0.087 C 
ENDROOT
BRANCH   1   2
HETATM    2  P1  UNL     1      24.402   1.968  52.523  1.00  0.00    -0.015 P 
HETATM    3  H4  UNL     1      23.263   1.795  51.632  1.00  0.00     0.081 HD
BRANCH   2   4
HETATM    4  N2  UNL     1      24.394   3.686  53.057  1.00  0.00    -0.344 N 
HETATM    5  H3  UNL     1      24.970   4.105  53.844  1.00  0.00     0.166 HD
BRANCH   4   6
HETATM    6  C1  UNL     1      23.578   4.708  52.448  1.00  0.00     0.168 C 
HETATM    7  S1  UNL     1      22.032   4.301  52.099  1.00  0.00    -0.041 SA
BRANCH   6   8
HETATM    8  N1  UNL     1      23.926   6.041  52.102  1.00  0.00    -0.376 N 
HETATM    9  H1  UNL     1      24.917   6.191  51.752  1.00  0.00     0.158 HD
HETATM   10  H2  UNL     1      23.048   6.547  52.301  1.00  0.00     0.158 HD
ENDBRANCH   6   8
ENDBRANCH   4   6
ENDBRANCH   2   4
ENDBRANCH   1   2
BRANCH   1  11
HETATM   11  C3  UNL     1      26.412   2.887  50.874  1.00  0.00    -0.010 C 
HETATM   12  C4  UNL     1      25.974   3.429  49.764  1.00  0.00     0.008 C 
BRANCH  12  13
HETATM   13  C5  UNL     1      26.496   4.646  49.151  1.00  0.00    -0.036 A 
HETATM   14  C6  UNL     1      27.820   4.683  48.767  1.00  0.00     0.013 A 
HETATM   15  C7  UNL     1      28.297   5.854  48.185  1.00  0.00     0.024 A 
HETATM   16  C8  UNL     1      27.454   6.955  48.000  1.00  0.00     0.034 A 
HETATM   17 CL1  UNL     1      28.109   8.401  47.262  1.00  0.00    -0.084 Cl
HETATM   18  C9  UNL     1      26.123   6.846  48.414  1.00  0.00     0.024 A 
HETATM   19  C10 UNL     1      25.618   5.700  48.994  1.00  0.00     0.013 A 
ENDBRANCH  12  13
ENDBRANCH   1  11
BRANCH   1  20
HETATM   20  C11 UNL     1      27.064   1.238  52.496  1.00  0.00    -0.045 A 
HETATM   21  C12 UNL     1      27.274  -0.108  52.701  1.00  0.00     0.008 A 
HETATM   22  C13 UNL     1      28.270  -0.588  53.538  1.00  0.00     0.001 A 
HETATM   23  C14 UNL     1      29.097   0.309  54.203  1.00  0.00     0.000 A 
HETATM   24  C15 UNL     1      28.856   1.642  53.974  1.00  0.00     0.001 A 
HETATM   25  C16 UNL     1      27.879   2.152  53.151  1.00  0.00     0.008 A 
ENDBRANCH   1  20
TORSDOF 7
ENDMDL
MODEL 2
REMARK VINA RESULT:      -7.6      4.760      6.627
REMARK  7 active torsions:
REMARK  status: ('A' for Active; 'I' for Inactive)
REMARK    1  A    between atoms: N1_1  and  C1_2 
REMARK    2  A    between atoms: C1_2  and  N2_4 
REMARK    3  A    between atoms: N2_4  and  P1_5 
REMARK    4  A    between atoms: P1_5  and  C2_6 
REMARK    5  A    between atoms: C2_6  and  C3_7 
REMARK    6  A    between atoms: C2_6  and  C11_16 
REMARK    7  A    between atoms: C4_8  and  C5_9 
ROOT
HETATM    1  C2  UNL     1      26.268   0.940  53.042  1.00  0.00     0.087 C 
ENDROOT
BRANCH   1   2
HETATM    2  P1  UNL     1      26.450   1.884  51.460  1.00  0.00    -0.015 P 
HETATM    3  H4  UNL     1      27.857   2.193  51.249  1.00  0.00     0.081 HD
BRANCH   2   4
HETATM    4  N2  UNL     1      25.590   3.452  51.648  1.00  0.00    -0.344 N 
HETATM    5  H3  UNL     1      25.246   3.878  52.558  1.00  0.00     0.166 HD
BRANCH   4   6
HETATM    6  C1  UNL     1      25.269   4.324  50.545  1.00  0.00     0.168 C 
HETATM    7  S1  UNL     1      24.146   3.785  49.484  1.00  0.00    -0.041 SA
BRANCH   6   8
HETATM    8  N1  UNL     1      25.796   5.609  50.239  1.00  0.00    -0.376 N 
HETATM    9  H1  UNL     1      25.126   6.426  50.340  1.00  0.00     0.158 HD
HETATM   10  H2  UNL     1      26.769   5.381  49.977  1.00  0.00     0.158 HD
ENDBRANCH   6   8
ENDBRANCH   4   6
ENDBRANCH   2   4
ENDBRANCH   1   2
BRANCH   1  11
HETATM   11  C3  UNL     1      24.919   0.370  53.183  1.00  0.00    -0.010 C 
HETATM   12  C4  UNL     1      23.746   0.930  53.019  1.00  0.00     0.008 C 
BRANCH  12  13
HETATM   13  C5  UNL     1      22.458   0.265  53.186  1.00  0.00    -0.036 A 
HETATM   14  C6  UNL     1      22.351  -0.756  54.108  1.00  0.00     0.013 A 
HETATM   15  C7  UNL     1      21.113  -1.376  54.250  1.00  0.00     0.024 A 
HETATM   16  C8  UNL     1      20.018  -0.972  53.480  1.00  0.00     0.034 A 
HETATM   17 CL1  UNL     1      18.485  -1.789  53.703  1.00  0.00    -0.084 Cl
HETATM   18  C9  UNL     1      20.200   0.070  52.566  1.00  0.00     0.024 A 
HETATM   19  C10 UNL     1      21.413   0.706  52.399  1.00  0.00     0.013 A 
ENDBRANCH  12  13
ENDBRANCH   1  11
BRANCH   1  20
HETATM   20  C11 UNL     1      27.256  -0.187  53.099  1.00  0.00    -0.045 A 
HETATM   21  C12 UNL     1      26.858  -1.447  52.706  1.00  0.00     0.008 A 
HETATM   22  C13 UNL     1      27.712  -2.538  52.730  1.00  0.00     0.001 A 
HETATM   23  C14 UNL     1      29.022  -2.374  53.163  1.00  0.00     0.000 A 
HETATM   24  C15 UNL     1      29.381  -1.105  53.546  1.00  0.00     0.001 A 
HETATM   25  C16 UNL     1      28.561  -0.000  53.535  1.00  0.00     0.008 A 
ENDBRANCH   1  20
TORSDOF 7
ENDMDL
MODEL 3
REMARK VINA RESULT:      -7.5      3.920      5.025
REMARK  7 active torsions:
REMARK  status: ('A' for Active; 'I' for Inactive)
REMARK    1  A    between atoms: N1_1  and  C1_2 
REMARK    2  A    between atoms: C1_2  and  N2_4 
REMARK    3  A    between atoms: N2_4  and  P1_5 
REMARK    4  A    between atoms: P1_5  and  C2_6 
REMARK    5  A    between atoms: C2_6  and  C3_7 
REMARK    6  A    between atoms: C2_6  and  C11_16 
REMARK    7  A    between atoms: C4_8  and  C5_9 
ROOT
HETATM    1  C2  UNL     1      24.974   0.672  53.392  1.00  0.00     0.087 C 
ENDROOT
BRANCH   1   2
HETATM    2  P1  UNL     1      26.134  -0.658  52.833  1.00  0.00    -0.015 P 
HETATM    3  H4  UNL     1      25.394  -1.903  52.684  1.00  0.00     0.081 HD
BRANCH   2   4
HETATM    4  N2  UNL     1      27.346  -0.919  54.136  1.00  0.00    -0.344 N 
HETATM    5  H3  UNL     1      27.304  -1.656  54.899  1.00  0.00     0.166 HD
BRANCH   4   6
HETATM    6  C1  UNL     1      28.544  -0.128  54.282  1.00  0.00     0.168 C 
HETATM    7  S1  UNL     1      29.916  -0.748  53.642  1.00  0.00    -0.041 SA
BRANCH   6   8
HETATM    8  N1  UNL     1      28.709   1.135  54.912  1.00  0.00    -0.376 N 
HETATM    9  H1  UNL     1      28.396   1.199  55.925  1.00  0.00     0.158 HD
HETATM   10  H2  UNL     1      29.121   1.698  54.150  1.00  0.00     0.158 HD
ENDBRANCH   6   8
ENDBRANCH   4   6
ENDBRANCH   2   4
ENDBRANCH   1   2
BRANCH   1  11
HETATM   11  C3  UNL     1      24.996   1.829  52.484  1.00  0.00    -0.010 C 
HETATM   12  C4  UNL     1      25.822   2.121  51.510  1.00  0.00     0.008 C 
BRANCH  12  13
HETATM   13  C5  UNL     1      25.751   3.307  50.664  1.00  0.00    -0.036 A 
HETATM   14  C6  UNL     1      26.778   3.555  49.777  1.00  0.00     0.013 A 
HETATM   15  C7  UNL     1      26.690   4.693  48.980  1.00  0.00     0.024 A 
HETATM   16  C8  UNL     1      25.591   5.553  49.081  1.00  0.00     0.034 A 
HETATM   17 CL1  UNL     1      25.534   6.969  48.053  1.00  0.00    -0.084 Cl
HETATM   18  C9  UNL     1      24.587   5.238  50.002  1.00  0.00     0.024 A 
HETATM   19  C10 UNL     1      24.644   4.119  50.807  1.00  0.00     0.013 A 
ENDBRANCH  12  13
ENDBRANCH   1  11
BRANCH   1  20
HETATM   20  C11 UNL     1      23.568   0.154  53.448  1.00  0.00    -0.045 A 
HETATM   21  C12 UNL     1      23.244  -0.809  54.380  1.00  0.00     0.008 A 
HETATM   22  C13 UNL     1      21.968  -1.337  54.492  1.00  0.00     0.001 A 
HETATM   23  C14 UNL     1      20.964  -0.890  53.643  1.00  0.00     0.000 A 
HETATM   24  C15 UNL     1      21.324   0.070  52.728  1.00  0.00     0.001 A 
HETATM   25  C16 UNL     1      22.579   0.615  52.589  1.00  0.00     0.008 A 
ENDBRANCH   1  20
TORSDOF 7
ENDMDL
MODEL 4
REMARK VINA RESULT:      -7.4      4.418      6.178
REMARK  7 active torsions:
REMARK  status: ('A' for Active; 'I' for Inactive)
REMARK    1  A    between atoms: N1_1  and  C1_2 
REMARK    2  A    between atoms: C1_2  and  N2_4 
REMARK    3  A    between atoms: N2_4  and  P1_5 
REMARK    4  A    between atoms: P1_5  and  C2_6 
REMARK    5  A    between atoms: C2_6  and  C3_7 
REMARK    6  A    between atoms: C2_6  and  C11_16 
REMARK    7  A    between atoms: C4_8  and  C5_9 
ROOT
HETATM    1  C2  UNL     1      26.082   2.148  52.512  1.00  0.00     0.087 C 
ENDROOT
BRANCH   1   2
HETATM    2  P1  UNL     1      26.278   2.731  50.767  1.00  0.00    -0.015 P 
HETATM    3  H4  UNL     1      27.689   2.701  50.410  1.00  0.00     0.081 HD
BRANCH   2   4
HETATM    4  N2  UNL     1      25.754   4.451  50.695  1.00  0.00    -0.344 N 
HETATM    5  H3  UNL     1      26.348   5.280  50.402  1.00  0.00     0.166 HD
BRANCH   4   6
HETATM    6  C1  UNL     1      24.425   4.895  51.039  1.00  0.00     0.168 C 
HETATM    7  S1  UNL     1      23.249   4.615  49.936  1.00  0.00    -0.041 SA
BRANCH   6   8
HETATM    8  N1  UNL     1      23.979   5.552  52.218  1.00  0.00    -0.376 N 
HETATM    9  H1  UNL     1      22.932   5.704  52.303  1.00  0.00     0.158 HD
HETATM   10  H2  UNL     1      24.869   5.719  52.715  1.00  0.00     0.158 HD
ENDBRANCH   6   8
ENDBRANCH   4   6
ENDBRANCH   2   4
ENDBRANCH   1   2
BRANCH   1  11
HETATM   11  C3  UNL     1      24.749   1.573  52.748  1.00  0.00    -0.010 C 
HETATM   12  C4  UNL     1      23.767   1.351  51.909  1.00  0.00     0.008 C 
BRANCH  12  13
HETATM   13  C5  UNL     1      22.473   0.770  52.252  1.00  0.00    -0.036 A 
HETATM   14  C6  UNL     1      21.452   0.824  51.325  1.00  0.00     0.013 A 
HETATM   15  C7  UNL     1      20.227   0.264  51.674  1.00  0.00     0.024 A 
HETATM   16  C8  UNL     1      20.043  -0.333  52.926  1.00  0.00     0.034 A 
HETATM   17 CL1  UNL     1      18.480  -1.021  53.309  1.00  0.00    -0.084 Cl
HETATM   18  C9  UNL     1      21.122  -0.350  53.815  1.00  0.00     0.024 A 
HETATM   19  C10 UNL     1      22.350   0.196  53.501  1.00  0.00     0.013 A 
ENDBRANCH  12  13
ENDBRANCH   1  11
BRANCH   1  20
HETATM   20  C11 UNL     1      27.102   1.097  52.833  1.00  0.00    -0.045 A 
HETATM   21  C12 UNL     1      28.320   1.480  53.353  1.00  0.00     0.008 A 
HETATM   22  C13 UNL     1      29.313   0.568  53.674  1.00  0.00     0.001 A 
HETATM   23  C14 UNL     1      29.090  -0.788  53.470  1.00  0.00     0.000 A 
HETATM   24  C15 UNL     1      27.866  -1.131  52.950  1.00  0.00     0.001 A 
HETATM   25  C16 UNL     1      26.859  -0.254  52.621  1.00  0.00     0.008 A 
ENDBRANCH   1  20
TORSDOF 7
ENDMDL
MODEL 5
REMARK VINA RESULT:      -7.4      5.370      7.843
REMARK  7 active torsions:
REMARK  status: ('A' for Active; 'I' for Inactive)
REMARK    1  A    between atoms: N1_1  and  C1_2 
REMARK    2  A    between atoms: C1_2  and  N2_4 
REMARK    3  A    between atoms: N2_4  and  P1_5 
REMARK    4  A    between atoms: P1_5  and  C2_6 
REMARK    5  A    between atoms: C2_6  and  C3_7 
REMARK    6  A    between atoms: C2_6  and  C11_16 
REMARK    7  A    between atoms: C4_8  and  C5_9 
ROOT
HETATM    1  C2  UNL     1      25.469   1.557  51.994  1.00  0.00     0.087 C 
ENDROOT
BRANCH   1   2
HETATM    2  P1  UNL     1      26.247   2.055  53.599  1.00  0.00    -0.015 P 
HETATM    3  H4  UNL     1      27.079   3.230  53.380  1.00  0.00     0.081 HD
BRANCH   2   4
HETATM    4  N2  UNL     1      27.340   0.725  54.120  1.00  0.00    -0.344 N 
HETATM    5  H3  UNL     1      27.049  -0.249  54.422  1.00  0.00     0.166 HD
BRANCH   4   6
HETATM    6  C1  UNL     1      28.776   0.851  54.180  1.00  0.00     0.168 C 
HETATM    7  S1  UNL     1      29.647  -0.466  53.748  1.00  0.00    -0.041 SA
BRANCH   6   8
HETATM    8  N1  UNL     1      29.560   1.971  54.567  1.00  0.00    -0.376 N 
HETATM    9  H1  UNL     1      29.649   2.143  55.611  1.00  0.00     0.158 HD
HETATM   10  H2  UNL     1      29.855   2.348  53.651  1.00  0.00     0.158 HD
ENDBRANCH   6   8
ENDBRANCH   4   6
ENDBRANCH   2   4
ENDBRANCH   1   2
BRANCH   1  11
HETATM   11  C3  UNL     1      24.084   1.098  52.181  1.00  0.00    -0.010 C 
HETATM   12  C4  UNL     1      23.589   0.239  53.038  1.00  0.00     0.008 C 
BRANCH  12  13
HETATM   13  C5  UNL     1      22.185  -0.147  53.138  1.00  0.00    -0.036 A 
HETATM   14  C6  UNL     1      21.268   0.454  52.299  1.00  0.00     0.013 A 
HETATM   15  C7  UNL     1      19.935   0.070  52.412  1.00  0.00     0.024 A 
HETATM   16  C8  UNL     1      19.545  -0.894  53.347  1.00  0.00     0.034 A 
HETATM   17 CL1  UNL     1      17.854  -1.336  53.443  1.00  0.00    -0.084 Cl
HETATM   18  C9  UNL     1      20.528  -1.460  54.164  1.00  0.00     0.024 A 
HETATM   19  C10 UNL     1      21.859  -1.102  54.079  1.00  0.00     0.013 A 
ENDBRANCH  12  13
ENDBRANCH   1  11
BRANCH   1  20
HETATM   20  C11 UNL     1      25.448   2.713  51.039  1.00  0.00    -0.045 A 
HETATM   21  C12 UNL     1      26.568   2.977  50.281  1.00  0.00     0.008 A 
HETATM   22  C13 UNL     1      26.626   4.026  49.377  1.00  0.00     0.001 A 
HETATM   23  C14 UNL     1      25.522   4.854  49.217  1.00  0.00     0.000 A 
HETATM   24  C15 UNL     1      24.425   4.560  49.990  1.00  0.00     0.001 A 
HETATM   25  C16 UNL     1      24.333   3.528  50.895  1.00  0.00     0.008 A 
ENDBRANCH   1  20
TORSDOF 7
ENDMDL
MODEL 6
REMARK VINA RESULT:      -7.2      3.672      6.311
REMARK  7 active torsions:
REMARK  status: ('A' for Active; 'I' for Inactive)
REMARK    1  A    between atoms: N1_1  and  C1_2 
REMARK    2  A    between atoms: C1_2  and  N2_4 
REMARK    3  A    between atoms: N2_4  and  P1_5 
REMARK    4  A    between atoms: P1_5  and  C2_6 
REMARK    5  A    between atoms: C2_6  and  C3_7 
REMARK    6  A    between atoms: C2_6  and  C11_16 
REMARK    7  A    between atoms: C4_8  and  C5_9 
ROOT
HETATM    1  C2  UNL     1      24.241   3.590  50.667  1.00  0.00     0.087 C 
ENDROOT
BRANCH   1   2
HETATM    2  P1  UNL     1      23.412   4.485  52.059  1.00  0.00    -0.015 P 
HETATM    3  H4  UNL     1      22.001   4.656  51.742  1.00  0.00     0.081 HD
BRANCH   2   4
HETATM    4  N2  UNL     1      24.130   6.132  52.164  1.00  0.00    -0.344 N 
HETATM    5  H3  UNL     1      24.749   6.502  52.942  1.00  0.00     0.166 HD
BRANCH   4   6
HETATM    6  C1  UNL     1      23.932   7.154  51.165  1.00  0.00     0.168 C 
HETATM    7  S1  UNL     1      22.552   7.068  50.289  1.00  0.00    -0.041 SA
BRANCH   6   8
HETATM    8  N1  UNL     1      24.776   8.245  50.824  1.00  0.00    -0.376 N 
HETATM    9  H1  UNL     1      24.516   9.186  51.240  1.00  0.00     0.158 HD
HETATM   10  H2  UNL     1      25.472   7.790  50.212  1.00  0.00     0.158 HD
ENDBRANCH   6   8
ENDBRANCH   4   6
ENDBRANCH   2   4
ENDBRANCH   1   2
BRANCH   1  11
HETATM   11  C3  UNL     1      25.330   2.726  51.148  1.00  0.00    -0.010 C 
HETATM   12  C4  UNL     1      25.629   2.346  52.365  1.00  0.00     0.008 C 
BRANCH  12  13
HETATM   13  C5  UNL     1      26.743   1.478  52.734  1.00  0.00    -0.036 A 
HETATM   14  C6  UNL     1      26.607   0.115  52.572  1.00  0.00     0.013 A 
HETATM   15  C7  UNL     1      27.682  -0.693  52.930  1.00  0.00     0.024 A 
HETATM   16  C8  UNL     1      28.859  -0.134  53.438  1.00  0.00     0.034 A 
HETATM   17 CL1  UNL     1      30.178  -1.200  53.871  1.00  0.00    -0.084 Cl
HETATM   18  C9  UNL     1      28.926   1.256  53.574  1.00  0.00     0.024 A 
HETATM   19  C10 UNL     1      27.879   2.086  53.229  1.00  0.00     0.013 A 
ENDBRANCH  12  13
ENDBRANCH   1  11
BRANCH   1  20
HETATM   20  C11 UNL     1      23.255   2.728  49.935  1.00  0.00    -0.045 A 
HETATM   21  C12 UNL     1      22.516   1.806  50.643  1.00  0.00     0.008 A 
HETATM   22  C13 UNL     1      21.587   0.974  50.038  1.00  0.00     0.001 A 
HETATM   23  C14 UNL     1      21.380   1.060  48.667  1.00  0.00     0.000 A 
HETATM   24  C15 UNL     1      22.135   1.991  47.996  1.00  0.00     0.001 A 
HETATM   25  C16 UNL     1      23.064   2.831  48.563  1.00  0.00     0.008 A 
ENDBRANCH   1  20
TORSDOF 7
ENDMDL
MODEL 7
REMARK VINA RESULT:      -7.1      5.646      7.614
REMARK  7 active torsions:
REMARK  status: ('A' for Active; 'I' for Inactive)
REMARK    1  A    between atoms: N1_1  and  C1_2 
REMARK    2  A    between atoms: C1_2  and  N2_4 
REMARK    3  A    between atoms: N2_4  and  P1_5 
REMARK    4  A    between atoms: P1_5  and  C2_6 
REMARK    5  A    between atoms: C2_6  and  C3_7 
REMARK    6  A    between atoms: C2_6  and  C11_16 
REMARK    7  A    between atoms: C4_8  and  C5_9 
ROOT
HETATM    1  C2  UNL     1      22.062   0.319  53.693  1.00  0.00     0.087 C 
ENDROOT
BRANCH   1   2
HETATM    2  P1  UNL     1      20.965  -1.156  53.915  1.00  0.00    -0.015 P 
HETATM    3  H4  UNL     1      21.128  -2.046  52.775  1.00  0.00     0.081 HD
BRANCH   2   4
HETATM    4  N2  UNL     1      19.259  -0.584  53.895  1.00  0.00    -0.344 N 
HETATM    5  H3  UNL     1      18.910   0.371  54.198  1.00  0.00     0.166 HD
BRANCH   4   6
HETATM    6  C1  UNL     1      18.151  -1.393  53.448  1.00  0.00     0.168 C 
HETATM    7  S1  UNL     1      17.284  -0.818  52.186  1.00  0.00    -0.041 SA
BRANCH   6   8
HETATM    8  N1  UNL     1      17.695  -2.641  53.953  1.00  0.00    -0.376 N 
HETATM    9  H1  UNL     1      16.740  -2.639  54.416  1.00  0.00     0.158 HD
HETATM   10  H2  UNL     1      18.483  -3.266  53.715  1.00  0.00     0.158 HD
ENDBRANCH   6   8
ENDBRANCH   4   6
ENDBRANCH   2   4
ENDBRANCH   1   2
BRANCH   1  11
HETATM   11  C3  UNL     1      23.485  -0.052  53.732  1.00  0.00    -0.010 C 
HETATM   12  C4  UNL     1      24.549   0.659  53.449  1.00  0.00     0.008 C 
BRANCH  12  13
HETATM   13  C5  UNL     1      25.928   0.188  53.523  1.00  0.00    -0.036 A 
HETATM   14  C6  UNL     1      26.783   0.771  54.435  1.00  0.00     0.013 A 
HETATM   15  C7  UNL     1      28.094   0.307  54.488  1.00  0.00     0.024 A 
HETATM   16  C8  UNL     1      28.523  -0.720  53.641  1.00  0.00     0.034 A 
HETATM   17 CL1  UNL     1      30.184  -1.264  53.752  1.00  0.00    -0.084 Cl
HETATM   18  C9  UNL     1      27.602  -1.264  52.741  1.00  0.00     0.024 A 
HETATM   19  C10 UNL     1      26.295  -0.827  52.662  1.00  0.00     0.013 A 
ENDBRANCH  12  13
ENDBRANCH   1  11
BRANCH   1  20
HETATM   20  C11 UNL     1      21.792   0.981  52.375  1.00  0.00    -0.045 A 
HETATM   21  C12 UNL     1      21.632   0.199  51.251  1.00  0.00     0.008 A 
HETATM   22  C13 UNL     1      21.381   0.736  49.999  1.00  0.00     0.001 A 
HETATM   23  C14 UNL     1      21.284   2.114  49.851  1.00  0.00     0.000 A 
HETATM   24  C15 UNL     1      21.450   2.860  50.993  1.00  0.00     0.001 A 
HETATM   25  C16 UNL     1      21.700   2.361  52.250  1.00  0.00     0.008 A 
ENDBRANCH   1  20
TORSDOF 7
ENDMDL
MODEL 8
REMARK VINA RESULT:      -7.0      4.285      6.507
REMARK  7 active torsions:
REMARK  status: ('A' for Active; 'I' for Inactive)
REMARK    1  A    between atoms: N1_1  and  C1_2 
REMARK    2  A    between atoms: C1_2  and  N2_4 
REMARK    3  A    between atoms: N2_4  and  P1_5 
REMARK    4  A    between atoms: P1_5  and  C2_6 
REMARK    5  A    between atoms: C2_6  and  C3_7 
REMARK    6  A    between atoms: C2_6  and  C11_16 
REMARK    7  A    between atoms: C4_8  and  C5_9 
ROOT
HETATM    1  C2  UNL     1      22.361   1.759  51.500  1.00  0.00     0.087 C 
ENDROOT
BRANCH   1   2
HETATM    2  P1  UNL     1      22.159   3.515  52.050  1.00  0.00    -0.015 P 
HETATM    3  H4  UNL     1      20.741   3.844  52.083  1.00  0.00     0.081 HD
BRANCH   2   4
HETATM    4  N2  UNL     1      22.915   4.575  50.808  1.00  0.00    -0.344 N 
HETATM    5  H3  UNL     1      22.611   4.678  49.797  1.00  0.00     0.166 HD
BRANCH   4   6
HETATM    6  C1  UNL     1      24.052   5.424  51.069  1.00  0.00     0.168 C 
HETATM    7  S1  UNL     1      25.347   5.241  50.085  1.00  0.00    -0.041 SA
BRANCH   6   8
HETATM    8  N1  UNL     1      24.214   6.416  52.073  1.00  0.00    -0.376 N 
HETATM    9  H1  UNL     1      24.649   6.093  52.986  1.00  0.00     0.158 HD
HETATM   10  H2  UNL     1      23.832   7.254  51.606  1.00  0.00     0.158 HD
ENDBRANCH   6   8
ENDBRANCH   4   6
ENDBRANCH   2   4
ENDBRANCH   1   2
BRANCH   1  11
HETATM   11  C3  UNL     1      23.691   1.232  51.843  1.00  0.00    -0.010 C 
HETATM   12  C4  UNL     1      24.692   1.807  52.464  1.00  0.00     0.008 C 
BRANCH  12  13
HETATM   13  C5  UNL     1      25.980   1.186  52.754  1.00  0.00    -0.036 A 
HETATM   14  C6  UNL     1      27.065   1.996  53.018  1.00  0.00     0.013 A 
HETATM   15  C7  UNL     1      28.283   1.382  53.292  1.00  0.00     0.024 A 
HETATM   16  C8  UNL     1      28.397  -0.012  53.297  1.00  0.00     0.034 A 
HETATM   17 CL1  UNL     1      29.955  -0.728  53.648  1.00  0.00    -0.084 Cl
HETATM   18  C9  UNL     1      27.255  -0.770  53.020  1.00  0.00     0.024 A 
HETATM   19  C10 UNL     1      26.031  -0.193  52.744  1.00  0.00     0.013 A 
ENDBRANCH  12  13
ENDBRANCH   1  11
BRANCH   1  20
HETATM   20  C11 UNL     1      21.334   0.883  52.153  1.00  0.00    -0.045 A 
HETATM   21  C12 UNL     1      20.091   0.758  51.571  1.00  0.00     0.008 A 
HETATM   22  C13 UNL     1      19.090  -0.032  52.114  1.00  0.00     0.001 A 
HETATM   23  C14 UNL     1      19.331  -0.732  53.288  1.00  0.00     0.000 A 
HETATM   24  C15 UNL     1      20.581  -0.584  53.838  1.00  0.00     0.001 A 
HETATM   25  C16 UNL     1      21.597   0.191  53.328  1.00  0.00     0.008 A 
ENDBRANCH   1  20
TORSDOF 7
ENDMDL
MODEL 9
REMARK VINA RESULT:      -7.0      4.477      6.992
REMARK  7 active torsions:
REMARK  status: ('A' for Active; 'I' for Inactive)
REMARK    1  A    between atoms: N1_1  and  C1_2 
REMARK    2  A    between atoms: C1_2  and  N2_4 
REMARK    3  A    between atoms: N2_4  and  P1_5 
REMARK    4  A    between atoms: P1_5  and  C2_6 
REMARK    5  A    between atoms: C2_6  and  C3_7 
REMARK    6  A    between atoms: C2_6  and  C11_16 
REMARK    7  A    between atoms: C4_8  and  C5_9 
ROOT
HETATM    1  C2  UNL     1      22.673   2.079  51.704  1.00  0.00     0.087 C 
ENDROOT
BRANCH   1   2
HETATM    2  P1  UNL     1      21.257   1.045  52.298  1.00  0.00    -0.015 P 
HETATM    3  H4  UNL     1      20.678   1.665  53.481  1.00  0.00     0.081 HD
BRANCH   2   4
HETATM    4  N2  UNL     1      21.913  -0.551  52.808  1.00  0.00    -0.344 N 
HETATM    5  H3  UNL     1      22.605  -1.150  52.270  1.00  0.00     0.166 HD
BRANCH   4   6
HETATM    6  C1  UNL     1      21.555  -1.203  54.044  1.00  0.00     0.168 C 
HETATM    7  S1  UNL     1      22.732  -1.337  55.172  1.00  0.00    -0.041 SA
BRANCH   6   8
HETATM    8  N1  UNL     1      20.304  -1.755  54.433  1.00  0.00    -0.376 N 
HETATM    9  H1  UNL     1      19.757  -2.258  53.674  1.00  0.00     0.158 HD
HETATM   10  H2  UNL     1      20.261  -1.497  55.432  1.00  0.00     0.158 HD
ENDBRANCH   6   8
ENDBRANCH   4   6
ENDBRANCH   2   4
ENDBRANCH   1   2
BRANCH   1  11
HETATM   11  C3  UNL     1      23.969   1.451  52.005  1.00  0.00    -0.010 C 
HETATM   12  C4  UNL     1      24.984   1.903  52.699  1.00  0.00     0.008 C 
BRANCH  12  13
HETATM   13  C5  UNL     1      26.235   1.190  52.937  1.00  0.00    -0.036 A 
HETATM   14  C6  UNL     1      26.280  -0.169  52.702  1.00  0.00     0.013 A 
HETATM   15  C7  UNL     1      27.483  -0.830  52.937  1.00  0.00     0.024 A 
HETATM   16  C8  UNL     1      28.605  -0.131  53.395  1.00  0.00     0.034 A 
HETATM   17 CL1  UNL     1      30.091  -1.015  53.672  1.00  0.00    -0.084 Cl
HETATM   18  C9  UNL     1      28.485   1.245  53.611  1.00  0.00     0.024 A 
HETATM   19  C10 UNL     1      27.308   1.930  53.389  1.00  0.00     0.013 A 
ENDBRANCH  12  13
ENDBRANCH   1  11
BRANCH   1  20
HETATM   20  C11 UNL     1      22.590   2.281  50.220  1.00  0.00    -0.045 A 
HETATM   21  C12 UNL     1      21.896   1.369  49.456  1.00  0.00     0.008 A 
HETATM   22  C13 UNL     1      21.775   1.487  48.081  1.00  0.00     0.001 A 
HETATM   23  C14 UNL     1      22.370   2.561  47.431  1.00  0.00     0.000 A 
HETATM   24  C15 UNL     1      23.053   3.449  48.225  1.00  0.00     0.001 A 
HETATM   25  C16 UNL     1      23.193   3.363  49.591  1.00  0.00     0.008 A 
ENDBRANCH   1  20
TORSDOF 7
ENDMDL
