MODEL 1
REMARK VINA RESULT:      -9.1      0.000      0.000
REMARK  5 active torsions:
REMARK  status: ('A' for Active; 'I' for Inactive)
REMARK    1  A    between atoms: O1_2  and  C2_3 
REMARK    2  A    between atoms: C6_7  and  C7_8 
REMARK    3  A    between atoms: C7_8  and  N1_9 
REMARK    4  A    between atoms: C10_12  and  N2_13 
REMARK    5  A    between atoms: N2_13  and  C11_14 
ROOT
HETATM    1  N1  UNL     1      26.641   2.494  50.969  1.00  0.00    -0.317 N 
HETATM    2  C8  UNL     1      25.770   1.474  51.535  1.00  0.00     0.119 C 
HETATM    3  C9  UNL     1      26.327   0.880  52.607  1.00  0.00     0.045 C 
HETATM    4  C10 UNL     1      25.829  -0.165  53.482  1.00  0.00     0.140 C 
HETATM    5  N3  UNL     1      26.557  -0.306  54.532  1.00  0.00    -0.224 NA
HETATM    6  C17 UNL     1      27.747   0.483  54.741  1.00  0.00     0.231 C 
HETATM    7  N4  UNL     1      28.285   1.390  53.937  1.00  0.00    -0.256 NA
HETATM    8  C18 UNL     1      27.633   1.598  52.693  1.00  0.00     0.238 C 
HETATM    9  N5  UNL     1      27.269   2.892  52.230  1.00  0.00    -0.209 NA
HETATM   10  H17 UNL     1      26.480   3.253  52.796  1.00  0.00     0.149 HD
ENDROOT
BRANCH   1  11
HETATM   11  C7  UNL     1      26.706   2.847  49.565  1.00  0.00     0.181 C 
BRANCH  11  12
HETATM   12  C6  UNL     1      26.702   4.306  49.359  1.00  0.00    -0.036 A 
HETATM   13  C5  UNL     1      27.739   4.868  48.604  1.00  0.00     0.009 A 
HETATM   14  C4  UNL     1      27.746   6.252  48.403  1.00  0.00     0.003 A 
HETATM   15  C3  UNL     1      26.748   7.033  48.940  1.00  0.00     0.037 A 
HETATM   16  C2  UNL     1      25.722   6.492  49.685  1.00  0.00     0.068 A 
HETATM   17  C19 UNL     1      25.721   5.123  49.883  1.00  0.00     0.045 A 
BRANCH  16  18
HETATM   18  O1  UNL     1      24.766   7.367  50.184  1.00  0.00    -0.356 OA
HETATM   19  C1  UNL     1      23.757   6.834  51.011  1.00  0.00     0.210 C 
ENDBRANCH  16  18
ENDBRANCH  11  12
ENDBRANCH   1  11
BRANCH   4  20
HETATM   20  N2  UNL     1      24.678  -0.928  53.201  1.00  0.00    -0.340 N 
HETATM   21  H10 UNL     1      24.897  -1.846  52.774  1.00  0.00     0.167 HD
BRANCH  20  22
HETATM   22  C11 UNL     1      23.406  -0.420  53.494  1.00  0.00     0.035 A 
HETATM   23  C12 UNL     1      22.786  -1.050  54.566  1.00  0.00     0.029 A 
HETATM   24  C13 UNL     1      21.532  -0.712  55.019  1.00  0.00     0.004 A 
HETATM   25  C14 UNL     1      20.816   0.295  54.411  1.00  0.00     0.024 A 
HETATM   26  C15 UNL     1      21.406   0.934  53.347  1.00  0.00     0.036 A 
HETATM   27 CL1  UNL     1      20.613   2.218  52.492  1.00  0.00    -0.084 Cl
HETATM   28  C16 UNL     1      22.663   0.572  52.918  1.00  0.00     0.053 A 
ENDBRANCH  20  22
ENDBRANCH   4  20
TORSDOF 5
ENDMDL
MODEL 2
REMARK VINA RESULT:      -8.9      1.023      1.824
REMARK  5 active torsions:
REMARK  status: ('A' for Active; 'I' for Inactive)
REMARK    1  A    between atoms: O1_2  and  C2_3 
REMARK    2  A    between atoms: C6_7  and  C7_8 
REMARK    3  A    between atoms: C7_8  and  N1_9 
REMARK    4  A    between atoms: C10_12  and  N2_13 
REMARK    5  A    between atoms: N2_13  and  C11_14 
ROOT
HETATM    1  N1  UNL     1      26.660   2.459  50.955  1.00  0.00    -0.317 N 
HETATM    2  C8  UNL     1      25.784   1.448  51.530  1.00  0.00     0.119 C 
HETATM    3  C9  UNL     1      26.336   0.865  52.610  1.00  0.00     0.045 C 
HETATM    4  C10 UNL     1      25.831  -0.168  53.496  1.00  0.00     0.140 C 
HETATM    5  N3  UNL     1      26.555  -0.298  54.550  1.00  0.00    -0.224 NA
HETATM    6  C17 UNL     1      27.746   0.491  54.755  1.00  0.00     0.231 C 
HETATM    7  N4  UNL     1      28.290   1.387  53.943  1.00  0.00    -0.256 NA
HETATM    8  C18 UNL     1      27.643   1.581  52.693  1.00  0.00     0.238 C 
HETATM    9  N5  UNL     1      27.284   2.870  52.214  1.00  0.00    -0.209 NA
HETATM   10  H17 UNL     1      26.494   3.240  52.772  1.00  0.00     0.149 HD
ENDROOT
BRANCH   1  11
HETATM   11  C7  UNL     1      26.733   2.795  49.547  1.00  0.00     0.181 C 
BRANCH  11  12
HETATM   12  C6  UNL     1      26.723   4.252  49.324  1.00  0.00    -0.036 A 
HETATM   13  C5  UNL     1      25.666   4.994  49.865  1.00  0.00     0.009 A 
HETATM   14  C4  UNL     1      25.647   6.377  49.659  1.00  0.00     0.003 A 
HETATM   15  C3  UNL     1      26.650   6.983  48.939  1.00  0.00     0.037 A 
HETATM   16  C2  UNL     1      27.696   6.263  48.401  1.00  0.00     0.068 A 
HETATM   17  C19 UNL     1      27.711   4.895  48.606  1.00  0.00     0.045 A 
BRANCH  16  18
HETATM   18  O1  UNL     1      28.657   6.969  47.690  1.00  0.00    -0.356 OA
HETATM   19  C1  UNL     1      29.622   7.688  48.425  1.00  0.00     0.210 C 
ENDBRANCH  16  18
ENDBRANCH  11  12
ENDBRANCH   1  11
BRANCH   4  20
HETATM   20  N2  UNL     1      24.679  -0.931  53.219  1.00  0.00    -0.340 N 
HETATM   21  H10 UNL     1      24.898  -1.853  52.801  1.00  0.00     0.167 HD
BRANCH  20  22
HETATM   22  C11 UNL     1      23.408  -0.419  53.505  1.00  0.00     0.035 A 
HETATM   23  C12 UNL     1      22.775  -1.055  54.567  1.00  0.00     0.029 A 
HETATM   24  C13 UNL     1      21.519  -0.715  55.011  1.00  0.00     0.004 A 
HETATM   25  C14 UNL     1      20.814   0.302  54.406  1.00  0.00     0.024 A 
HETATM   26  C15 UNL     1      21.417   0.947  53.353  1.00  0.00     0.036 A 
HETATM   27 CL1  UNL     1      20.639   2.243  52.503  1.00  0.00    -0.084 Cl
HETATM   28  C16 UNL     1      22.676   0.582  52.932  1.00  0.00     0.053 A 
ENDBRANCH  20  22
ENDBRANCH   4  20
TORSDOF 5
ENDMDL
MODEL 3
REMARK VINA RESULT:      -8.5      3.288      7.287
REMARK  5 active torsions:
REMARK  status: ('A' for Active; 'I' for Inactive)
REMARK    1  A    between atoms: O1_2  and  C2_3 
REMARK    2  A    between atoms: C6_7  and  C7_8 
REMARK    3  A    between atoms: C7_8  and  N1_9 
REMARK    4  A    between atoms: C10_12  and  N2_13 
REMARK    5  A    between atoms: N2_13  and  C11_14 
ROOT
HETATM    1  N1  UNL     1      23.228   0.372  53.394  1.00  0.00    -0.317 N 
HETATM    2  C8  UNL     1      23.662   1.710  53.019  1.00  0.00     0.119 C 
HETATM    3  C9  UNL     1      23.221   2.055  51.795  1.00  0.00     0.045 C 
HETATM    4  C10 UNL     1      23.394   3.275  51.029  1.00  0.00     0.140 C 
HETATM    5  N3  UNL     1      22.631   3.312  49.996  1.00  0.00    -0.224 NA
HETATM    6  C17 UNL     1      21.753   2.216  49.663  1.00  0.00     0.231 C 
HETATM    7  N4  UNL     1      21.617   1.052  50.283  1.00  0.00    -0.256 NA
HETATM    8  C18 UNL     1      22.461   0.831  51.403  1.00  0.00     0.238 C 
HETATM    9  N5  UNL     1      21.960   0.401  52.662  1.00  0.00    -0.209 NA
HETATM   10  H17 UNL     1      21.435   1.174  53.109  1.00  0.00     0.149 HD
ENDROOT
BRANCH   1  11
HETATM   11  C7  UNL     1      23.973  -0.539  54.239  1.00  0.00     0.181 C 
BRANCH  11  12
HETATM   12  C6  UNL     1      25.420  -0.494  53.962  1.00  0.00    -0.036 A 
HETATM   13  C5  UNL     1      25.902  -1.213  52.861  1.00  0.00     0.009 A 
HETATM   14  C4  UNL     1      27.274  -1.178  52.589  1.00  0.00     0.003 A 
HETATM   15  C3  UNL     1      28.120  -0.447  53.392  1.00  0.00     0.037 A 
HETATM   16  C2  UNL     1      27.657   0.265  54.477  1.00  0.00     0.068 A 
HETATM   17  C19 UNL     1      26.300   0.226  54.744  1.00  0.00     0.045 A 
BRANCH  16  18
HETATM   18  O1  UNL     1      28.592   0.969  55.224  1.00  0.00    -0.356 OA
HETATM   19  C1  UNL     1      29.488   1.809  54.533  1.00  0.00     0.210 C 
ENDBRANCH  16  18
ENDBRANCH  11  12
ENDBRANCH   1  11
BRANCH   4  20
HETATM   20  N2  UNL     1      24.299   4.294  51.390  1.00  0.00    -0.340 N 
HETATM   21  H10 UNL     1      24.204   4.586  52.380  1.00  0.00     0.167 HD
BRANCH  20  22
HETATM   22  C11 UNL     1      25.196   4.809  50.445  1.00  0.00     0.035 A 
HETATM   23  C12 UNL     1      26.146   3.889  50.018  1.00  0.00     0.029 A 
HETATM   24  C13 UNL     1      27.125   4.185  49.099  1.00  0.00     0.004 A 
HETATM   25  C14 UNL     1      27.207   5.443  48.545  1.00  0.00     0.024 A 
HETATM   26  C15 UNL     1      26.279   6.373  48.952  1.00  0.00     0.036 A 
HETATM   27 CL1  UNL     1      26.272   7.993  48.333  1.00  0.00    -0.084 Cl
HETATM   28  C16 UNL     1      25.312   6.044  49.874  1.00  0.00     0.053 A 
ENDBRANCH  20  22
ENDBRANCH   4  20
TORSDOF 5
ENDMDL
MODEL 4
REMARK VINA RESULT:      -8.2      3.392      8.066
REMARK  5 active torsions:
REMARK  status: ('A' for Active; 'I' for Inactive)
REMARK    1  A    between atoms: O1_2  and  C2_3 
REMARK    2  A    between atoms: C6_7  and  C7_8 
REMARK    3  A    between atoms: C7_8  and  N1_9 
REMARK    4  A    between atoms: C10_12  and  N2_13 
REMARK    5  A    between atoms: N2_13  and  C11_14 
ROOT
HETATM    1  N1  UNL     1      25.365   1.791  52.653  1.00  0.00    -0.317 N 
HETATM    2  C8  UNL     1      25.695   2.527  51.441  1.00  0.00     0.119 C 
HETATM    3  C9  UNL     1      24.923   3.620  51.293  1.00  0.00     0.045 C 
HETATM    4  C10 UNL     1      24.904   4.640  50.262  1.00  0.00     0.140 C 
HETATM    5  N3  UNL     1      24.177   5.648  50.590  1.00  0.00    -0.224 NA
HETATM    6  C17 UNL     1      23.451   5.686  51.837  1.00  0.00     0.231 C 
HETATM    7  N4  UNL     1      23.373   4.749  52.773  1.00  0.00    -0.256 NA
HETATM    8  C18 UNL     1      24.063   3.536  52.511  1.00  0.00     0.238 C 
HETATM    9  N5  UNL     1      24.962   2.954  53.446  1.00  0.00    -0.209 NA
HETATM   10  H17 UNL     1      25.824   3.526  53.501  1.00  0.00     0.149 HD
ENDROOT
BRANCH   1  11
HETATM   11  C7  UNL     1      25.475   0.355  52.810  1.00  0.00     0.181 C 
BRANCH  11  12
HETATM   12  C6  UNL     1      24.321  -0.214  53.529  1.00  0.00    -0.036 A 
HETATM   13  C5  UNL     1      24.555  -0.841  54.759  1.00  0.00     0.009 A 
HETATM   14  C4  UNL     1      23.468  -1.384  55.450  1.00  0.00     0.003 A 
HETATM   15  C3  UNL     1      22.200  -1.297  54.923  1.00  0.00     0.037 A 
HETATM   16  C2  UNL     1      21.956  -0.682  53.713  1.00  0.00     0.068 A 
HETATM   17  C19 UNL     1      23.036  -0.147  53.033  1.00  0.00     0.045 A 
BRANCH  16  18
HETATM   18  O1  UNL     1      20.642  -0.647  53.268  1.00  0.00    -0.356 OA
HETATM   19  C1  UNL     1      20.193   0.530  52.636  1.00  0.00     0.210 C 
ENDBRANCH  16  18
ENDBRANCH  11  12
ENDBRANCH   1  11
BRANCH   4  20
HETATM   20  N2  UNL     1      25.607   4.526  49.046  1.00  0.00    -0.340 N 
HETATM   21  H10 UNL     1      25.285   3.729  48.468  1.00  0.00     0.167 HD
BRANCH  20  22
HETATM   22  C11 UNL     1      26.627   5.433  48.732  1.00  0.00     0.035 A 
HETATM   23  C12 UNL     1      27.876   4.841  48.586  1.00  0.00     0.029 A 
HETATM   24  C13 UNL     1      29.016   5.548  48.283  1.00  0.00     0.004 A 
HETATM   25  C14 UNL     1      28.967   6.913  48.107  1.00  0.00     0.024 A 
HETATM   26  C15 UNL     1      27.744   7.523  48.248  1.00  0.00     0.036 A 
HETATM   27 CL1  UNL     1      27.544   9.235  48.054  1.00  0.00    -0.084 Cl
HETATM   28  C16 UNL     1      26.621   6.787  48.551  1.00  0.00     0.053 A 
ENDBRANCH  20  22
ENDBRANCH   4  20
TORSDOF 5
ENDMDL
MODEL 5
REMARK VINA RESULT:      -8.1      3.473      5.895
REMARK  5 active torsions:
REMARK  status: ('A' for Active; 'I' for Inactive)
REMARK    1  A    between atoms: O1_2  and  C2_3 
REMARK    2  A    between atoms: C6_7  and  C7_8 
REMARK    3  A    between atoms: C7_8  and  N1_9 
REMARK    4  A    between atoms: C10_12  and  N2_13 
REMARK    5  A    between atoms: N2_13  and  C11_14 
ROOT
HETATM    1  N1  UNL     1      25.619   3.095  51.046  1.00  0.00    -0.317 N 
HETATM    2  C8  UNL     1      24.369   2.406  50.758  1.00  0.00     0.119 C 
HETATM    3  C9  UNL     1      23.299   3.175  51.031  1.00  0.00     0.045 C 
HETATM    4  C10 UNL     1      21.878   2.915  50.891  1.00  0.00     0.140 C 
HETATM    5  N3  UNL     1      21.173   3.980  51.041  1.00  0.00    -0.224 NA
HETATM    6  C17 UNL     1      21.778   5.252  51.355  1.00  0.00     0.231 C 
HETATM    7  N4  UNL     1      23.058   5.524  51.571  1.00  0.00    -0.256 NA
HETATM    8  C18 UNL     1      23.955   4.424  51.521  1.00  0.00     0.238 C 
HETATM    9  N5  UNL     1      25.138   4.442  50.733  1.00  0.00    -0.209 NA
HETATM   10  H17 UNL     1      24.888   4.388  49.729  1.00  0.00     0.149 HD
ENDROOT
BRANCH   1  11
HETATM   11  C7  UNL     1      26.839   2.453  51.492  1.00  0.00     0.181 C 
BRANCH  11  12
HETATM   12  C6  UNL     1      26.573   1.352  52.435  1.00  0.00    -0.036 A 
HETATM   13  C5  UNL     1      25.908   1.654  53.629  1.00  0.00     0.009 A 
HETATM   14  C4  UNL     1      25.651   0.617  54.532  1.00  0.00     0.003 A 
HETATM   15  C3  UNL     1      26.048  -0.668  54.240  1.00  0.00     0.037 A 
HETATM   16  C2  UNL     1      26.704  -0.978  53.068  1.00  0.00     0.068 A 
HETATM   17  C19 UNL     1      26.957   0.052  52.178  1.00  0.00     0.045 A 
BRANCH  16  18
HETATM   18  O1  UNL     1      27.063  -2.304  52.869  1.00  0.00    -0.356 OA
HETATM   19  C1  UNL     1      28.434  -2.627  52.913  1.00  0.00     0.210 C 
ENDBRANCH  16  18
ENDBRANCH  11  12
ENDBRANCH   1  11
BRANCH   4  20
HETATM   20  N2  UNL     1      21.347   1.638  50.620  1.00  0.00    -0.340 N 
HETATM   21  H10 UNL     1      21.280   1.437  49.606  1.00  0.00     0.167 HD
BRANCH  20  22
HETATM   22  C11 UNL     1      20.968   0.794  51.671  1.00  0.00     0.035 A 
HETATM   23  C12 UNL     1      19.625   0.437  51.644  1.00  0.00     0.029 A 
HETATM   24  C13 UNL     1      19.043  -0.380  52.585  1.00  0.00     0.004 A 
HETATM   25  C14 UNL     1      19.786  -0.895  53.623  1.00  0.00     0.024 A 
HETATM   26  C15 UNL     1      21.118  -0.557  53.672  1.00  0.00     0.036 A 
HETATM   27 CL1  UNL     1      22.166  -1.137  54.926  1.00  0.00    -0.084 Cl
HETATM   28  C16 UNL     1      21.671   0.264  52.715  1.00  0.00     0.053 A 
ENDBRANCH  20  22
ENDBRANCH   4  20
TORSDOF 5
ENDMDL
MODEL 6
REMARK VINA RESULT:      -8.1      3.596      6.681
REMARK  5 active torsions:
REMARK  status: ('A' for Active; 'I' for Inactive)
REMARK    1  A    between atoms: O1_2  and  C2_3 
REMARK    2  A    between atoms: C6_7  and  C7_8 
REMARK    3  A    between atoms: C7_8  and  N1_9 
REMARK    4  A    between atoms: C10_12  and  N2_13 
REMARK    5  A    between atoms: N2_13  and  C11_14 
ROOT
HETATM    1  N1  UNL     1      22.575   4.267  51.775  1.00  0.00    -0.317 N 
HETATM    2  C8  UNL     1      23.736   3.690  52.438  1.00  0.00     0.119 C 
HETATM    3  C9  UNL     1      24.724   3.413  51.566  1.00  0.00     0.045 C 
HETATM    4  C10 UNL     1      26.046   2.851  51.771  1.00  0.00     0.140 C 
HETATM    5  N3  UNL     1      26.783   2.951  50.723  1.00  0.00    -0.224 NA
HETATM    6  C17 UNL     1      26.285   3.527  49.497  1.00  0.00     0.231 C 
HETATM    7  N4  UNL     1      25.066   3.979  49.236  1.00  0.00    -0.256 NA
HETATM    8  C18 UNL     1      24.111   3.858  50.279  1.00  0.00     0.238 C 
HETATM    9  N5  UNL     1      23.316   4.954  50.715  1.00  0.00    -0.209 NA
HETATM   10  H17 UNL     1      23.910   5.630  51.228  1.00  0.00     0.149 HD
ENDROOT
BRANCH   1  11
HETATM   11  C7  UNL     1      21.201   4.089  52.199  1.00  0.00     0.181 C 
BRANCH  11  12
HETATM   12  C6  UNL     1      20.719   2.718  51.954  1.00  0.00    -0.036 A 
HETATM   13  C5  UNL     1      20.238   2.408  50.676  1.00  0.00     0.009 A 
HETATM   14  C4  UNL     1      19.777   1.110  50.431  1.00  0.00     0.003 A 
HETATM   15  C3  UNL     1      19.801   0.168  51.434  1.00  0.00     0.037 A 
HETATM   16  C2  UNL     1      20.272   0.461  52.696  1.00  0.00     0.068 A 
HETATM   17  C19 UNL     1      20.726   1.747  52.934  1.00  0.00     0.045 A 
BRANCH  16  18
HETATM   18  O1  UNL     1      20.253  -0.559  53.638  1.00  0.00    -0.356 OA
HETATM   19  C1  UNL     1      21.198  -0.508  54.682  1.00  0.00     0.210 C 
ENDBRANCH  16  18
ENDBRANCH  11  12
ENDBRANCH   1  11
BRANCH   4  20
HETATM   20  N2  UNL     1      26.459   2.268  52.986  1.00  0.00    -0.340 N 
HETATM   21  H10 UNL     1      26.306   2.886  53.803  1.00  0.00     0.167 HD
BRANCH  20  22
HETATM   22  C11 UNL     1      27.017   0.983  52.998  1.00  0.00     0.035 A 
HETATM   23  C12 UNL     1      26.146  -0.008  52.563  1.00  0.00     0.029 A 
HETATM   24  C13 UNL     1      26.486  -1.339  52.501  1.00  0.00     0.004 A 
HETATM   25  C14 UNL     1      27.743  -1.759  52.877  1.00  0.00     0.024 A 
HETATM   26  C15 UNL     1      28.624  -0.797  53.313  1.00  0.00     0.036 A 
HETATM   27 CL1  UNL     1      30.236  -1.191  53.817  1.00  0.00    -0.084 Cl
HETATM   28  C16 UNL     1      28.251   0.527  53.363  1.00  0.00     0.053 A 
ENDBRANCH  20  22
ENDBRANCH   4  20
TORSDOF 5
ENDMDL
MODEL 7
REMARK VINA RESULT:      -7.9      3.480      5.901
REMARK  5 active torsions:
REMARK  status: ('A' for Active; 'I' for Inactive)
REMARK    1  A    between atoms: O1_2  and  C2_3 
REMARK    2  A    between atoms: C6_7  and  C7_8 
REMARK    3  A    between atoms: C7_8  and  N1_9 
REMARK    4  A    between atoms: C10_12  and  N2_13 
REMARK    5  A    between atoms: N2_13  and  C11_14 
ROOT
HETATM    1  N1  UNL     1      21.187   0.098  52.566  1.00  0.00    -0.317 N 
HETATM    2  C8  UNL     1      22.626   0.077  52.342  1.00  0.00     0.119 C 
HETATM    3  C9  UNL     1      23.298  -0.305  53.443  1.00  0.00     0.045 C 
HETATM    4  C10 UNL     1      24.719  -0.481  53.679  1.00  0.00     0.140 C 
HETATM    5  N3  UNL     1      24.956  -1.077  54.793  1.00  0.00    -0.224 NA
HETATM    6  C17 UNL     1      23.892  -1.466  55.686  1.00  0.00     0.231 C 
HETATM    7  N4  UNL     1      22.588  -1.259  55.554  1.00  0.00    -0.256 NA
HETATM    8  C18 UNL     1      22.178  -0.533  54.404  1.00  0.00     0.238 C 
HETATM    9  N5  UNL     1      21.156  -1.001  53.533  1.00  0.00    -0.209 NA
HETATM   10  H17 UNL     1      21.505  -1.814  52.995  1.00  0.00     0.149 HD
ENDROOT
BRANCH   1  11
HETATM   11  C7  UNL     1      20.258   1.008  51.925  1.00  0.00     0.181 C 
BRANCH  11  12
HETATM   12  C6  UNL     1      20.850   1.663  50.745  1.00  0.00    -0.036 A 
HETATM   13  C5  UNL     1      20.976   0.913  49.570  1.00  0.00     0.009 A 
HETATM   14  C4  UNL     1      21.536   1.525  48.443  1.00  0.00     0.003 A 
HETATM   15  C3  UNL     1      21.950   2.836  48.503  1.00  0.00     0.037 A 
HETATM   16  C2  UNL     1      21.831   3.585  49.654  1.00  0.00     0.068 A 
HETATM   17  C19 UNL     1      21.277   2.975  50.766  1.00  0.00     0.045 A 
BRANCH  16  18
HETATM   18  O1  UNL     1      22.279   4.898  49.611  1.00  0.00    -0.356 OA
HETATM   19  C1  UNL     1      22.645   5.508  50.828  1.00  0.00     0.210 C 
ENDBRANCH  16  18
ENDBRANCH  11  12
ENDBRANCH   1  11
BRANCH   4  20
HETATM   20  N2  UNL     1      25.713  -0.043  52.781  1.00  0.00    -0.340 N 
HETATM   21  H10 UNL     1      25.332   0.211  51.851  1.00  0.00     0.167 HD
BRANCH  20  22
HETATM   22  C11 UNL     1      27.054   0.008  53.182  1.00  0.00     0.035 A 
HETATM   23  C12 UNL     1      27.749  -1.174  52.954  1.00  0.00     0.029 A 
HETATM   24  C13 UNL     1      29.075  -1.343  53.277  1.00  0.00     0.004 A 
HETATM   25  C14 UNL     1      29.792  -0.320  53.856  1.00  0.00     0.024 A 
HETATM   26  C15 UNL     1      29.126   0.859  54.094  1.00  0.00     0.036 A 
HETATM   27 CL1  UNL     1      29.910   2.226  54.819  1.00  0.00    -0.084 Cl
HETATM   28  C16 UNL     1      27.798   0.997  53.758  1.00  0.00     0.053 A 
ENDBRANCH  20  22
ENDBRANCH   4  20
TORSDOF 5
ENDMDL
MODEL 8
REMARK VINA RESULT:      -7.9      4.720      8.263
REMARK  5 active torsions:
REMARK  status: ('A' for Active; 'I' for Inactive)
REMARK    1  A    between atoms: O1_2  and  C2_3 
REMARK    2  A    between atoms: C6_7  and  C7_8 
REMARK    3  A    between atoms: C7_8  and  N1_9 
REMARK    4  A    between atoms: C10_12  and  N2_13 
REMARK    5  A    between atoms: N2_13  and  C11_14 
ROOT
HETATM    1  N1  UNL     1      20.603   0.261  52.613  1.00  0.00    -0.317 N 
HETATM    2  C8  UNL     1      22.027   0.317  52.312  1.00  0.00     0.119 C 
HETATM    3  C9  UNL     1      22.774  -0.104  53.350  1.00  0.00     0.045 C 
HETATM    4  C10 UNL     1      24.212  -0.231  53.499  1.00  0.00     0.140 C 
HETATM    5  N3  UNL     1      24.534  -0.885  54.557  1.00  0.00    -0.224 NA
HETATM    6  C17 UNL     1      23.537  -1.377  55.477  1.00  0.00     0.231 C 
HETATM    7  N4  UNL     1      22.221  -1.219  55.428  1.00  0.00    -0.256 NA
HETATM    8  C18 UNL     1      21.719  -0.440  54.351  1.00  0.00     0.238 C 
HETATM    9  N5  UNL     1      20.670  -0.897  53.507  1.00  0.00    -0.209 NA
HETATM   10  H17 UNL     1      21.021  -1.658  52.899  1.00  0.00     0.149 HD
ENDROOT
BRANCH   1  11
HETATM   11  C7  UNL     1      19.604   1.167  52.083  1.00  0.00     0.181 C 
BRANCH  11  12
HETATM   12  C6  UNL     1      18.428   0.450  51.560  1.00  0.00    -0.036 A 
HETATM   13  C5  UNL     1      18.096   0.625  50.211  1.00  0.00     0.009 A 
HETATM   14  C4  UNL     1      16.981  -0.050  49.703  1.00  0.00     0.003 A 
HETATM   15  C3  UNL     1      16.235  -0.866  50.523  1.00  0.00     0.037 A 
HETATM   16  C2  UNL     1      16.551  -1.046  51.852  1.00  0.00     0.068 A 
HETATM   17  C19 UNL     1      17.655  -0.375  52.350  1.00  0.00     0.045 A 
BRANCH  16  18
HETATM   18  O1  UNL     1      15.735  -1.889  52.594  1.00  0.00    -0.356 OA
HETATM   19  C1  UNL     1      14.433  -2.134  52.113  1.00  0.00     0.210 C 
ENDBRANCH  16  18
ENDBRANCH  11  12
ENDBRANCH   1  11
BRANCH   4  20
HETATM   20  N2  UNL     1      25.136   0.306  52.580  1.00  0.00    -0.340 N 
HETATM   21  H10 UNL     1      24.714   0.505  51.654  1.00  0.00     0.167 HD
BRANCH  20  22
HETATM   22  C11 UNL     1      26.469   0.511  52.957  1.00  0.00     0.035 A 
HETATM   23  C12 UNL     1      26.785   1.844  53.187  1.00  0.00     0.029 A 
HETATM   24  C13 UNL     1      28.039   2.269  53.562  1.00  0.00     0.004 A 
HETATM   25  C14 UNL     1      29.063   1.364  53.731  1.00  0.00     0.024 A 
HETATM   26  C15 UNL     1      28.776   0.039  53.508  1.00  0.00     0.036 A 
HETATM   27 CL1  UNL     1      29.975  -1.202  53.684  1.00  0.00    -0.084 Cl
HETATM   28  C16 UNL     1      27.511  -0.354  53.134  1.00  0.00     0.053 A 
ENDBRANCH  20  22
ENDBRANCH   4  20
TORSDOF 5
ENDMDL
MODEL 9
REMARK VINA RESULT:      -7.9      3.587      6.030
REMARK  5 active torsions:
REMARK  status: ('A' for Active; 'I' for Inactive)
REMARK    1  A    between atoms: O1_2  and  C2_3 
REMARK    2  A    between atoms: C6_7  and  C7_8 
REMARK    3  A    between atoms: C7_8  and  N1_9 
REMARK    4  A    between atoms: C10_12  and  N2_13 
REMARK    5  A    between atoms: N2_13  and  C11_14 
ROOT
HETATM    1  N1  UNL     1      25.171   2.708  52.123  1.00  0.00    -0.317 N 
HETATM    2  C8  UNL     1      24.243   1.976  51.272  1.00  0.00     0.119 C 
HETATM    3  C9  UNL     1      23.593   2.793  50.423  1.00  0.00     0.045 C 
HETATM    4  C10 UNL     1      22.602   2.511  49.401  1.00  0.00     0.140 C 
HETATM    5  N3  UNL     1      22.385   3.525  48.642  1.00  0.00    -0.224 NA
HETATM    6  C17 UNL     1      23.050   4.788  48.856  1.00  0.00     0.231 C 
HETATM    7  N4  UNL     1      23.900   5.118  49.819  1.00  0.00    -0.256 NA
HETATM    8  C18 UNL     1      24.175   4.118  50.789  1.00  0.00     0.238 C 
HETATM    9  N5  UNL     1      25.500   3.749  51.148  1.00  0.00    -0.209 NA
HETATM   10  H17 UNL     1      25.938   3.227  50.367  1.00  0.00     0.149 HD
ENDROOT
BRANCH   1  11
HETATM   11  C7  UNL     1      25.518   2.344  53.482  1.00  0.00     0.181 C 
BRANCH  11  12
HETATM   12  C6  UNL     1      26.797   1.616  53.551  1.00  0.00    -0.036 A 
HETATM   13  C5  UNL     1      27.959   2.350  53.819  1.00  0.00     0.009 A 
HETATM   14  C4  UNL     1      29.179   1.669  53.886  1.00  0.00     0.003 A 
HETATM   15  C3  UNL     1      29.223   0.308  53.692  1.00  0.00     0.037 A 
HETATM   16  C2  UNL     1      28.086  -0.426  53.427  1.00  0.00     0.068 A 
HETATM   17  C19 UNL     1      26.882   0.252  53.361  1.00  0.00     0.045 A 
BRANCH  16  18
HETATM   18  O1  UNL     1      28.237  -1.794  53.245  1.00  0.00    -0.356 OA
HETATM   19  C1  UNL     1      27.226  -2.479  52.542  1.00  0.00     0.210 C 
ENDBRANCH  16  18
ENDBRANCH  11  12
ENDBRANCH   1  11
BRANCH   4  20
HETATM   20  N2  UNL     1      21.960   1.263  49.268  1.00  0.00    -0.340 N 
HETATM   21  H10 UNL     1      22.353   0.687  48.502  1.00  0.00     0.167 HD
BRANCH  20  22
HETATM   22  C11 UNL     1      20.904   0.918  50.120  1.00  0.00     0.035 A 
HETATM   23  C12 UNL     1      19.652   1.273  49.631  1.00  0.00     0.029 A 
HETATM   24  C13 UNL     1      18.480   1.033  50.309  1.00  0.00     0.004 A 
HETATM   25  C14 UNL     1      18.497   0.412  51.538  1.00  0.00     0.024 A 
HETATM   26  C15 UNL     1      19.722   0.052  52.045  1.00  0.00     0.036 A 
HETATM   27 CL1  UNL     1      19.884  -0.735  53.582  1.00  0.00    -0.084 Cl
HETATM   28  C16 UNL     1      20.877   0.307  51.341  1.00  0.00     0.053 A 
ENDBRANCH  20  22
ENDBRANCH   4  20
TORSDOF 5
ENDMDL
