MODEL 1
REMARK VINA RESULT:      -8.2      0.000      0.000
REMARK  4 active torsions:
REMARK  status: ('A' for Active; 'I' for Inactive)
REMARK    1  A    between atoms: C4_7  and  N4_8 
REMARK    2  A    between atoms: N4_8  and  C5_9 
REMARK    3  A    between atoms: N5_18  and  C13_19 
REMARK    4  A    between atoms: C15_21  and  N6_22 
ROOT
HETATM    1  C1  UNL     1      22.849  -0.889  53.889  1.00  0.00     0.203 C 
HETATM    2  N1  UNL     1      23.018   0.388  53.219  1.00  0.00    -0.207 N 
HETATM    3  N2  UNL     1      21.989   1.234  52.803  1.00  0.00    -0.134 NA
HETATM    4  C2  UNL     1      22.418   2.300  52.237  1.00  0.00     0.199 A 
HETATM    5  N3  UNL     1      21.832   3.472  51.640  1.00  0.00    -0.240 NA
HETATM    6  C3  UNL     1      22.585   4.396  51.140  1.00  0.00     0.121 A 
HETATM    7  C4  UNL     1      24.080   4.422  51.091  1.00  0.00     0.148 A 
HETATM    8  C11 UNL     1      24.556   3.175  51.729  1.00  0.00     0.039 A 
HETATM    9  C12 UNL     1      23.872   2.181  52.264  1.00  0.00     0.106 A 
HETATM   10  N5  UNL     1      24.271   0.967  52.887  1.00  0.00    -0.239 N 
ENDROOT
BRANCH   7  11
HETATM   11  N4  UNL     1      24.452   4.507  49.702  1.00  0.00    -0.377 N 
HETATM   12  H6  UNL     1      23.757   4.105  49.029  1.00  0.00     0.160 HD
BRANCH  11  13
HETATM   13  C5  UNL     1      25.630   5.066  49.175  1.00  0.00     0.030 A 
HETATM   14  C6  UNL     1      26.841   4.415  49.090  1.00  0.00     0.029 A 
HETATM   15  C7  UNL     1      27.986   4.986  48.577  1.00  0.00     0.004 A 
HETATM   16  C8  UNL     1      27.934   6.277  48.122  1.00  0.00     0.024 A 
HETATM   17  C9  UNL     1      26.756   6.974  48.181  1.00  0.00     0.036 A 
HETATM   18 CL1  UNL     1      26.684   8.623  47.601  1.00  0.00    -0.084 Cl
HETATM   19  C10 UNL     1      25.645   6.357  48.701  1.00  0.00     0.052 A 
ENDBRANCH  11  13
ENDBRANCH   7  11
BRANCH  10  20
HETATM   20  C13 UNL     1      25.584   0.468  53.115  1.00  0.00     0.042 A 
HETATM   21  C14 UNL     1      26.215   1.031  54.143  1.00  0.00     0.056 A 
HETATM   22  C15 UNL     1      27.518   0.436  54.256  1.00  0.00     0.024 A 
HETATM   23  C16 UNL     1      27.684  -0.474  53.313  1.00  0.00     0.008 A 
HETATM   24  C17 UNL     1      26.435  -0.539  52.477  1.00  0.00     0.088 A 
BRANCH  22  25
HETATM   25  N6  UNL     1      28.641   0.610  55.137  1.00  0.00    -0.399 N 
HETATM   26  H13 UNL     1      29.428   1.112  54.651  1.00  0.00     0.156 HD
HETATM   27  H14 UNL     1      28.812   0.344  56.121  1.00  0.00     0.156 HD
ENDBRANCH  22  25
ENDBRANCH  10  20
TORSDOF 4
ENDMDL
MODEL 2
REMARK VINA RESULT:      -8.2      3.221      6.181
REMARK  4 active torsions:
REMARK  status: ('A' for Active; 'I' for Inactive)
REMARK    1  A    between atoms: C4_7  and  N4_8 
REMARK    2  A    between atoms: N4_8  and  C5_9 
REMARK    3  A    between atoms: N5_18  and  C13_19 
REMARK    4  A    between atoms: C15_21  and  N6_22 
ROOT
HETATM    1  C1  UNL     1      20.081   3.755  51.596  1.00  0.00     0.203 C 
HETATM    2  N1  UNL     1      20.952   2.705  52.092  1.00  0.00    -0.207 N 
HETATM    3  N2  UNL     1      20.591   1.702  52.993  1.00  0.00    -0.134 NA
HETATM    4  C2  UNL     1      21.554   0.902  53.263  1.00  0.00     0.199 A 
HETATM    5  N3  UNL     1      21.744  -0.260  54.090  1.00  0.00    -0.240 NA
HETATM    6  C3  UNL     1      22.893  -0.851  54.133  1.00  0.00     0.121 A 
HETATM    7  C4  UNL     1      24.137  -0.472  53.394  1.00  0.00     0.148 A 
HETATM    8  C11 UNL     1      23.815   0.725  52.588  1.00  0.00     0.039 A 
HETATM    9  C12 UNL     1      22.681   1.395  52.479  1.00  0.00     0.106 A 
HETATM   10  N5  UNL     1      22.314   2.544  51.726  1.00  0.00    -0.239 N 
ENDROOT
BRANCH   7  11
HETATM   11  N4  UNL     1      25.151  -0.214  54.384  1.00  0.00    -0.377 N 
HETATM   12  H6  UNL     1      24.880  -0.447  55.369  1.00  0.00     0.160 HD
BRANCH  11  13
HETATM   13  C5  UNL     1      26.436   0.308  54.162  1.00  0.00     0.030 A 
HETATM   14  C6  UNL     1      26.724   1.642  53.972  1.00  0.00     0.029 A 
HETATM   15  C7  UNL     1      27.992   2.131  53.746  1.00  0.00     0.004 A 
HETATM   16  C8  UNL     1      29.042   1.251  53.704  1.00  0.00     0.024 A 
HETATM   17  C9  UNL     1      28.816  -0.087  53.886  1.00  0.00     0.036 A 
HETATM   18 CL1  UNL     1      30.153  -1.215  53.833  1.00  0.00    -0.084 Cl
HETATM   19  C10 UNL     1      27.533  -0.521  54.108  1.00  0.00     0.052 A 
ENDBRANCH  11  13
ENDBRANCH   7  11
BRANCH  10  20
HETATM   20  C13 UNL     1      23.108   3.325  50.841  1.00  0.00     0.042 A 
HETATM   21  C14 UNL     1      23.926   4.182  51.449  1.00  0.00     0.056 A 
HETATM   22  C15 UNL     1      24.661   4.899  50.443  1.00  0.00     0.024 A 
HETATM   23  C16 UNL     1      24.300   4.488  49.240  1.00  0.00     0.008 A 
HETATM   24  C17 UNL     1      23.250   3.421  49.387  1.00  0.00     0.088 A 
BRANCH  22  25
HETATM   25  N6  UNL     1      25.666   5.927  50.457  1.00  0.00    -0.399 N 
HETATM   26  H13 UNL     1      26.326   5.798  51.268  1.00  0.00     0.156 HD
HETATM   27  H14 UNL     1      25.855   6.737  49.844  1.00  0.00     0.156 HD
ENDBRANCH  22  25
ENDBRANCH  10  20
TORSDOF 4
ENDMDL
MODEL 3
REMARK VINA RESULT:      -8.0      3.782      6.455
REMARK  4 active torsions:
REMARK  status: ('A' for Active; 'I' for Inactive)
REMARK    1  A    between atoms: C4_7  and  N4_8 
REMARK    2  A    between atoms: N4_8  and  C5_9 
REMARK    3  A    between atoms: N5_18  and  C13_19 
REMARK    4  A    between atoms: C15_21  and  N6_22 
ROOT
HETATM    1  C1  UNL     1      19.164   1.943  51.896  1.00  0.00     0.203 C 
HETATM    2  N1  UNL     1      20.281   1.244  52.505  1.00  0.00    -0.207 N 
HETATM    3  N2  UNL     1      20.222   0.457  53.656  1.00  0.00    -0.134 NA
HETATM    4  C2  UNL     1      21.356  -0.046  53.977  1.00  0.00     0.199 A 
HETATM    5  N3  UNL     1      21.862  -0.898  55.021  1.00  0.00    -0.240 NA
HETATM    6  C3  UNL     1      23.112  -1.224  55.049  1.00  0.00     0.121 A 
HETATM    7  C4  UNL     1      24.179  -0.817  54.084  1.00  0.00     0.148 A 
HETATM    8  C11 UNL     1      23.539   0.048  53.069  1.00  0.00     0.039 A 
HETATM    9  C12 UNL     1      22.281   0.436  52.956  1.00  0.00     0.106 A 
HETATM   10  N5  UNL     1      21.612   1.259  52.011  1.00  0.00    -0.239 N 
ENDROOT
BRANCH   7  11
HETATM   11  N4  UNL     1      25.187  -0.122  54.843  1.00  0.00    -0.377 N 
HETATM   12  H6  UNL     1      24.985  -0.023  55.866  1.00  0.00     0.160 HD
BRANCH  11  13
HETATM   13  C5  UNL     1      26.387   0.424  54.354  1.00  0.00     0.030 A 
HETATM   14  C6  UNL     1      26.564   1.740  53.989  1.00  0.00     0.029 A 
HETATM   15  C7  UNL     1      27.748   2.251  53.504  1.00  0.00     0.004 A 
HETATM   16  C8  UNL     1      28.824   1.413  53.369  1.00  0.00     0.024 A 
HETATM   17  C9  UNL     1      28.707   0.094  53.717  1.00  0.00     0.036 A 
HETATM   18 CL1  UNL     1      30.078  -0.981  53.548  1.00  0.00    -0.084 Cl
HETATM   19  C10 UNL     1      27.505  -0.363  54.196  1.00  0.00     0.052 A 
ENDBRANCH  11  13
ENDBRANCH   7  11
BRANCH  10  20
HETATM   20  C13 UNL     1      22.142   1.924  50.870  1.00  0.00     0.042 A 
HETATM   21  C14 UNL     1      21.907   1.305  49.715  1.00  0.00     0.056 A 
HETATM   22  C15 UNL     1      22.494   2.081  48.657  1.00  0.00     0.024 A 
HETATM   23  C16 UNL     1      23.079   3.156  49.155  1.00  0.00     0.008 A 
HETATM   24  C17 UNL     1      22.905   3.155  50.648  1.00  0.00     0.088 A 
BRANCH  22  25
HETATM   25  N6  UNL     1      22.581   1.948  47.228  1.00  0.00    -0.399 N 
HETATM   26  H13 UNL     1      23.154   1.106  46.962  1.00  0.00     0.156 HD
HETATM   27  H14 UNL     1      22.199   2.503  46.444  1.00  0.00     0.156 HD
ENDBRANCH  22  25
ENDBRANCH  10  20
TORSDOF 4
ENDMDL
MODEL 4
REMARK VINA RESULT:      -8.0      3.512      7.605
REMARK  4 active torsions:
REMARK  status: ('A' for Active; 'I' for Inactive)
REMARK    1  A    between atoms: C4_7  and  N4_8 
REMARK    2  A    between atoms: N4_8  and  C5_9 
REMARK    3  A    between atoms: N5_18  and  C13_19 
REMARK    4  A    between atoms: C15_21  and  N6_22 
ROOT
HETATM    1  C1  UNL     1      24.854   8.452  47.363  1.00  0.00     0.203 C 
HETATM    2  N1  UNL     1      25.075   7.181  48.027  1.00  0.00    -0.207 N 
HETATM    3  N2  UNL     1      24.092   6.240  48.338  1.00  0.00    -0.134 NA
HETATM    4  C2  UNL     1      24.560   5.202  48.924  1.00  0.00     0.199 A 
HETATM    5  N3  UNL     1      24.030   3.971  49.449  1.00  0.00    -0.240 NA
HETATM    6  C3  UNL     1      24.814   3.105  50.002  1.00  0.00     0.121 A 
HETATM    7  C4  UNL     1      26.295   3.206  50.183  1.00  0.00     0.148 A 
HETATM    8  C11 UNL     1      26.714   4.503  49.608  1.00  0.00     0.039 A 
HETATM    9  C12 UNL     1      25.995   5.447  49.028  1.00  0.00     0.106 A 
HETATM   10  N5  UNL     1      26.339   6.704  48.461  1.00  0.00    -0.239 N 
ENDROOT
BRANCH   7  11
HETATM   11  N4  UNL     1      26.551   3.122  51.598  1.00  0.00    -0.377 N 
HETATM   12  H6  UNL     1      26.235   3.950  52.157  1.00  0.00     0.160 HD
BRANCH  11  13
HETATM   13  C5  UNL     1      27.167   2.062  52.284  1.00  0.00     0.030 A 
HETATM   14  C6  UNL     1      28.181   2.203  53.206  1.00  0.00     0.029 A 
HETATM   15  C7  UNL     1      28.778   1.147  53.861  1.00  0.00     0.004 A 
HETATM   16  C8  UNL     1      28.350  -0.126  53.590  1.00  0.00     0.024 A 
HETATM   17  C9  UNL     1      27.344  -0.327  52.682  1.00  0.00     0.036 A 
HETATM   18 CL1  UNL     1      26.792  -1.951  52.333  1.00  0.00    -0.084 Cl
HETATM   19  C10 UNL     1      26.784   0.760  52.059  1.00  0.00     0.052 A 
ENDBRANCH  11  13
ENDBRANCH   7  11
BRANCH  10  20
HETATM   20  C13 UNL     1      27.618   7.319  48.359  1.00  0.00     0.042 A 
HETATM   21  C14 UNL     1      27.860   8.242  49.287  1.00  0.00     0.056 A 
HETATM   22  C15 UNL     1      29.176   8.775  49.065  1.00  0.00     0.024 A 
HETATM   23  C16 UNL     1      29.731   8.190  48.019  1.00  0.00     0.008 A 
HETATM   24  C17 UNL     1      28.765   7.183  47.458  1.00  0.00     0.088 A 
BRANCH  22  25
HETATM   25  N6  UNL     1      29.990   9.771  49.708  1.00  0.00    -0.399 N 
HETATM   26  H13 UNL     1      30.116  10.613  49.089  1.00  0.00     0.156 HD
HETATM   27  H14 UNL     1      30.456   9.812  50.629  1.00  0.00     0.156 HD
ENDBRANCH  22  25
ENDBRANCH  10  20
TORSDOF 4
ENDMDL
MODEL 5
REMARK VINA RESULT:      -7.7      2.694      6.466
REMARK  4 active torsions:
REMARK  status: ('A' for Active; 'I' for Inactive)
REMARK    1  A    between atoms: C4_7  and  N4_8 
REMARK    2  A    between atoms: N4_8  and  C5_9 
REMARK    3  A    between atoms: N5_18  and  C13_19 
REMARK    4  A    between atoms: C15_21  and  N6_22 
ROOT
HETATM    1  C1  UNL     1      21.192   7.201  50.319  1.00  0.00     0.203 C 
HETATM    2  N1  UNL     1      21.648   5.889  50.739  1.00  0.00    -0.207 N 
HETATM    3  N2  UNL     1      20.866   4.914  51.362  1.00  0.00    -0.134 NA
HETATM    4  C2  UNL     1      21.519   3.844  51.625  1.00  0.00     0.199 A 
HETATM    5  N3  UNL     1      21.234   2.571  52.234  1.00  0.00    -0.240 NA
HETATM    6  C3  UNL     1      22.163   1.679  52.348  1.00  0.00     0.121 A 
HETATM    7  C4  UNL     1      23.587   1.789  51.906  1.00  0.00     0.148 A 
HETATM    8  C11 UNL     1      23.751   3.129  51.302  1.00  0.00     0.039 A 
HETATM    9  C12 UNL     1      22.872   4.102  51.142  1.00  0.00     0.106 A 
HETATM   10  N5  UNL     1      22.970   5.401  50.574  1.00  0.00    -0.239 N 
ENDROOT
BRANCH   7  11
HETATM   11  N4  UNL     1      24.405   1.608  53.077  1.00  0.00    -0.377 N 
HETATM   12  H6  UNL     1      24.018   2.020  53.959  1.00  0.00     0.160 HD
BRANCH  11  13
HETATM   13  C5  UNL     1      25.644   0.947  53.150  1.00  0.00     0.030 A 
HETATM   14  C6  UNL     1      25.870  -0.352  52.750  1.00  0.00     0.029 A 
HETATM   15  C7  UNL     1      27.092  -0.982  52.839  1.00  0.00     0.004 A 
HETATM   16  C8  UNL     1      28.157  -0.291  53.353  1.00  0.00     0.024 A 
HETATM   17  C9  UNL     1      27.992   1.004  53.767  1.00  0.00     0.036 A 
HETATM   18 CL1  UNL     1      29.348   1.893  54.426  1.00  0.00    -0.084 Cl
HETATM   19  C10 UNL     1      26.753   1.585  53.656  1.00  0.00     0.052 A 
ENDBRANCH  11  13
ENDBRANCH   7  11
BRANCH  10  20
HETATM   20  C13 UNL     1      24.101   6.040  49.995  1.00  0.00     0.042 A 
HETATM   21  C14 UNL     1      24.778   6.824  50.832  1.00  0.00     0.056 A 
HETATM   22  C15 UNL     1      25.884   7.401  50.119  1.00  0.00     0.024 A 
HETATM   23  C16 UNL     1      25.886   6.978  48.867  1.00  0.00     0.008 A 
HETATM   24  C17 UNL     1      24.720   6.050  48.667  1.00  0.00     0.088 A 
BRANCH  22  25
HETATM   25  N6  UNL     1      26.951   8.304  50.457  1.00  0.00    -0.399 N 
HETATM   26  H13 UNL     1      27.054   9.056  49.727  1.00  0.00     0.156 HD
HETATM   27  H14 UNL     1      27.609   8.351  51.252  1.00  0.00     0.156 HD
ENDBRANCH  22  25
ENDBRANCH  10  20
TORSDOF 4
ENDMDL
MODEL 6
REMARK VINA RESULT:      -7.7      3.958      7.780
REMARK  4 active torsions:
REMARK  status: ('A' for Active; 'I' for Inactive)
REMARK    1  A    between atoms: C4_7  and  N4_8 
REMARK    2  A    between atoms: N4_8  and  C5_9 
REMARK    3  A    between atoms: N5_18  and  C13_19 
REMARK    4  A    between atoms: C15_21  and  N6_22 
ROOT
HETATM    1  C1  UNL     1      29.410   8.575  47.135  1.00  0.00     0.203 C 
HETATM    2  N1  UNL     1      28.549   7.546  47.688  1.00  0.00    -0.207 N 
HETATM    3  N2  UNL     1      27.178   7.667  47.919  1.00  0.00    -0.134 NA
HETATM    4  C2  UNL     1      26.659   6.605  48.415  1.00  0.00     0.199 A 
HETATM    5  N3  UNL     1      25.349   6.182  48.835  1.00  0.00    -0.240 NA
HETATM    6  C3  UNL     1      25.168   4.994  49.311  1.00  0.00     0.121 A 
HETATM    7  C4  UNL     1      26.196   3.924  49.498  1.00  0.00     0.148 A 
HETATM    8  C11 UNL     1      27.487   4.477  49.034  1.00  0.00     0.039 A 
HETATM    9  C12 UNL     1      27.771   5.668  48.538  1.00  0.00     0.106 A 
HETATM   10  N5  UNL     1      28.982   6.252  48.078  1.00  0.00    -0.239 N 
ENDROOT
BRANCH   7  11
HETATM   11  N4  UNL     1      26.208   3.596  50.901  1.00  0.00    -0.377 N 
HETATM   12  H6  UNL     1      26.692   4.293  51.516  1.00  0.00     0.160 HD
BRANCH  11  13
HETATM   13  C5  UNL     1      25.649   2.459  51.508  1.00  0.00     0.030 A 
HETATM   14  C6  UNL     1      24.325   2.327  51.867  1.00  0.00     0.029 A 
HETATM   15  C7  UNL     1      23.800   1.204  52.470  1.00  0.00     0.004 A 
HETATM   16  C8  UNL     1      24.631   0.147  52.737  1.00  0.00     0.024 A 
HETATM   17  C9  UNL     1      25.956   0.222  52.402  1.00  0.00     0.036 A 
HETATM   18 CL1  UNL     1      27.022  -1.125  52.740  1.00  0.00    -0.084 Cl
HETATM   19  C10 UNL     1      26.428   1.363  51.803  1.00  0.00     0.052 A 
ENDBRANCH  11  13
ENDBRANCH   7  11
BRANCH  10  20
HETATM   20  C13 UNL     1      30.286   5.684  48.027  1.00  0.00     0.042 A 
HETATM   21  C14 UNL     1      31.123   6.146  48.954  1.00  0.00     0.056 A 
HETATM   22  C15 UNL     1      32.392   5.492  48.785  1.00  0.00     0.024 A 
HETATM   23  C16 UNL     1      32.333   4.644  47.773  1.00  0.00     0.008 A 
HETATM   24  C17 UNL     1      30.951   4.691  47.181  1.00  0.00     0.088 A 
BRANCH  22  25
HETATM   25  N6  UNL     1      33.664   5.555  49.452  1.00  0.00    -0.399 N 
HETATM   26  H13 UNL     1      34.438   5.757  48.768  1.00  0.00     0.156 HD
HETATM   27  H14 UNL     1      33.948   5.445  50.439  1.00  0.00     0.156 HD
ENDBRANCH  22  25
ENDBRANCH  10  20
TORSDOF 4
ENDMDL
MODEL 7
REMARK VINA RESULT:      -7.5      2.871      7.524
REMARK  4 active torsions:
REMARK  status: ('A' for Active; 'I' for Inactive)
REMARK    1  A    between atoms: C4_7  and  N4_8 
REMARK    2  A    between atoms: N4_8  and  C5_9 
REMARK    3  A    between atoms: N5_18  and  C13_19 
REMARK    4  A    between atoms: C15_21  and  N6_22 
ROOT
HETATM    1  C1  UNL     1      25.951   5.253  49.066  1.00  0.00     0.203 C 
HETATM    2  N1  UNL     1      25.929   4.204  50.070  1.00  0.00    -0.207 N 
HETATM    3  N2  UNL     1      26.965   3.308  50.337  1.00  0.00    -0.134 NA
HETATM    4  C2  UNL     1      26.683   2.484  51.276  1.00  0.00     0.199 A 
HETATM    5  N3  UNL     1      27.344   1.391  51.939  1.00  0.00    -0.240 NA
HETATM    6  C3  UNL     1      26.748   0.743  52.885  1.00  0.00     0.121 A 
HETATM    7  C4  UNL     1      25.374   0.985  53.426  1.00  0.00     0.148 A 
HETATM    8  C11 UNL     1      24.805   2.121  52.669  1.00  0.00     0.039 A 
HETATM    9  C12 UNL     1      25.331   2.841  51.694  1.00  0.00     0.106 A 
HETATM   10  N5  UNL     1      24.836   3.936  50.935  1.00  0.00    -0.239 N 
ENDROOT
BRANCH   7  11
HETATM   11  N4  UNL     1      24.628  -0.233  53.236  1.00  0.00    -0.377 N 
HETATM   12  H6  UNL     1      25.191  -1.052  52.904  1.00  0.00     0.160 HD
BRANCH  11  13
HETATM   13  C5  UNL     1      23.252  -0.422  53.447  1.00  0.00     0.030 A 
HETATM   14  C6  UNL     1      22.699  -1.009  54.564  1.00  0.00     0.029 A 
HETATM   15  C7  UNL     1      21.345  -1.193  54.746  1.00  0.00     0.004 A 
HETATM   16  C8  UNL     1      20.484  -0.773  53.768  1.00  0.00     0.024 A 
HETATM   17  C9  UNL     1      20.976  -0.182  52.635  1.00  0.00     0.036 A 
HETATM   18 CL1  UNL     1      19.880   0.357  51.381  1.00  0.00    -0.084 Cl
HETATM   19  C10 UNL     1      22.333  -0.023  52.504  1.00  0.00     0.052 A 
ENDBRANCH  11  13
ENDBRANCH   7  11
BRANCH  10  20
HETATM   20  C13 UNL     1      23.575   4.588  51.023  1.00  0.00     0.042 A 
HETATM   21  C14 UNL     1      22.547   3.854  50.602  1.00  0.00     0.056 A 
HETATM   22  C15 UNL     1      21.346   4.631  50.746  1.00  0.00     0.024 A 
HETATM   23  C16 UNL     1      21.633   5.820  51.246  1.00  0.00     0.008 A 
HETATM   24  C17 UNL     1      23.117   5.904  51.474  1.00  0.00     0.088 A 
BRANCH  22  25
HETATM   25  N6  UNL     1      19.952   4.406  50.475  1.00  0.00    -0.399 N 
HETATM   26  H13 UNL     1      19.366   4.604  51.326  1.00  0.00     0.156 HD
HETATM   27  H14 UNL     1      19.439   4.099  49.632  1.00  0.00     0.156 HD
ENDBRANCH  22  25
ENDBRANCH  10  20
TORSDOF 4
ENDMDL
MODEL 8
REMARK VINA RESULT:      -7.4      3.556      7.620
REMARK  4 active torsions:
REMARK  status: ('A' for Active; 'I' for Inactive)
REMARK    1  A    between atoms: C4_7  and  N4_8 
REMARK    2  A    between atoms: N4_8  and  C5_9 
REMARK    3  A    between atoms: N5_18  and  C13_19 
REMARK    4  A    between atoms: C15_21  and  N6_22 
ROOT
HETATM    1  C1  UNL     1      27.495   8.821  47.216  1.00  0.00     0.203 C 
HETATM    2  N1  UNL     1      27.017   7.577  47.792  1.00  0.00    -0.207 N 
HETATM    3  N2  UNL     1      25.679   7.221  47.968  1.00  0.00    -0.134 NA
HETATM    4  C2  UNL     1      25.536   6.065  48.501  1.00  0.00     0.199 A 
HETATM    5  N3  UNL     1      24.434   5.227  48.897  1.00  0.00    -0.240 NA
HETATM    6  C3  UNL     1      24.651   4.070  49.428  1.00  0.00     0.121 A 
HETATM    7  C4  UNL     1      25.975   3.433  49.708  1.00  0.00     0.148 A 
HETATM    8  C11 UNL     1      27.017   4.384  49.261  1.00  0.00     0.039 A 
HETATM    9  C12 UNL     1      26.895   5.579  48.712  1.00  0.00     0.106 A 
HETATM   10  N5  UNL     1      27.851   6.531  48.266  1.00  0.00    -0.239 N 
ENDROOT
BRANCH   7  11
HETATM   11  N4  UNL     1      26.029   3.183  51.126  1.00  0.00    -0.377 N 
HETATM   12  H6  UNL     1      26.235   4.022  51.718  1.00  0.00     0.160 HD
BRANCH  11  13
HETATM   13  C5  UNL     1      25.836   1.952  51.775  1.00  0.00     0.030 A 
HETATM   14  C6  UNL     1      26.794   0.970  51.905  1.00  0.00     0.029 A 
HETATM   15  C7  UNL     1      26.579  -0.235  52.539  1.00  0.00     0.004 A 
HETATM   16  C8  UNL     1      25.344  -0.488  53.077  1.00  0.00     0.024 A 
HETATM   17  C9  UNL     1      24.353   0.451  52.978  1.00  0.00     0.036 A 
HETATM   18 CL1  UNL     1      22.774   0.134  53.663  1.00  0.00    -0.084 Cl
HETATM   19  C10 UNL     1      24.620   1.635  52.337  1.00  0.00     0.052 A 
ENDBRANCH  11  13
ENDBRANCH   7  11
BRANCH  10  20
HETATM   20  C13 UNL     1      29.271   6.452  48.290  1.00  0.00     0.042 A 
HETATM   21  C14 UNL     1      29.765   5.295  47.855  1.00  0.00     0.056 A 
HETATM   22  C15 UNL     1      31.199   5.354  47.934  1.00  0.00     0.024 A 
HETATM   23  C16 UNL     1      31.577   6.527  48.410  1.00  0.00     0.008 A 
HETATM   24  C17 UNL     1      30.353   7.356  48.689  1.00  0.00     0.088 A 
BRANCH  22  25
HETATM   25  N6  UNL     1      32.272   4.450  47.621  1.00  0.00    -0.399 N 
HETATM   26  H13 UNL     1      32.282   3.633  48.284  1.00  0.00     0.156 HD
HETATM   27  H14 UNL     1      33.006   4.453  46.894  1.00  0.00     0.156 HD
ENDBRANCH  22  25
ENDBRANCH  10  20
TORSDOF 4
ENDMDL
MODEL 9
REMARK VINA RESULT:      -7.3      3.448      7.465
REMARK  4 active torsions:
REMARK  status: ('A' for Active; 'I' for Inactive)
REMARK    1  A    between atoms: C4_7  and  N4_8 
REMARK    2  A    between atoms: N4_8  and  C5_9 
REMARK    3  A    between atoms: N5_18  and  C13_19 
REMARK    4  A    between atoms: C15_21  and  N6_22 
ROOT
HETATM    1  C1  UNL     1      23.227   8.296  47.054  1.00  0.00     0.203 C 
HETATM    2  N1  UNL     1      23.405   6.990  47.662  1.00  0.00    -0.207 N 
HETATM    3  N2  UNL     1      22.467   5.957  47.667  1.00  0.00    -0.134 NA
HETATM    4  C2  UNL     1      22.881   4.908  48.273  1.00  0.00     0.199 A 
HETATM    5  N3  UNL     1      22.358   3.600  48.573  1.00  0.00    -0.240 NA
HETATM    6  C3  UNL     1      23.071   2.748  49.233  1.00  0.00     0.121 A 
HETATM    7  C4  UNL     1      24.456   2.939  49.764  1.00  0.00     0.148 A 
HETATM    8  C11 UNL     1      24.876   4.308  49.395  1.00  0.00     0.039 A 
HETATM    9  C12 UNL     1      24.226   5.246  48.729  1.00  0.00     0.106 A 
HETATM   10  N5  UNL     1      24.575   6.569  48.347  1.00  0.00    -0.239 N 
ENDROOT
BRANCH   7  11
HETATM   11  N4  UNL     1      24.387   2.749  51.191  1.00  0.00    -0.377 N 
HETATM   12  H6  UNL     1      24.009   3.564  51.730  1.00  0.00     0.160 HD
BRANCH  11  13
HETATM   13  C5  UNL     1      24.770   1.604  51.910  1.00  0.00     0.030 A 
HETATM   14  C6  UNL     1      26.021   1.029  51.870  1.00  0.00     0.029 A 
HETATM   15  C7  UNL     1      26.372  -0.100  52.578  1.00  0.00     0.004 A 
HETATM   16  C8  UNL     1      25.431  -0.700  53.375  1.00  0.00     0.024 A 
HETATM   17  C9  UNL     1      24.170  -0.172  53.454  1.00  0.00     0.036 A 
HETATM   18 CL1  UNL     1      22.965  -0.933  54.470  1.00  0.00    -0.084 Cl
HETATM   19  C10 UNL     1      23.874   0.955  52.728  1.00  0.00     0.052 A 
ENDBRANCH  11  13
ENDBRANCH   7  11
BRANCH  10  20
HETATM   20  C13 UNL     1      25.782   7.282  48.591  1.00  0.00     0.042 A 
HETATM   21  C14 UNL     1      25.831   7.890  49.775  1.00  0.00     0.056 A 
HETATM   22  C15 UNL     1      27.095   8.564  49.886  1.00  0.00     0.024 A 
HETATM   23  C16 UNL     1      27.808   8.374  48.790  1.00  0.00     0.008 A 
HETATM   24  C17 UNL     1      27.016   7.518  47.840  1.00  0.00     0.088 A 
BRANCH  22  25
HETATM   25  N6  UNL     1      27.730   9.372  50.891  1.00  0.00    -0.399 N 
HETATM   26  H13 UNL     1      27.571   8.973  51.852  1.00  0.00     0.156 HD
HETATM   27  H14 UNL     1      28.294  10.238  50.848  1.00  0.00     0.156 HD
ENDBRANCH  22  25
ENDBRANCH  10  20
TORSDOF 4
ENDMDL
