MODEL 1
REMARK VINA RESULT:      -8.0      0.000      0.000
REMARK  5 active torsions:
REMARK  status: ('A' for Active; 'I' for Inactive)
REMARK    1  A    between atoms: C1_2  and  C2_3 
REMARK    2  A    between atoms: C2_3  and  N1_4 
REMARK    3  A    between atoms: N1_4  and  C3_5 
REMARK    4  A    between atoms: C8_12  and  N4_13 
REMARK    5  A    between atoms: N4_13  and  C9_14 
ROOT
HETATM    1  C3  UNL     1      24.431  -0.305  53.551  1.00  0.00     0.029 A 
HETATM    2  C4  UNL     1      25.085  -0.642  54.715  1.00  0.00     0.031 A 
HETATM    3  C5  UNL     1      26.314  -0.076  54.981  1.00  0.00     0.035 A 
HETATM    4  C6  UNL     1      26.863   0.813  54.086  1.00  0.00     0.072 A 
HETATM    5  N2  UNL     1      28.055   1.321  54.414  1.00  0.00    -0.241 NA
HETATM    6  C7  UNL     1      28.658   2.197  53.590  1.00  0.00     0.236 A 
HETATM    7  N3  UNL     1      28.042   2.539  52.455  1.00  0.00    -0.224 NA
HETATM    8  C8  UNL     1      26.860   2.086  52.051  1.00  0.00     0.142 A 
HETATM    9  C15 UNL     1      26.263   1.194  52.905  1.00  0.00     0.041 A 
HETATM   10  C16 UNL     1      25.043   0.593  52.702  1.00  0.00     0.046 A 
ENDROOT
BRANCH   8  11
HETATM   11  N4  UNL     1      26.213   2.441  50.867  1.00  0.00    -0.340 N 
HETATM   12  H8  UNL     1      25.592   1.778  50.362  1.00  0.00     0.167 HD
BRANCH  11  13
HETATM   13  C9  UNL     1      26.234   3.646  50.141  1.00  0.00     0.033 A 
HETATM   14  C10 UNL     1      27.237   4.058  49.261  1.00  0.00     0.032 A 
HETATM   15  C11 UNL     1      27.212   5.247  48.570  1.00  0.00     0.044 A 
HETATM   16  C12 UNL     1      26.162   6.120  48.717  1.00  0.00     0.116 A 
HETATM   17  F1  UNL     1      26.257   7.252  47.985  1.00  0.00    -0.206 F 
HETATM   18  C13 UNL     1      25.146   5.760  49.575  1.00  0.00     0.044 A 
HETATM   19  C14 UNL     1      25.210   4.559  50.249  1.00  0.00     0.032 A 
ENDBRANCH  11  13
ENDBRANCH   8  11
BRANCH   1  20
HETATM   20  N1  UNL     1      23.149  -0.870  53.231  1.00  0.00    -0.384 N 
HETATM   21  H4  UNL     1      23.128  -1.841  52.852  1.00  0.00     0.160 HD
BRANCH  20  22
HETATM   22  C2  UNL     1      21.927  -0.099  53.435  1.00  0.00     0.189 C 
BRANCH  22  23
HETATM   23  C1  UNL     1      21.348  -0.496  54.737  1.00  0.00     0.250 C 
HETATM   24  O1  UNL     1      21.582  -1.628  55.115  1.00  0.00    -0.305 OA
ENDBRANCH  22  23
ENDBRANCH  20  22
ENDBRANCH   1  20
TORSDOF 5
ENDMDL
MODEL 2
REMARK VINA RESULT:      -8.0      3.242      5.446
REMARK  5 active torsions:
REMARK  status: ('A' for Active; 'I' for Inactive)
REMARK    1  A    between atoms: C1_2  and  C2_3 
REMARK    2  A    between atoms: C2_3  and  N1_4 
REMARK    3  A    between atoms: N1_4  and  C3_5 
REMARK    4  A    between atoms: C8_12  and  N4_13 
REMARK    5  A    between atoms: N4_13  and  C9_14 
ROOT
HETATM    1  C3  UNL     1      22.704   1.198  52.001  1.00  0.00     0.029 A 
HETATM    2  C4  UNL     1      22.148   1.716  50.852  1.00  0.00     0.031 A 
HETATM    3  C5  UNL     1      22.943   2.445  49.994  1.00  0.00     0.035 A 
HETATM    4  C6  UNL     1      24.271   2.641  50.297  1.00  0.00     0.072 A 
HETATM    5  N2  UNL     1      24.978   3.357  49.416  1.00  0.00    -0.241 NA
HETATM    6  C7  UNL     1      26.283   3.593  49.640  1.00  0.00     0.236 A 
HETATM    7  N3  UNL     1      26.844   3.100  50.748  1.00  0.00    -0.224 NA
HETATM    8  C8  UNL     1      26.219   2.380  51.675  1.00  0.00     0.142 A 
HETATM    9  C15 UNL     1      24.890   2.152  51.427  1.00  0.00     0.041 A 
HETATM   10  C16 UNL     1      24.041   1.435  52.238  1.00  0.00     0.046 A 
ENDROOT
BRANCH   8  11
HETATM   11  N4  UNL     1      26.800   1.863  52.833  1.00  0.00    -0.340 N 
HETATM   12  H8  UNL     1      26.718   2.345  53.749  1.00  0.00     0.167 HD
BRANCH  11  13
HETATM   13  C9  UNL     1      27.557   0.693  53.031  1.00  0.00     0.033 A 
HETATM   14  C10 UNL     1      28.844   0.628  53.569  1.00  0.00     0.032 A 
HETATM   15  C11 UNL     1      29.544  -0.542  53.746  1.00  0.00     0.044 A 
HETATM   16  C12 UNL     1      28.993  -1.749  53.390  1.00  0.00     0.116 A 
HETATM   17  F1  UNL     1      29.783  -2.823  53.613  1.00  0.00    -0.206 F 
HETATM   18  C13 UNL     1      27.724  -1.739  52.853  1.00  0.00     0.044 A 
HETATM   19  C14 UNL     1      27.057  -0.544  52.692  1.00  0.00     0.032 A 
ENDBRANCH  11  13
ENDBRANCH   8  11
BRANCH   1  20
HETATM   20  N1  UNL     1      21.914   0.432  52.926  1.00  0.00    -0.384 N 
HETATM   21  H4  UNL     1      20.992   0.825  53.218  1.00  0.00     0.160 HD
BRANCH  20  22
HETATM   22  C2  UNL     1      22.397  -0.850  53.430  1.00  0.00     0.189 C 
BRANCH  22  23
HETATM   23  C1  UNL     1      22.036  -0.941  54.862  1.00  0.00     0.250 C 
HETATM   24  O1  UNL     1      22.676  -1.725  55.537  1.00  0.00    -0.305 OA
ENDBRANCH  22  23
ENDBRANCH  20  22
ENDBRANCH   1  20
TORSDOF 5
ENDMDL
MODEL 3
REMARK VINA RESULT:      -7.7      2.502      4.284
REMARK  5 active torsions:
REMARK  status: ('A' for Active; 'I' for Inactive)
REMARK    1  A    between atoms: C1_2  and  C2_3 
REMARK    2  A    between atoms: C2_3  and  N1_4 
REMARK    3  A    between atoms: N1_4  and  C3_5 
REMARK    4  A    between atoms: C8_12  and  N4_13 
REMARK    5  A    between atoms: N4_13  and  C9_14 
ROOT
HETATM    1  C3  UNL     1      25.684   1.112  53.925  1.00  0.00     0.029 A 
HETATM    2  C4  UNL     1      24.947  -0.052  53.926  1.00  0.00     0.031 A 
HETATM    3  C5  UNL     1      23.852  -0.151  53.095  1.00  0.00     0.035 A 
HETATM    4  C6  UNL     1      23.516   0.906  52.281  1.00  0.00     0.072 A 
HETATM    5  N2  UNL     1      22.443   0.734  51.502  1.00  0.00    -0.241 NA
HETATM    6  C7  UNL     1      22.049   1.722  50.679  1.00  0.00     0.236 A 
HETATM    7  N3  UNL     1      22.749   2.860  50.661  1.00  0.00    -0.224 NA
HETATM    8  C8  UNL     1      23.825   3.116  51.397  1.00  0.00     0.142 A 
HETATM    9  C15 UNL     1      24.209   2.096  52.230  1.00  0.00     0.041 A 
HETATM   10  C16 UNL     1      25.287   2.129  53.083  1.00  0.00     0.046 A 
ENDROOT
BRANCH   8  11
HETATM   11  N4  UNL     1      24.559   4.302  51.382  1.00  0.00    -0.340 N 
HETATM   12  H8  UNL     1      24.501   4.993  52.155  1.00  0.00     0.167 HD
BRANCH  11  13
HETATM   13  C9  UNL     1      25.460   4.806  50.425  1.00  0.00     0.033 A 
HETATM   14  C10 UNL     1      25.495   6.114  49.937  1.00  0.00     0.032 A 
HETATM   15  C11 UNL     1      26.398   6.561  49.001  1.00  0.00     0.044 A 
HETATM   16  C12 UNL     1      27.345   5.713  48.481  1.00  0.00     0.116 A 
HETATM   17  F1  UNL     1      28.172   6.274  47.570  1.00  0.00    -0.206 F 
HETATM   18  C13 UNL     1      27.353   4.410  48.930  1.00  0.00     0.044 A 
HETATM   19  C14 UNL     1      26.430   4.003  49.868  1.00  0.00     0.032 A 
ENDBRANCH  11  13
ENDBRANCH   8  11
BRANCH   1  20
HETATM   20  N1  UNL     1      26.833   1.261  54.775  1.00  0.00    -0.384 N 
HETATM   21  H4  UNL     1      26.818   2.029  55.481  1.00  0.00     0.160 HD
BRANCH  20  22
HETATM   22  C2  UNL     1      27.976   0.363  54.642  1.00  0.00     0.189 C 
BRANCH  22  23
HETATM   23  C1  UNL     1      29.154   1.177  54.269  1.00  0.00     0.250 C 
HETATM   24  O1  UNL     1      29.377   2.160  54.950  1.00  0.00    -0.305 OA
ENDBRANCH  22  23
ENDBRANCH  20  22
ENDBRANCH   1  20
TORSDOF 5
ENDMDL
MODEL 4
REMARK VINA RESULT:      -7.7      3.805      6.916
REMARK  5 active torsions:
REMARK  status: ('A' for Active; 'I' for Inactive)
REMARK    1  A    between atoms: C1_2  and  C2_3 
REMARK    2  A    between atoms: C2_3  and  N1_4 
REMARK    3  A    between atoms: N1_4  and  C3_5 
REMARK    4  A    between atoms: C8_12  and  N4_13 
REMARK    5  A    between atoms: N4_13  and  C9_14 
ROOT
HETATM    1  C3  UNL     1      24.604   2.788  50.998  1.00  0.00     0.029 A 
HETATM    2  C4  UNL     1      23.488   2.742  50.192  1.00  0.00     0.031 A 
HETATM    3  C5  UNL     1      22.492   1.833  50.481  1.00  0.00     0.035 A 
HETATM    4  C6  UNL     1      22.628   0.993  51.562  1.00  0.00     0.072 A 
HETATM    5  N2  UNL     1      21.620   0.141  51.778  1.00  0.00    -0.241 NA
HETATM    6  C7  UNL     1      21.679  -0.714  52.815  1.00  0.00     0.236 A 
HETATM    7  N3  UNL     1      22.752  -0.687  53.610  1.00  0.00    -0.224 NA
HETATM    8  C8  UNL     1      23.796   0.125  53.471  1.00  0.00     0.142 A 
HETATM    9  C15 UNL     1      23.716   0.987  52.407  1.00  0.00     0.041 A 
HETATM   10  C16 UNL     1      24.670   1.916  52.063  1.00  0.00     0.046 A 
ENDROOT
BRANCH   8  11
HETATM   11  N4  UNL     1      24.918   0.157  54.298  1.00  0.00    -0.340 N 
HETATM   12  H8  UNL     1      24.867   0.497  55.278  1.00  0.00     0.167 HD
BRANCH  11  13
HETATM   13  C9  UNL     1      26.250  -0.220  54.044  1.00  0.00     0.033 A 
HETATM   14  C10 UNL     1      26.676  -1.138  53.082  1.00  0.00     0.032 A 
HETATM   15  C11 UNL     1      27.993  -1.473  52.870  1.00  0.00     0.044 A 
HETATM   16  C12 UNL     1      28.991  -0.901  53.621  1.00  0.00     0.116 A 
HETATM   17  F1  UNL     1      30.241  -1.315  53.314  1.00  0.00    -0.206 F 
HETATM   18  C13 UNL     1      28.623   0.011  54.585  1.00  0.00     0.044 A 
HETATM   19  C14 UNL     1      27.292   0.319  54.766  1.00  0.00     0.032 A 
ENDBRANCH  11  13
ENDBRANCH   8  11
BRANCH   1  20
HETATM   20  N1  UNL     1      25.668   3.719  50.736  1.00  0.00    -0.384 N 
HETATM   21  H4  UNL     1      25.677   4.610  51.279  1.00  0.00     0.160 HD
BRANCH  20  22
HETATM   22  C2  UNL     1      26.691   3.415  49.741  1.00  0.00     0.189 C 
BRANCH  22  23
HETATM   23  C1  UNL     1      27.004   4.664  49.013  1.00  0.00     0.250 C 
HETATM   24  O1  UNL     1      28.147   4.794  48.617  1.00  0.00    -0.305 OA
ENDBRANCH  22  23
ENDBRANCH  20  22
ENDBRANCH   1  20
TORSDOF 5
ENDMDL
MODEL 5
REMARK VINA RESULT:      -7.5      4.033      6.387
REMARK  5 active torsions:
REMARK  status: ('A' for Active; 'I' for Inactive)
REMARK    1  A    between atoms: C1_2  and  C2_3 
REMARK    2  A    between atoms: C2_3  and  N1_4 
REMARK    3  A    between atoms: N1_4  and  C3_5 
REMARK    4  A    between atoms: C8_12  and  N4_13 
REMARK    5  A    between atoms: N4_13  and  C9_14 
ROOT
HETATM    1  C3  UNL     1      21.419   0.970  51.628  1.00  0.00     0.029 A 
HETATM    2  C4  UNL     1      20.294   0.472  52.248  1.00  0.00     0.031 A 
HETATM    3  C5  UNL     1      20.441  -0.291  53.387  1.00  0.00     0.035 A 
HETATM    4  C6  UNL     1      21.700  -0.541  53.883  1.00  0.00     0.072 A 
HETATM    5  N2  UNL     1      21.761  -1.287  54.990  1.00  0.00    -0.241 NA
HETATM    6  C7  UNL     1      22.956  -1.577  55.536  1.00  0.00     0.236 A 
HETATM    7  N3  UNL     1      24.060  -1.104  54.951  1.00  0.00    -0.224 NA
HETATM    8  C8  UNL     1      24.093  -0.356  53.853  1.00  0.00     0.142 A 
HETATM    9  C15 UNL     1      22.864  -0.075  53.312  1.00  0.00     0.041 A 
HETATM   10  C16 UNL     1      22.647   0.678  52.182  1.00  0.00     0.046 A 
ENDROOT
BRANCH   8  11
HETATM   11  N4  UNL     1      25.243   0.139  53.239  1.00  0.00    -0.340 N 
HETATM   12  H8  UNL     1      25.200   0.873  52.505  1.00  0.00     0.167 HD
BRANCH  11  13
HETATM   13  C9  UNL     1      26.597  -0.193  53.433  1.00  0.00     0.033 A 
HETATM   14  C10 UNL     1      27.279  -1.253  52.833  1.00  0.00     0.032 A 
HETATM   15  C11 UNL     1      28.606  -1.536  53.053  1.00  0.00     0.044 A 
HETATM   16  C12 UNL     1      29.355  -0.762  53.906  1.00  0.00     0.116 A 
HETATM   17  F1  UNL     1      30.645  -1.145  54.037  1.00  0.00    -0.206 F 
HETATM   18  C13 UNL     1      28.728   0.297  54.525  1.00  0.00     0.044 A 
HETATM   19  C14 UNL     1      27.396   0.546  54.277  1.00  0.00     0.032 A 
ENDBRANCH  11  13
ENDBRANCH   8  11
BRANCH   1  20
HETATM   20  N1  UNL     1      21.315   1.770  50.438  1.00  0.00    -0.384 N 
HETATM   21  H4  UNL     1      20.392   2.208  50.227  1.00  0.00     0.160 HD
BRANCH  20  22
HETATM   22  C2  UNL     1      22.469   1.954  49.564  1.00  0.00     0.189 C 
BRANCH  22  23
HETATM   23  C1  UNL     1      22.862   3.379  49.621  1.00  0.00     0.250 C 
HETATM   24  O1  UNL     1      23.321   3.860  48.602  1.00  0.00    -0.305 OA
ENDBRANCH  22  23
ENDBRANCH  20  22
ENDBRANCH   1  20
TORSDOF 5
ENDMDL
MODEL 6
REMARK VINA RESULT:      -7.3      2.683      4.738
REMARK  5 active torsions:
REMARK  status: ('A' for Active; 'I' for Inactive)
REMARK    1  A    between atoms: C1_2  and  C2_3 
REMARK    2  A    between atoms: C2_3  and  N1_4 
REMARK    3  A    between atoms: N1_4  and  C3_5 
REMARK    4  A    between atoms: C8_12  and  N4_13 
REMARK    5  A    between atoms: N4_13  and  C9_14 
ROOT
HETATM    1  C3  UNL     1      25.164  -0.661  54.481  1.00  0.00     0.029 A 
HETATM    2  C4  UNL     1      24.493  -1.308  55.495  1.00  0.00     0.031 A 
HETATM    3  C5  UNL     1      23.115  -1.355  55.463  1.00  0.00     0.035 A 
HETATM    4  C6  UNL     1      22.438  -0.759  54.424  1.00  0.00     0.072 A 
HETATM    5  N2  UNL     1      21.104  -0.847  54.461  1.00  0.00    -0.241 NA
HETATM    6  C7  UNL     1      20.370  -0.290  53.481  1.00  0.00     0.236 A 
HETATM    7  N3  UNL     1      20.999   0.342  52.487  1.00  0.00    -0.224 NA
HETATM    8  C8  UNL     1      22.317   0.477  52.370  1.00  0.00     0.142 A 
HETATM    9  C15 UNL     1      23.046  -0.097  53.379  1.00  0.00     0.041 A 
HETATM   10  C16 UNL     1      24.418  -0.088  53.473  1.00  0.00     0.046 A 
ENDROOT
BRANCH   8  11
HETATM   11  N4  UNL     1      22.979   1.136  51.334  1.00  0.00    -0.340 N 
HETATM   12  H8  UNL     1      23.266   0.643  50.466  1.00  0.00     0.167 HD
BRANCH  11  13
HETATM   13  C9  UNL     1      23.378   2.480  51.215  1.00  0.00     0.033 A 
HETATM   14  C10 UNL     1      24.115   3.029  50.163  1.00  0.00     0.032 A 
HETATM   15  C11 UNL     1      24.481   4.353  50.091  1.00  0.00     0.044 A 
HETATM   16  C12 UNL     1      24.127   5.233  51.084  1.00  0.00     0.116 A 
HETATM   17  F1  UNL     1      24.547   6.504  50.894  1.00  0.00    -0.206 F 
HETATM   18  C13 UNL     1      23.398   4.740  52.145  1.00  0.00     0.044 A 
HETATM   19  C14 UNL     1      23.053   3.407  52.180  1.00  0.00     0.032 A 
ENDBRANCH  11  13
ENDBRANCH   8  11
BRANCH   1  20
HETATM   20  N1  UNL     1      26.599  -0.587  54.473  1.00  0.00    -0.384 N 
HETATM   21  H4  UNL     1      27.109  -0.959  55.304  1.00  0.00     0.160 HD
BRANCH  20  22
HETATM   22  C2  UNL     1      27.306  -0.006  53.336  1.00  0.00     0.189 C 
BRANCH  22  23
HETATM   23  C1  UNL     1      28.396   0.844  53.862  1.00  0.00     0.250 C 
HETATM   24  O1  UNL     1      28.530   0.874  55.071  1.00  0.00    -0.305 OA
ENDBRANCH  22  23
ENDBRANCH  20  22
ENDBRANCH   1  20
TORSDOF 5
ENDMDL
MODEL 7
REMARK VINA RESULT:      -7.2      3.854      6.803
REMARK  5 active torsions:
REMARK  status: ('A' for Active; 'I' for Inactive)
REMARK    1  A    between atoms: C1_2  and  C2_3 
REMARK    2  A    between atoms: C2_3  and  N1_4 
REMARK    3  A    between atoms: N1_4  and  C3_5 
REMARK    4  A    between atoms: C8_12  and  N4_13 
REMARK    5  A    between atoms: N4_13  and  C9_14 
ROOT
HETATM    1  C3  UNL     1      26.702   2.186  52.208  1.00  0.00     0.029 A 
HETATM    2  C4  UNL     1      27.657   1.883  53.153  1.00  0.00     0.031 A 
HETATM    3  C5  UNL     1      27.357   0.968  54.139  1.00  0.00     0.035 A 
HETATM    4  C6  UNL     1      26.116   0.374  54.162  1.00  0.00     0.072 A 
HETATM    5  N2  UNL     1      25.899  -0.504  55.147  1.00  0.00    -0.241 NA
HETATM    6  C7  UNL     1      24.710  -1.127  55.238  1.00  0.00     0.236 A 
HETATM    7  N3  UNL     1      23.769  -0.849  54.332  1.00  0.00    -0.224 NA
HETATM    8  C8  UNL     1      23.897   0.006  53.322  1.00  0.00     0.142 A 
HETATM    9  C15 UNL     1      25.116   0.631  53.248  1.00  0.00     0.041 A 
HETATM   10  C16 UNL     1      25.482   1.551  52.294  1.00  0.00     0.046 A 
ENDROOT
BRANCH   8  11
HETATM   11  N4  UNL     1      22.917   0.299  52.373  1.00  0.00    -0.340 N 
HETATM   12  H8  UNL     1      23.150   0.749  51.466  1.00  0.00     0.167 HD
BRANCH  11  13
HETATM   13  C9  UNL     1      21.527   0.086  52.401  1.00  0.00     0.033 A 
HETATM   14  C10 UNL     1      20.805  -0.494  53.446  1.00  0.00     0.032 A 
HETATM   15  C11 UNL     1      19.443  -0.680  53.428  1.00  0.00     0.044 A 
HETATM   16  C12 UNL     1      18.697  -0.291  52.342  1.00  0.00     0.116 A 
HETATM   17  F1  UNL     1      17.370  -0.529  52.449  1.00  0.00    -0.206 F 
HETATM   18  C13 UNL     1      19.363   0.287  51.283  1.00  0.00     0.044 A 
HETATM   19  C14 UNL     1      20.729   0.454  51.341  1.00  0.00     0.032 A 
ENDBRANCH  11  13
ENDBRANCH   8  11
BRANCH   1  20
HETATM   20  N1  UNL     1      26.971   3.134  51.161  1.00  0.00    -0.384 N 
HETATM   21  H4  UNL     1      27.910   3.589  51.147  1.00  0.00     0.160 HD
BRANCH  20  22
HETATM   22  C2  UNL     1      25.954   3.443  50.161  1.00  0.00     0.189 C 
BRANCH  22  23
HETATM   23  C1  UNL     1      26.506   4.471  49.252  1.00  0.00     0.250 C 
HETATM   24  O1  UNL     1      27.662   4.326  48.901  1.00  0.00    -0.305 OA
ENDBRANCH  22  23
ENDBRANCH  20  22
ENDBRANCH   1  20
TORSDOF 5
ENDMDL
MODEL 8
REMARK VINA RESULT:      -7.2      3.909      6.858
REMARK  5 active torsions:
REMARK  status: ('A' for Active; 'I' for Inactive)
REMARK    1  A    between atoms: C1_2  and  C2_3 
REMARK    2  A    between atoms: C2_3  and  N1_4 
REMARK    3  A    between atoms: N1_4  and  C3_5 
REMARK    4  A    between atoms: C8_12  and  N4_13 
REMARK    5  A    between atoms: N4_13  and  C9_14 
ROOT
HETATM    1  C3  UNL     1      26.150   1.982  53.122  1.00  0.00     0.029 A 
HETATM    2  C4  UNL     1      27.015   2.229  52.079  1.00  0.00     0.031 A 
HETATM    3  C5  UNL     1      26.502   2.636  50.866  1.00  0.00     0.035 A 
HETATM    4  C6  UNL     1      25.142   2.790  50.718  1.00  0.00     0.072 A 
HETATM    5  N2  UNL     1      24.720   3.189  49.514  1.00  0.00    -0.241 NA
HETATM    6  C7  UNL     1      23.405   3.362  49.290  1.00  0.00     0.236 A 
HETATM    7  N3  UNL     1      22.548   3.129  50.287  1.00  0.00    -0.224 NA
HETATM    8  C8  UNL     1      22.878   2.732  51.513  1.00  0.00     0.142 A 
HETATM    9  C15 UNL     1      24.223   2.561  51.719  1.00  0.00     0.041 A 
HETATM   10  C16 UNL     1      24.801   2.158  52.900  1.00  0.00     0.046 A 
ENDROOT
BRANCH   8  11
HETATM   11  N4  UNL     1      21.986   2.487  52.557  1.00  0.00    -0.340 N 
HETATM   12  H8  UNL     1      21.783   3.201  53.283  1.00  0.00     0.167 HD
BRANCH  11  13
HETATM   13  C9  UNL     1      21.223   1.343  52.857  1.00  0.00     0.033 A 
HETATM   14  C10 UNL     1      20.023   0.971  52.248  1.00  0.00     0.032 A 
HETATM   15  C11 UNL     1      19.314  -0.160  52.574  1.00  0.00     0.044 A 
HETATM   16  C12 UNL     1      19.767  -1.013  53.551  1.00  0.00     0.116 A 
HETATM   17  F1  UNL     1      18.979  -2.088  53.778  1.00  0.00    -0.206 F 
HETATM   18  C13 UNL     1      20.948  -0.691  54.184  1.00  0.00     0.044 A 
HETATM   19  C14 UNL     1      21.628   0.453  53.827  1.00  0.00     0.032 A 
ENDBRANCH  11  13
ENDBRANCH   8  11
BRANCH   1  20
HETATM   20  N1  UNL     1      26.640   1.555  54.404  1.00  0.00    -0.384 N 
HETATM   21  H4  UNL     1      26.585   2.233  55.195  1.00  0.00     0.160 HD
BRANCH  20  22
HETATM   22  C2  UNL     1      27.193   0.215  54.579  1.00  0.00     0.189 C 
BRANCH  22  23
HETATM   23  C1  UNL     1      28.643   0.351  54.839  1.00  0.00     0.250 C 
HETATM   24  O1  UNL     1      29.379   0.295  53.872  1.00  0.00    -0.305 OA
ENDBRANCH  22  23
ENDBRANCH  20  22
ENDBRANCH   1  20
TORSDOF 5
ENDMDL
MODEL 9
REMARK VINA RESULT:      -7.1      3.315      5.254
REMARK  5 active torsions:
REMARK  status: ('A' for Active; 'I' for Inactive)
REMARK    1  A    between atoms: C1_2  and  C2_3 
REMARK    2  A    between atoms: C2_3  and  N1_4 
REMARK    3  A    between atoms: N1_4  and  C3_5 
REMARK    4  A    between atoms: C8_12  and  N4_13 
REMARK    5  A    between atoms: N4_13  and  C9_14 
ROOT
HETATM    1  C3  UNL     1      25.493  -0.459  54.631  1.00  0.00     0.029 A 
HETATM    2  C4  UNL     1      24.851  -1.190  55.607  1.00  0.00     0.031 A 
HETATM    3  C5  UNL     1      23.482  -1.335  55.542  1.00  0.00     0.035 A 
HETATM    4  C6  UNL     1      22.783  -0.754  54.509  1.00  0.00     0.072 A 
HETATM    5  N2  UNL     1      21.459  -0.941  54.513  1.00  0.00    -0.241 NA
HETATM    6  C7  UNL     1      20.705  -0.403  53.537  1.00  0.00     0.236 A 
HETATM    7  N3  UNL     1      21.306   0.309  52.580  1.00  0.00    -0.224 NA
HETATM    8  C8  UNL     1      22.612   0.544  52.497  1.00  0.00     0.142 A 
HETATM    9  C15 UNL     1      23.361  -0.012  53.502  1.00  0.00     0.041 A 
HETATM   10  C16 UNL     1      24.726   0.094  53.627  1.00  0.00     0.046 A 
ENDROOT
BRANCH   8  11
HETATM   11  N4  UNL     1      23.243   1.286  51.500  1.00  0.00    -0.340 N 
HETATM   12  H8  UNL     1      24.229   1.600  51.591  1.00  0.00     0.167 HD
BRANCH  11  13
HETATM   13  C9  UNL     1      22.761   1.746  50.260  1.00  0.00     0.033 A 
HETATM   14  C10 UNL     1      21.751   1.154  49.499  1.00  0.00     0.032 A 
HETATM   15  C11 UNL     1      21.311   1.644  48.292  1.00  0.00     0.044 A 
HETATM   16  C12 UNL     1      21.863   2.781  47.754  1.00  0.00     0.116 A 
HETATM   17  F1  UNL     1      21.344   3.157  46.564  1.00  0.00    -0.206 F 
HETATM   18  C13 UNL     1      22.865   3.404  48.466  1.00  0.00     0.044 A 
HETATM   19  C14 UNL     1      23.277   2.880  49.673  1.00  0.00     0.032 A 
ENDBRANCH  11  13
ENDBRANCH   8  11
BRANCH   1  20
HETATM   20  N1  UNL     1      26.919  -0.280  54.657  1.00  0.00    -0.384 N 
HETATM   21  H4  UNL     1      27.441  -0.667  55.473  1.00  0.00     0.160 HD
BRANCH  20  22
HETATM   22  C2  UNL     1      27.598   0.423  53.574  1.00  0.00     0.189 C 
BRANCH  22  23
HETATM   23  C1  UNL     1      28.612   1.317  54.176  1.00  0.00     0.250 C 
HETATM   24  O1  UNL     1      28.319   2.495  54.258  1.00  0.00    -0.305 OA
ENDBRANCH  22  23
ENDBRANCH  20  22
ENDBRANCH   1  20
TORSDOF 5
ENDMDL
