MODEL 1
REMARK VINA RESULT:      -8.4      0.000      0.000
REMARK  5 active torsions:
REMARK  status: ('A' for Active; 'I' for Inactive)
REMARK    1  A    between atoms: C2_2  and  C4_4 
REMARK    2  A    between atoms: C4_4  and  O1_5 
REMARK    3  A    between atoms: O1_5  and  C5_6 
REMARK       I    between atoms: C5_6  and  N1_8 
REMARK    4  A    between atoms: C12_15  and  N2_16 
REMARK    5  A    between atoms: C17_22  and  N3_23 
ROOT
HETATM    1  C5  UNL     1      22.837   7.600  49.880  1.00  0.00     0.363 C 
HETATM    2  O2  UNL     1      23.267   8.444  49.058  1.00  0.00    -0.238 OA
HETATM    3  N1  UNL     1      23.784   6.542  49.958  1.00  0.00    -0.317 N 
HETATM    4  C6  UNL     1      24.944   6.713  49.103  1.00  0.00     0.155 C 
HETATM    5  C7  UNL     1      25.695   5.453  49.017  1.00  0.00    -0.008 C 
HETATM    6  C8  UNL     1      25.398   4.223  49.414  1.00  0.00     0.010 C 
HETATM    7  C9  UNL     1      24.087   4.095  50.055  1.00  0.00     0.118 A 
HETATM    8  C10 UNL     1      24.054   3.024  51.097  1.00  0.00     0.025 A 
HETATM    9  C11 UNL     1      24.799   2.913  52.163  1.00  0.00     0.018 A 
HETATM   10  C12 UNL     1      24.635   1.775  53.105  1.00  0.00     0.155 A 
HETATM   11  C18 UNL     1      23.538   0.857  52.630  1.00  0.00     0.121 A 
HETATM   12  N4  UNL     1      22.778   0.929  51.588  1.00  0.00    -0.241 NA
HETATM   13  C19 UNL     1      23.010   2.055  50.743  1.00  0.00     0.177 A 
HETATM   14  N5  UNL     1      22.453   2.440  49.643  1.00  0.00    -0.155 NA
HETATM   15  N6  UNL     1      23.031   3.631  49.175  1.00  0.00    -0.287 N 
HETATM   16  C20 UNL     1      22.543   4.229  47.948  1.00  0.00     0.175 C 
HETATM   17  C21 UNL     1      23.695   5.366  50.777  1.00  0.00     0.124 C 
HETATM   18  C22 UNL     1      22.340   5.289  51.393  1.00  0.00     0.036 C 
ENDROOT
BRANCH  10  19
HETATM   19  N2  UNL     1      25.830   0.930  53.169  1.00  0.00    -0.328 N 
HETATM   20  C13 UNL     1      25.648  -0.322  52.699  1.00  0.00     0.094 A 
HETATM   21  C14 UNL     1      26.643  -1.249  52.678  1.00  0.00     0.019 A 
HETATM   22  C15 UNL     1      27.909  -0.929  53.149  1.00  0.00     0.029 A 
HETATM   23  C16 UNL     1      28.064   0.350  53.619  1.00  0.00     0.079 A 
HETATM   24 CL1  UNL     1      29.628   0.831  54.230  1.00  0.00    -0.080 Cl
HETATM   25  C17 UNL     1      27.043   1.283  53.635  1.00  0.00     0.145 A 
BRANCH  25  26
HETATM   26  N3  UNL     1      27.145   2.482  54.063  1.00  0.00    -0.282 NA
HETATM   27  H19 UNL     1      27.370   2.628  55.084  1.00  0.00     0.188 HD
ENDBRANCH  25  26
ENDBRANCH  10  19
BRANCH   1  28
HETATM   28  O1  UNL     1      21.652   7.737  50.550  1.00  0.00    -0.304 OA
BRANCH  28  29
HETATM   29  C4  UNL     1      20.503   8.363  50.016  1.00  0.00     0.184 C 
BRANCH  29  30
HETATM   30  C2  UNL     1      19.972   7.480  48.907  1.00  0.00     0.002 C 
HETATM   31  C1  UNL     1      18.868   8.217  48.147  1.00  0.00     0.011 C 
HETATM   32  C3  UNL     1      19.374   6.235  49.521  1.00  0.00     0.011 C 
ENDBRANCH  29  30
ENDBRANCH  28  29
ENDBRANCH   1  28
TORSDOF 5
ENDMDL
MODEL 2
REMARK VINA RESULT:      -8.1      4.622      7.108
REMARK  5 active torsions:
REMARK  status: ('A' for Active; 'I' for Inactive)
REMARK    1  A    between atoms: C2_2  and  C4_4 
REMARK    2  A    between atoms: C4_4  and  O1_5 
REMARK    3  A    between atoms: O1_5  and  C5_6 
REMARK       I    between atoms: C5_6  and  N1_8 
REMARK    4  A    between atoms: C12_15  and  N2_16 
REMARK    5  A    between atoms: C17_22  and  N3_23 
ROOT
HETATM    1  C5  UNL     1      30.167   9.918  48.866  1.00  0.00     0.363 C 
HETATM    2  O2  UNL     1      31.387   9.746  48.629  1.00  0.00    -0.238 OA
HETATM    3  N1  UNL     1      29.537   8.644  48.867  1.00  0.00    -0.317 N 
HETATM    4  C6  UNL     1      30.433   7.532  48.606  1.00  0.00     0.155 C 
HETATM    5  C7  UNL     1      29.657   6.317  48.321  1.00  0.00    -0.008 C 
HETATM    6  C8  UNL     1      28.363   6.132  48.095  1.00  0.00     0.010 C 
HETATM    7  C9  UNL     1      27.561   7.357  48.137  1.00  0.00     0.118 A 
HETATM    8  C10 UNL     1      26.166   7.121  48.617  1.00  0.00     0.025 A 
HETATM    9  C11 UNL     1      25.781   6.601  49.751  1.00  0.00     0.018 A 
HETATM   10  C12 UNL     1      24.339   6.434  50.074  1.00  0.00     0.155 A 
HETATM   11  C18 UNL     1      23.487   6.937  48.937  1.00  0.00     0.121 A 
HETATM   12  N4  UNL     1      23.825   7.456  47.803  1.00  0.00    -0.241 NA
HETATM   13  C19 UNL     1      25.229   7.576  47.582  1.00  0.00     0.177 A 
HETATM   14  N5  UNL     1      25.912   8.037  46.589  1.00  0.00    -0.155 NA
HETATM   15  N6  UNL     1      27.291   7.943  46.838  1.00  0.00    -0.287 N 
HETATM   16  C20 UNL     1      28.232   8.411  45.839  1.00  0.00     0.175 C 
HETATM   17  C21 UNL     1      28.146   8.371  49.096  1.00  0.00     0.124 C 
HETATM   18  C22 UNL     1      27.385   9.652  49.120  1.00  0.00     0.036 C 
ENDROOT
BRANCH  10  19
HETATM   19  N2  UNL     1      23.965   5.027  50.230  1.00  0.00    -0.328 N 
HETATM   20  C13 UNL     1      23.767   4.374  49.066  1.00  0.00     0.094 A 
HETATM   21  C14 UNL     1      23.414   3.062  49.011  1.00  0.00     0.019 A 
HETATM   22  C15 UNL     1      23.241   2.333  50.181  1.00  0.00     0.029 A 
HETATM   23  C16 UNL     1      23.449   3.023  51.347  1.00  0.00     0.079 A 
HETATM   24 CL1  UNL     1      23.252   2.177  52.863  1.00  0.00    -0.080 Cl
HETATM   25  C17 UNL     1      23.808   4.358  51.388  1.00  0.00     0.145 A 
BRANCH  25  26
HETATM   26  N3  UNL     1      24.011   5.036  52.452  1.00  0.00    -0.282 NA
HETATM   27  H19 UNL     1      24.987   5.052  52.853  1.00  0.00     0.188 HD
ENDBRANCH  25  26
ENDBRANCH  10  19
BRANCH   1  28
HETATM   28  O1  UNL     1      29.607  11.148  49.076  1.00  0.00    -0.304 OA
BRANCH  28  29
HETATM   29  C4  UNL     1      30.298  12.373  48.934  1.00  0.00     0.184 C 
BRANCH  29  30
HETATM   30  C2  UNL     1      29.442  13.287  48.084  1.00  0.00     0.002 C 
HETATM   31  C1  UNL     1      28.026  13.346  48.658  1.00  0.00     0.011 C 
HETATM   32  C3  UNL     1      29.363  12.719  46.686  1.00  0.00     0.011 C 
ENDBRANCH  29  30
ENDBRANCH  28  29
ENDBRANCH   1  28
TORSDOF 5
ENDMDL
MODEL 3
REMARK VINA RESULT:      -7.7      2.099      3.109
REMARK  5 active torsions:
REMARK  status: ('A' for Active; 'I' for Inactive)
REMARK    1  A    between atoms: C2_2  and  C4_4 
REMARK    2  A    between atoms: C4_4  and  O1_5 
REMARK    3  A    between atoms: O1_5  and  C5_6 
REMARK       I    between atoms: C5_6  and  N1_8 
REMARK    4  A    between atoms: C12_15  and  N2_16 
REMARK    5  A    between atoms: C17_22  and  N3_23 
ROOT
HETATM    1  C5  UNL     1      21.919   5.393  47.073  1.00  0.00     0.363 C 
HETATM    2  O2  UNL     1      21.247   5.066  46.066  1.00  0.00    -0.238 OA
HETATM    3  N1  UNL     1      22.350   4.201  47.719  1.00  0.00    -0.317 N 
HETATM    4  C6  UNL     1      21.915   2.978  47.069  1.00  0.00     0.155 C 
HETATM    5  C7  UNL     1      22.135   1.830  47.960  1.00  0.00    -0.008 C 
HETATM    6  C8  UNL     1      22.467   1.763  49.242  1.00  0.00     0.010 C 
HETATM    7  C9  UNL     1      22.649   3.064  49.889  1.00  0.00     0.118 A 
HETATM    8  C10 UNL     1      23.670   3.032  50.980  1.00  0.00     0.025 A 
HETATM    9  C11 UNL     1      24.924   2.681  50.901  1.00  0.00     0.018 A 
HETATM   10  C12 UNL     1      25.810   2.706  52.094  1.00  0.00     0.155 A 
HETATM   11  C18 UNL     1      25.044   3.172  53.305  1.00  0.00     0.121 A 
HETATM   12  N4  UNL     1      23.808   3.528  53.428  1.00  0.00    -0.241 NA
HETATM   13  C19 UNL     1      23.036   3.472  52.229  1.00  0.00     0.177 A 
HETATM   14  N5  UNL     1      21.799   3.748  51.984  1.00  0.00    -0.155 NA
HETATM   15  N6  UNL     1      21.493   3.534  50.630  1.00  0.00    -0.287 N 
HETATM   16  C20 UNL     1      20.149   3.788  50.151  1.00  0.00     0.175 C 
HETATM   17  C21 UNL     1      23.146   4.106  48.910  1.00  0.00     0.124 C 
HETATM   18  C22 UNL     1      23.287   5.457  49.523  1.00  0.00     0.036 C 
ENDROOT
BRANCH  10  19
HETATM   19  N2  UNL     1      26.298   1.372  52.450  1.00  0.00    -0.328 N 
HETATM   20  C13 UNL     1      25.351   0.412  52.433  1.00  0.00     0.094 A 
HETATM   21  C14 UNL     1      25.615  -0.887  52.735  1.00  0.00     0.019 A 
HETATM   22  C15 UNL     1      26.903  -1.278  53.081  1.00  0.00     0.029 A 
HETATM   23  C16 UNL     1      27.844  -0.281  53.090  1.00  0.00     0.079 A 
HETATM   24 CL1  UNL     1      29.489  -0.691  53.514  1.00  0.00    -0.080 Cl
HETATM   25  C17 UNL     1      27.560   1.036  52.780  1.00  0.00     0.145 A 
BRANCH  25  26
HETATM   26  N3  UNL     1      28.407   1.993  52.776  1.00  0.00    -0.282 NA
HETATM   27  H19 UNL     1      29.324   1.844  52.275  1.00  0.00     0.188 HD
ENDBRANCH  25  26
ENDBRANCH  10  19
BRANCH   1  28
HETATM   28  O1  UNL     1      22.158   6.691  47.431  1.00  0.00    -0.304 OA
BRANCH  28  29
HETATM   29  C4  UNL     1      22.365   7.746  46.513  1.00  0.00     0.184 C 
BRANCH  29  30
HETATM   30  C2  UNL     1      23.485   8.610  47.050  1.00  0.00     0.002 C 
HETATM   31  C1  UNL     1      24.790   7.814  47.056  1.00  0.00     0.011 C 
HETATM   32  C3  UNL     1      23.160   8.998  48.473  1.00  0.00     0.011 C 
ENDBRANCH  29  30
ENDBRANCH  28  29
ENDBRANCH   1  28
TORSDOF 5
ENDMDL
MODEL 4
REMARK VINA RESULT:      -7.6      5.518      8.912
REMARK  5 active torsions:
REMARK  status: ('A' for Active; 'I' for Inactive)
REMARK    1  A    between atoms: C2_2  and  C4_4 
REMARK    2  A    between atoms: C4_4  and  O1_5 
REMARK    3  A    between atoms: O1_5  and  C5_6 
REMARK       I    between atoms: C5_6  and  N1_8 
REMARK    4  A    between atoms: C12_15  and  N2_16 
REMARK    5  A    between atoms: C17_22  and  N3_23 
ROOT
HETATM    1  C5  UNL     1      23.149   1.920  52.479  1.00  0.00     0.363 C 
HETATM    2  O2  UNL     1      23.788   0.935  52.919  1.00  0.00    -0.238 OA
HETATM    3  N1  UNL     1      21.768   1.585  52.484  1.00  0.00    -0.317 N 
HETATM    4  C6  UNL     1      21.477   0.249  52.974  1.00  0.00     0.155 C 
HETATM    5  C7  UNL     1      20.090  -0.113  52.653  1.00  0.00    -0.008 C 
HETATM    6  C8  UNL     1      19.185   0.469  51.877  1.00  0.00     0.010 C 
HETATM    7  C9  UNL     1      19.650   1.694  51.221  1.00  0.00     0.118 A 
HETATM    8  C10 UNL     1      18.553   2.684  50.999  1.00  0.00     0.025 A 
HETATM    9  C11 UNL     1      17.767   3.229  51.888  1.00  0.00     0.018 A 
HETATM   10  C12 UNL     1      16.717   4.205  51.495  1.00  0.00     0.155 A 
HETATM   11  C18 UNL     1      16.735   4.421  50.003  1.00  0.00     0.121 A 
HETATM   12  N4  UNL     1      17.492   3.906  49.092  1.00  0.00    -0.241 NA
HETATM   13  C19 UNL     1      18.470   2.980  49.564  1.00  0.00     0.177 A 
HETATM   14  N5  UNL     1      19.374   2.290  48.952  1.00  0.00    -0.155 NA
HETATM   15  N6  UNL     1      20.109   1.508  49.857  1.00  0.00    -0.287 N 
HETATM   16  C20 UNL     1      21.176   0.658  49.366  1.00  0.00     0.175 C 
HETATM   17  C21 UNL     1      20.677   2.419  52.063  1.00  0.00     0.124 C 
HETATM   18  C22 UNL     1      21.213   3.640  51.398  1.00  0.00     0.036 C 
ENDROOT
BRANCH  10  19
HETATM   19  N2  UNL     1      15.368   3.715  51.786  1.00  0.00    -0.328 N 
HETATM   20  C13 UNL     1      14.815   2.990  50.792  1.00  0.00     0.094 A 
HETATM   21  C14 UNL     1      13.569   2.453  50.881  1.00  0.00     0.019 A 
HETATM   22  C15 UNL     1      12.805   2.638  52.026  1.00  0.00     0.029 A 
HETATM   23  C16 UNL     1      13.393   3.379  53.019  1.00  0.00     0.079 A 
HETATM   24 CL1  UNL     1      12.498   3.657  54.493  1.00  0.00    -0.080 Cl
HETATM   25  C17 UNL     1      14.662   3.919  52.915  1.00  0.00     0.145 A 
BRANCH  25  26
HETATM   26  N3  UNL     1      15.245   4.614  53.815  1.00  0.00    -0.282 NA
HETATM   27  H19 UNL     1      14.695   5.384  54.282  1.00  0.00     0.188 HD
ENDBRANCH  25  26
ENDBRANCH  10  19
BRANCH   1  28
HETATM   28  O1  UNL     1      23.743   3.086  52.082  1.00  0.00    -0.304 OA
BRANCH  28  29
HETATM   29  C4  UNL     1      25.060   3.177  51.574  1.00  0.00     0.184 C 
BRANCH  29  30
HETATM   30  C2  UNL     1      24.998   3.946  50.272  1.00  0.00     0.002 C 
HETATM   31  C1  UNL     1      24.087   3.215  49.286  1.00  0.00     0.011 C 
HETATM   32  C3  UNL     1      26.386   4.008  49.678  1.00  0.00     0.011 C 
ENDBRANCH  29  30
ENDBRANCH  28  29
ENDBRANCH   1  28
TORSDOF 5
ENDMDL
MODEL 5
REMARK VINA RESULT:      -7.5      4.306      8.488
REMARK  5 active torsions:
REMARK  status: ('A' for Active; 'I' for Inactive)
REMARK    1  A    between atoms: C2_2  and  C4_4 
REMARK    2  A    between atoms: C4_4  and  O1_5 
REMARK    3  A    between atoms: O1_5  and  C5_6 
REMARK       I    between atoms: C5_6  and  N1_8 
REMARK    4  A    between atoms: C12_15  and  N2_16 
REMARK    5  A    between atoms: C17_22  and  N3_23 
ROOT
HETATM    1  C5  UNL     1      25.949   2.497  51.002  1.00  0.00     0.363 C 
HETATM    2  O2  UNL     1      27.132   2.773  51.313  1.00  0.00    -0.238 OA
HETATM    3  N1  UNL     1      25.527   3.427  50.013  1.00  0.00    -0.317 N 
HETATM    4  C6  UNL     1      26.534   4.405  49.642  1.00  0.00     0.155 C 
HETATM    5  C7  UNL     1      25.918   5.490  48.866  1.00  0.00    -0.008 C 
HETATM    6  C8  UNL     1      24.648   5.791  48.628  1.00  0.00     0.010 C 
HETATM    7  C9  UNL     1      23.684   4.881  49.250  1.00  0.00     0.118 A 
HETATM    8  C10 UNL     1      22.428   4.736  48.455  1.00  0.00     0.025 A 
HETATM    9  C11 UNL     1      22.297   4.337  47.219  1.00  0.00     0.018 A 
HETATM   10  C12 UNL     1      20.962   4.249  46.573  1.00  0.00     0.155 A 
HETATM   11  C18 UNL     1      19.884   4.674  47.537  1.00  0.00     0.121 A 
HETATM   12  N4  UNL     1      19.969   5.074  48.764  1.00  0.00    -0.241 NA
HETATM   13  C19 UNL     1      21.290   5.126  49.298  1.00  0.00     0.177 A 
HETATM   14  N5  UNL     1      21.741   5.468  50.458  1.00  0.00    -0.155 NA
HETATM   15  N6  UNL     1      23.140   5.352  50.510  1.00  0.00    -0.287 N 
HETATM   16  C20 UNL     1      23.841   5.691  51.733  1.00  0.00     0.175 C 
HETATM   17  C21 UNL     1      24.243   3.480  49.372  1.00  0.00     0.124 C 
HETATM   18  C22 UNL     1      23.308   2.540  50.054  1.00  0.00     0.036 C 
ENDROOT
BRANCH  10  19
HETATM   19  N2  UNL     1      20.833   5.167  45.439  1.00  0.00    -0.328 N 
HETATM   20  C13 UNL     1      20.675   6.460  45.788  1.00  0.00     0.094 A 
HETATM   21  C14 UNL     1      20.539   7.457  44.872  1.00  0.00     0.019 A 
HETATM   22  C15 UNL     1      20.559   7.168  43.514  1.00  0.00     0.029 A 
HETATM   23  C16 UNL     1      20.721   5.845  43.190  1.00  0.00     0.079 A 
HETATM   24 CL1  UNL     1      20.757   5.399  41.501  1.00  0.00    -0.080 Cl
HETATM   25  C17 UNL     1      20.858   4.842  44.132  1.00  0.00     0.145 A 
BRANCH  25  26
HETATM   26  N3  UNL     1      21.011   3.601  43.872  1.00  0.00    -0.282 NA
HETATM   27  H19 UNL     1      21.638   3.335  43.066  1.00  0.00     0.188 HD
ENDBRANCH  25  26
ENDBRANCH  10  19
BRANCH   1  28
HETATM   28  O1  UNL     1      25.245   1.464  51.559  1.00  0.00    -0.304 OA
BRANCH  28  29
HETATM   29  C4  UNL     1      25.229   1.165  52.940  1.00  0.00     0.184 C 
BRANCH  29  30
HETATM   30  C2  UNL     1      25.250  -0.341  53.084  1.00  0.00     0.002 C 
HETATM   31  C1  UNL     1      25.158  -0.717  54.564  1.00  0.00     0.011 C 
HETATM   32  C3  UNL     1      26.560  -0.863  52.544  1.00  0.00     0.011 C 
ENDBRANCH  29  30
ENDBRANCH  28  29
ENDBRANCH   1  28
TORSDOF 5
ENDMDL
MODEL 6
REMARK VINA RESULT:      -7.5      2.642      4.000
REMARK  5 active torsions:
REMARK  status: ('A' for Active; 'I' for Inactive)
REMARK    1  A    between atoms: C2_2  and  C4_4 
REMARK    2  A    between atoms: C4_4  and  O1_5 
REMARK    3  A    between atoms: O1_5  and  C5_6 
REMARK       I    between atoms: C5_6  and  N1_8 
REMARK    4  A    between atoms: C12_15  and  N2_16 
REMARK    5  A    between atoms: C17_22  and  N3_23 
ROOT
HETATM    1  C5  UNL     1      22.073   6.387  45.601  1.00  0.00     0.363 C 
HETATM    2  O2  UNL     1      21.612   6.029  44.490  1.00  0.00    -0.238 OA
HETATM    3  N1  UNL     1      22.286   5.219  46.384  1.00  0.00    -0.317 N 
HETATM    4  C6  UNL     1      21.929   3.979  45.720  1.00  0.00     0.155 C 
HETATM    5  C7  UNL     1      21.887   2.881  46.695  1.00  0.00    -0.008 C 
HETATM    6  C8  UNL     1      21.934   2.879  48.020  1.00  0.00     0.010 C 
HETATM    7  C9  UNL     1      22.050   4.208  48.623  1.00  0.00     0.118 A 
HETATM    8  C10 UNL     1      22.811   4.197  49.909  1.00  0.00     0.025 A 
HETATM    9  C11 UNL     1      24.032   3.785  50.120  1.00  0.00     0.018 A 
HETATM   10  C12 UNL     1      24.643   3.844  51.473  1.00  0.00     0.155 A 
HETATM   11  C18 UNL     1      23.666   4.420  52.465  1.00  0.00     0.121 A 
HETATM   12  N4  UNL     1      22.455   4.840  52.300  1.00  0.00    -0.241 NA
HETATM   13  C19 UNL     1      21.953   4.743  50.968  1.00  0.00     0.177 A 
HETATM   14  N5  UNL     1      20.815   5.060  50.447  1.00  0.00    -0.155 NA
HETATM   15  N6  UNL     1      20.793   4.776  49.072  1.00  0.00    -0.287 N 
HETATM   16  C20 UNL     1      19.598   5.061  48.302  1.00  0.00     0.175 C 
HETATM   17  C21 UNL     1      22.803   5.163  47.722  1.00  0.00     0.124 C 
HETATM   18  C22 UNL     1      22.890   6.541  48.281  1.00  0.00     0.036 C 
ENDROOT
BRANCH  10  19
HETATM   19  N2  UNL     1      24.966   2.514  51.995  1.00  0.00    -0.328 N 
HETATM   20  C13 UNL     1      23.888   1.766  52.310  1.00  0.00     0.094 A 
HETATM   21  C14 UNL     1      23.990   0.505  52.808  1.00  0.00     0.019 A 
HETATM   22  C15 UNL     1      25.238  -0.069  53.013  1.00  0.00     0.029 A 
HETATM   23  C16 UNL     1      26.314   0.714  52.684  1.00  0.00     0.079 A 
HETATM   24 CL1  UNL     1      27.920   0.065  52.912  1.00  0.00    -0.080 Cl
HETATM   25  C17 UNL     1      26.196   1.996  52.178  1.00  0.00     0.145 A 
BRANCH  25  26
HETATM   26  N3  UNL     1      27.171   2.757  51.858  1.00  0.00    -0.282 NA
HETATM   27  H19 UNL     1      28.000   2.802  52.509  1.00  0.00     0.188 HD
ENDBRANCH  25  26
ENDBRANCH  10  19
BRANCH   1  28
HETATM   28  O1  UNL     1      22.305   7.693  45.934  1.00  0.00    -0.304 OA
BRANCH  28  29
HETATM   29  C4  UNL     1      23.140   8.566  45.200  1.00  0.00     0.184 C 
BRANCH  29  30
HETATM   30  C2  UNL     1      24.517   7.941  45.137  1.00  0.00     0.002 C 
HETATM   31  C1  UNL     1      25.398   8.527  46.240  1.00  0.00     0.011 C 
HETATM   32  C3  UNL     1      25.142   8.276  43.803  1.00  0.00     0.011 C 
ENDBRANCH  29  30
ENDBRANCH  28  29
ENDBRANCH   1  28
TORSDOF 5
ENDMDL
MODEL 7
REMARK VINA RESULT:      -7.4      4.261      8.132
REMARK  5 active torsions:
REMARK  status: ('A' for Active; 'I' for Inactive)
REMARK    1  A    between atoms: C2_2  and  C4_4 
REMARK    2  A    between atoms: C4_4  and  O1_5 
REMARK    3  A    between atoms: O1_5  and  C5_6 
REMARK       I    between atoms: C5_6  and  N1_8 
REMARK    4  A    between atoms: C12_15  and  N2_16 
REMARK    5  A    between atoms: C17_22  and  N3_23 
ROOT
HETATM    1  C5  UNL     1      24.005   0.865  52.358  1.00  0.00     0.363 C 
HETATM    2  O2  UNL     1      25.088   0.492  52.870  1.00  0.00    -0.238 OA
HETATM    3  N1  UNL     1      24.294   1.896  51.423  1.00  0.00    -0.317 N 
HETATM    4  C6  UNL     1      25.703   2.227  51.314  1.00  0.00     0.155 C 
HETATM    5  C7  UNL     1      25.868   3.487  50.576  1.00  0.00    -0.008 C 
HETATM    6  C8  UNL     1      24.988   4.399  50.186  1.00  0.00     0.010 C 
HETATM    7  C9  UNL     1      23.602   4.100  50.555  1.00  0.00     0.118 A 
HETATM    8  C10 UNL     1      22.612   4.631  49.570  1.00  0.00     0.025 A 
HETATM    9  C11 UNL     1      22.528   4.376  48.293  1.00  0.00     0.018 A 
HETATM   10  C12 UNL     1      21.473   4.994  47.449  1.00  0.00     0.155 A 
HETATM   11  C18 UNL     1      20.597   5.895  48.283  1.00  0.00     0.121 A 
HETATM   12  N4  UNL     1      20.644   6.175  49.543  1.00  0.00    -0.241 NA
HETATM   13  C19 UNL     1      21.691   5.534  50.271  1.00  0.00     0.177 A 
HETATM   14  N5  UNL     1      22.031   5.579  51.516  1.00  0.00    -0.155 NA
HETATM   15  N6  UNL     1      23.146   4.763  51.763  1.00  0.00    -0.287 N 
HETATM   16  C20 UNL     1      23.685   4.675  53.106  1.00  0.00     0.175 C 
HETATM   17  C21 UNL     1      23.352   2.609  50.608  1.00  0.00     0.124 C 
HETATM   18  C22 UNL     1      21.966   2.269  51.037  1.00  0.00     0.036 C 
ENDROOT
BRANCH  10  19
HETATM   19  N2  UNL     1      22.031   5.867  46.414  1.00  0.00    -0.328 N 
HETATM   20  C13 UNL     1      22.995   6.702  46.854  1.00  0.00     0.094 A 
HETATM   21  C14 UNL     1      23.629   7.586  46.038  1.00  0.00     0.019 A 
HETATM   22  C15 UNL     1      23.298   7.659  44.691  1.00  0.00     0.029 A 
HETATM   23  C16 UNL     1      22.315   6.798  44.273  1.00  0.00     0.079 A 
HETATM   24 CL1  UNL     1      21.840   6.827  42.592  1.00  0.00    -0.080 Cl
HETATM   25  C17 UNL     1      21.678   5.904  45.115  1.00  0.00     0.145 A 
BRANCH  25  26
HETATM   26  N3  UNL     1      20.760   5.087  44.766  1.00  0.00    -0.282 NA
HETATM   27  H19 UNL     1      20.771   4.720  43.777  1.00  0.00     0.188 HD
ENDBRANCH  25  26
ENDBRANCH  10  19
BRANCH   1  28
HETATM   28  O1  UNL     1      22.791   0.329  52.690  1.00  0.00    -0.304 OA
BRANCH  28  29
HETATM   29  C4  UNL     1      22.571  -1.042  52.955  1.00  0.00     0.184 C 
BRANCH  29  30
HETATM   30  C2  UNL     1      21.873  -1.145  54.294  1.00  0.00     0.002 C 
HETATM   31  C1  UNL     1      21.065   0.127  54.552  1.00  0.00     0.011 C 
HETATM   32  C3  UNL     1      22.918  -1.271  55.377  1.00  0.00     0.011 C 
ENDBRANCH  29  30
ENDBRANCH  28  29
ENDBRANCH   1  28
TORSDOF 5
ENDMDL
MODEL 8
REMARK VINA RESULT:      -7.3      6.531     10.253
REMARK  5 active torsions:
REMARK  status: ('A' for Active; 'I' for Inactive)
REMARK    1  A    between atoms: C2_2  and  C4_4 
REMARK    2  A    between atoms: C4_4  and  O1_5 
REMARK    3  A    between atoms: O1_5  and  C5_6 
REMARK       I    between atoms: C5_6  and  N1_8 
REMARK    4  A    between atoms: C12_15  and  N2_16 
REMARK    5  A    between atoms: C17_22  and  N3_23 
ROOT
HETATM    1  C5  UNL     1      33.124   6.549  46.822  1.00  0.00     0.363 C 
HETATM    2  O2  UNL     1      33.891   6.741  45.848  1.00  0.00    -0.238 OA
HETATM    3  N1  UNL     1      31.822   6.978  46.446  1.00  0.00    -0.317 N 
HETATM    4  C6  UNL     1      31.730   7.500  45.094  1.00  0.00     0.155 C 
HETATM    5  C7  UNL     1      30.448   8.193  44.909  1.00  0.00    -0.008 C 
HETATM    6  C8  UNL     1      29.510   8.554  45.774  1.00  0.00     0.010 C 
HETATM    7  C9  UNL     1      29.801   8.200  47.165  1.00  0.00     0.118 A 
HETATM    8  C10 UNL     1      28.569   7.913  47.961  1.00  0.00     0.025 A 
HETATM    9  C11 UNL     1      27.647   7.020  47.725  1.00  0.00     0.018 A 
HETATM   10  C12 UNL     1      26.475   6.865  48.625  1.00  0.00     0.155 A 
HETATM   11  C18 UNL     1      26.552   7.853  49.761  1.00  0.00     0.121 A 
HETATM   12  N4  UNL     1      27.442   8.750  50.031  1.00  0.00    -0.241 NA
HETATM   13  C19 UNL     1      28.530   8.825  49.111  1.00  0.00     0.177 A 
HETATM   14  N5  UNL     1      29.575   9.582  49.067  1.00  0.00    -0.155 NA
HETATM   15  N6  UNL     1      30.372   9.277  47.952  1.00  0.00    -0.287 N 
HETATM   16  C20 UNL     1      31.596  10.019  47.723  1.00  0.00     0.175 C 
HETATM   17  C21 UNL     1      30.635   6.940  47.254  1.00  0.00     0.124 C 
HETATM   18  C22 UNL     1      30.998   6.583  48.654  1.00  0.00     0.036 C 
ENDROOT
BRANCH  10  19
HETATM   19  N2  UNL     1      25.212   7.168  47.949  1.00  0.00    -0.328 N 
HETATM   20  C13 UNL     1      25.224   8.318  47.242  1.00  0.00     0.094 A 
HETATM   21  C14 UNL     1      24.144   8.765  46.548  1.00  0.00     0.019 A 
HETATM   22  C15 UNL     1      22.963   8.034  46.543  1.00  0.00     0.029 A 
HETATM   23  C16 UNL     1      22.980   6.870  47.269  1.00  0.00     0.079 A 
HETATM   24 CL1  UNL     1      21.533   5.893  47.314  1.00  0.00    -0.080 Cl
HETATM   25  C17 UNL     1      24.087   6.429  47.971  1.00  0.00     0.145 A 
BRANCH  25  26
HETATM   26  N3  UNL     1      24.144   5.353  48.658  1.00  0.00    -0.282 NA
HETATM   27  H19 UNL     1      23.857   4.450  48.194  1.00  0.00     0.188 HD
ENDBRANCH  25  26
ENDBRANCH  10  19
BRANCH   1  28
HETATM   28  O1  UNL     1      33.537   6.017  48.013  1.00  0.00    -0.304 OA
BRANCH  28  29
HETATM   29  C4  UNL     1      34.346   4.864  48.132  1.00  0.00     0.184 C 
BRANCH  29  30
HETATM   30  C2  UNL     1      33.848   3.847  47.128  1.00  0.00     0.002 C 
HETATM   31  C1  UNL     1      33.207   2.670  47.863  1.00  0.00     0.011 C 
HETATM   32  C3  UNL     1      35.026   3.327  46.337  1.00  0.00     0.011 C 
ENDBRANCH  29  30
ENDBRANCH  28  29
ENDBRANCH   1  28
TORSDOF 5
ENDMDL
MODEL 9
REMARK VINA RESULT:      -7.2      5.890      9.375
REMARK  5 active torsions:
REMARK  status: ('A' for Active; 'I' for Inactive)
REMARK    1  A    between atoms: C2_2  and  C4_4 
REMARK    2  A    between atoms: C4_4  and  O1_5 
REMARK    3  A    between atoms: O1_5  and  C5_6 
REMARK       I    between atoms: C5_6  and  N1_8 
REMARK    4  A    between atoms: C12_15  and  N2_16 
REMARK    5  A    between atoms: C17_22  and  N3_23 
ROOT
HETATM    1  C5  UNL     1      32.253   8.218  46.885  1.00  0.00     0.363 C 
HETATM    2  O2  UNL     1      32.836   8.541  45.823  1.00  0.00    -0.238 OA
HETATM    3  N1  UNL     1      30.875   8.030  46.590  1.00  0.00    -0.317 N 
HETATM    4  C6  UNL     1      30.525   8.252  45.199  1.00  0.00     0.155 C 
HETATM    5  C7  UNL     1      29.065   8.341  45.056  1.00  0.00    -0.008 C 
HETATM    6  C8  UNL     1      28.097   8.432  45.958  1.00  0.00     0.010 C 
HETATM    7  C9  UNL     1      28.563   8.447  47.347  1.00  0.00     0.118 A 
HETATM    8  C10 UNL     1      27.588   7.825  48.292  1.00  0.00     0.025 A 
HETATM    9  C11 UNL     1      27.101   6.614  48.267  1.00  0.00     0.018 A 
HETATM   10  C12 UNL     1      26.130   6.151  49.293  1.00  0.00     0.155 A 
HETATM   11  C18 UNL     1      25.844   7.255  50.279  1.00  0.00     0.121 A 
HETATM   12  N4  UNL     1      26.302   8.462  50.341  1.00  0.00    -0.241 NA
HETATM   13  C19 UNL     1      27.227   8.815  49.314  1.00  0.00     0.177 A 
HETATM   14  N5  UNL     1      27.871   9.907  49.069  1.00  0.00    -0.155 NA
HETATM   15  N6  UNL     1      28.678   9.772  47.928  1.00  0.00    -0.287 N 
HETATM   16  C20 UNL     1      29.484  10.892  47.484  1.00  0.00     0.175 C 
HETATM   17  C21 UNL     1      29.841   7.653  47.511  1.00  0.00     0.124 C 
HETATM   18  C22 UNL     1      30.374   7.695  48.903  1.00  0.00     0.036 C 
ENDROOT
BRANCH  10  19
HETATM   19  N2  UNL     1      24.827   5.819  48.714  1.00  0.00    -0.328 N 
HETATM   20  C13 UNL     1      24.305   6.786  47.932  1.00  0.00     0.094 A 
HETATM   21  C14 UNL     1      23.103   6.658  47.309  1.00  0.00     0.019 A 
HETATM   22  C15 UNL     1      22.355   5.497  47.461  1.00  0.00     0.029 A 
HETATM   23  C16 UNL     1      22.911   4.532  48.261  1.00  0.00     0.079 A 
HETATM   24 CL1  UNL     1      22.032   3.042  48.503  1.00  0.00    -0.080 Cl
HETATM   25  C17 UNL     1      24.134   4.677  48.889  1.00  0.00     0.145 A 
BRANCH  25  26
HETATM   26  N3  UNL     1      24.686   3.803  49.641  1.00  0.00    -0.282 NA
HETATM   27  H19 UNL     1      24.067   3.232  50.276  1.00  0.00     0.188 HD
ENDBRANCH  25  26
ENDBRANCH  10  19
BRANCH   1  28
HETATM   28  O1  UNL     1      32.895   8.087  48.086  1.00  0.00    -0.304 OA
BRANCH  28  29
HETATM   29  C4  UNL     1      34.246   7.699  48.230  1.00  0.00     0.184 C 
BRANCH  29  30
HETATM   30  C2  UNL     1      34.275   6.199  48.426  1.00  0.00     0.002 C 
HETATM   31  C1  UNL     1      35.533   5.806  49.201  1.00  0.00     0.011 C 
HETATM   32  C3  UNL     1      34.324   5.532  47.072  1.00  0.00     0.011 C 
ENDBRANCH  29  30
ENDBRANCH  28  29
ENDBRANCH   1  28
TORSDOF 5
ENDMDL
