MODEL 1
REMARK VINA RESULT:      -7.8      0.000      0.000
REMARK  3 active torsions:
REMARK  status: ('A' for Active; 'I' for Inactive)
REMARK    1  A    between atoms: C2_3  and  N2_4 
REMARK    2  A    between atoms: N2_4  and  C3_5 
REMARK    3  A    between atoms: C3_5  and  C4_6 
ROOT
HETATM    1  C1  UNL     1      24.742   2.312  53.078  1.00  0.00     0.145 A 
HETATM    2  N1  UNL     1      24.733   2.596  51.804  1.00  0.00    -0.242 NA
HETATM    3  C2  UNL     1      25.944   2.751  51.077  1.00  0.00     0.138 A 
HETATM    4  C10 UNL     1      27.148   2.610  51.641  1.00  0.00     0.138 A 
HETATM    5  N3  UNL     1      27.160   2.285  53.030  1.00  0.00    -0.355 N 
HETATM    6  C11 UNL     1      28.523   2.093  53.515  1.00  0.00     0.134 C 
HETATM    7  C12 UNL     1      29.001   0.692  53.607  1.00  0.00     0.035 C 
HETATM    8  C13 UNL     1      28.693  -0.003  54.912  1.00  0.00     0.012 C 
HETATM    9  C14 UNL     1      27.428   0.335  54.537  1.00  0.00     0.047 C 
HETATM   10  C15 UNL     1      27.893  -0.301  53.226  1.00  0.00     0.074 C 
HETATM   11  O1  UNL     1      26.073   0.824  54.477  1.00  0.00    -0.326 OA
HETATM   12  C16 UNL     1      25.937   2.132  53.869  1.00  0.00     0.271 A 
ENDROOT
BRANCH   3  13
HETATM   13  N2  UNL     1      25.992   3.070  49.684  1.00  0.00    -0.369 N 
HETATM   14  H2  UNL     1      26.456   2.344  49.063  1.00  0.00     0.161 HD
BRANCH  13  15
HETATM   15  C3  UNL     1      25.374   4.360  49.435  1.00  0.00     0.160 C 
BRANCH  15  16
HETATM   16  C4  UNL     1      26.453   5.268  48.969  1.00  0.00    -0.041 A 
HETATM   17  C5  UNL     1      27.687   4.755  48.633  1.00  0.00     0.009 A 
HETATM   18  C6  UNL     1      28.688   5.617  48.198  1.00  0.00     0.001 A 
HETATM   19  C7  UNL     1      28.504   6.990  48.083  1.00  0.00     0.000 A 
HETATM   20  C8  UNL     1      27.249   7.505  48.425  1.00  0.00     0.001 A 
HETATM   21  C9  UNL     1      26.251   6.647  48.859  1.00  0.00     0.009 A 
ENDBRANCH  15  16
ENDBRANCH  13  15
ENDBRANCH   3  13
TORSDOF 3
ENDMDL
MODEL 2
REMARK VINA RESULT:      -7.6      3.483      6.439
REMARK  3 active torsions:
REMARK  status: ('A' for Active; 'I' for Inactive)
REMARK    1  A    between atoms: C2_3  and  N2_4 
REMARK    2  A    between atoms: N2_4  and  C3_5 
REMARK    3  A    between atoms: C3_5  and  C4_6 
ROOT
HETATM    1  C1  UNL     1      25.904   2.347  52.174  1.00  0.00     0.145 A 
HETATM    2  N1  UNL     1      24.766   2.021  52.723  1.00  0.00    -0.242 NA
HETATM    3  C2  UNL     1      24.561   0.731  53.281  1.00  0.00     0.138 A 
HETATM    4  C10 UNL     1      25.509  -0.212  53.286  1.00  0.00     0.138 A 
HETATM    5  N3  UNL     1      26.759   0.146  52.701  1.00  0.00    -0.355 N 
HETATM    6  C11 UNL     1      27.729  -0.937  52.825  1.00  0.00     0.134 C 
HETATM    7  C12 UNL     1      28.696  -0.834  53.945  1.00  0.00     0.035 C 
HETATM    8  C13 UNL     1      29.955  -0.061  53.633  1.00  0.00     0.012 C 
HETATM    9  C14 UNL     1      29.030   0.898  53.348  1.00  0.00     0.047 C 
HETATM   10  C15 UNL     1      28.509   0.478  54.724  1.00  0.00     0.074 C 
HETATM   11  O1  UNL     1      28.240   1.940  52.739  1.00  0.00    -0.326 OA
HETATM   12  C16 UNL     1      27.045   1.467  52.070  1.00  0.00     0.271 A 
ENDROOT
BRANCH   3  13
HETATM   13  N2  UNL     1      23.333   0.320  53.885  1.00  0.00    -0.369 N 
HETATM   14  H2  UNL     1      23.001   0.914  54.701  1.00  0.00     0.161 HD
BRANCH  13  15
HETATM   15  C3  UNL     1      22.807  -0.859  53.221  1.00  0.00     0.160 C 
BRANCH  15  16
HETATM   16  C4  UNL     1      21.431  -0.520  52.774  1.00  0.00    -0.041 A 
HETATM   17  C5  UNL     1      20.349  -0.869  53.551  1.00  0.00     0.009 A 
HETATM   18  C6  UNL     1      19.067  -0.544  53.121  1.00  0.00     0.001 A 
HETATM   19  C7  UNL     1      18.819   0.125  51.927  1.00  0.00     0.000 A 
HETATM   20  C8  UNL     1      19.922   0.476  51.143  1.00  0.00     0.001 A 
HETATM   21  C9  UNL     1      21.200   0.153  51.571  1.00  0.00     0.009 A 
ENDBRANCH  15  16
ENDBRANCH  13  15
ENDBRANCH   3  13
TORSDOF 3
ENDMDL
MODEL 3
REMARK VINA RESULT:      -7.5      2.751      4.204
REMARK  3 active torsions:
REMARK  status: ('A' for Active; 'I' for Inactive)
REMARK    1  A    between atoms: C2_3  and  N2_4 
REMARK    2  A    between atoms: N2_4  and  C3_5 
REMARK    3  A    between atoms: C3_5  and  C4_6 
ROOT
HETATM    1  C1  UNL     1      25.454   0.486  53.852  1.00  0.00     0.145 A 
HETATM    2  N1  UNL     1      25.505   1.737  53.484  1.00  0.00    -0.242 NA
HETATM    3  C2  UNL     1      24.456   2.324  52.728  1.00  0.00     0.138 A 
HETATM    4  C10 UNL     1      23.364   1.645  52.359  1.00  0.00     0.138 A 
HETATM    5  N3  UNL     1      23.299   0.282  52.773  1.00  0.00    -0.355 N 
HETATM    6  C11 UNL     1      22.038  -0.332  52.369  1.00  0.00     0.134 C 
HETATM    7  C12 UNL     1      20.975  -0.399  53.402  1.00  0.00     0.035 C 
HETATM    8  C13 UNL     1      21.017  -1.627  54.282  1.00  0.00     0.012 C 
HETATM    9  C14 UNL     1      22.266  -1.140  54.521  1.00  0.00     0.047 C 
HETATM   10  C15 UNL     1      21.472   0.147  54.750  1.00  0.00     0.074 C 
HETATM   11  O1  UNL     1      23.687  -0.965  54.698  1.00  0.00    -0.326 OA
HETATM   12  C16 UNL     1      24.368  -0.416  53.543  1.00  0.00     0.271 A 
ENDROOT
BRANCH   3  13
HETATM   13  N2  UNL     1      24.465   3.685  52.291  1.00  0.00    -0.369 N 
HETATM   14  H2  UNL     1      24.801   4.394  53.008  1.00  0.00     0.161 HD
BRANCH  13  15
HETATM   15  C3  UNL     1      23.995   3.785  50.922  1.00  0.00     0.160 C 
BRANCH  15  16
HETATM   16  C4  UNL     1      25.092   4.408  50.137  1.00  0.00    -0.041 A 
HETATM   17  C5  UNL     1      26.181   3.654  49.757  1.00  0.00     0.009 A 
HETATM   18  C6  UNL     1      27.200   4.250  49.023  1.00  0.00     0.001 A 
HETATM   19  C7  UNL     1      27.175   5.588  48.646  1.00  0.00     0.000 A 
HETATM   20  C8  UNL     1      26.067   6.348  49.034  1.00  0.00     0.001 A 
HETATM   21  C9  UNL     1      25.051   5.755  49.767  1.00  0.00     0.009 A 
ENDBRANCH  15  16
ENDBRANCH  13  15
ENDBRANCH   3  13
TORSDOF 3
ENDMDL
MODEL 4
REMARK VINA RESULT:      -7.4      1.707      2.393
REMARK  3 active torsions:
REMARK  status: ('A' for Active; 'I' for Inactive)
REMARK    1  A    between atoms: C2_3  and  N2_4 
REMARK    2  A    between atoms: N2_4  and  C3_5 
REMARK    3  A    between atoms: C3_5  and  C4_6 
ROOT
HETATM    1  C1  UNL     1      23.085   0.972  53.087  1.00  0.00     0.145 A 
HETATM    2  N1  UNL     1      23.054   2.187  52.611  1.00  0.00    -0.242 NA
HETATM    3  C2  UNL     1      24.212   3.010  52.622  1.00  0.00     0.138 A 
HETATM    4  C10 UNL     1      25.388   2.594  53.105  1.00  0.00     0.138 A 
HETATM    5  N3  UNL     1      25.427   1.262  53.612  1.00  0.00    -0.355 N 
HETATM    6  C11 UNL     1      26.773   0.903  54.048  1.00  0.00     0.134 C 
HETATM    7  C12 UNL     1      27.592   0.121  53.091  1.00  0.00     0.035 C 
HETATM    8  C13 UNL     1      27.421  -1.377  53.180  1.00  0.00     0.012 C 
HETATM    9  C14 UNL     1      26.128  -1.020  52.944  1.00  0.00     0.047 C 
HETATM   10  C15 UNL     1      26.793  -0.221  51.823  1.00  0.00     0.074 C 
HETATM   11  O1  UNL     1      24.695  -0.854  52.982  1.00  0.00    -0.326 OA
HETATM   12  C16 UNL     1      24.252   0.346  53.662  1.00  0.00     0.271 A 
ENDROOT
BRANCH   3  13
HETATM   13  N2  UNL     1      24.233   4.349  52.122  1.00  0.00    -0.369 N 
HETATM   14  H2  UNL     1      24.496   5.098  52.828  1.00  0.00     0.161 HD
BRANCH  13  15
HETATM   15  C3  UNL     1      23.874   4.374  50.716  1.00  0.00     0.160 C 
BRANCH  15  16
HETATM   16  C4  UNL     1      25.083   4.817  49.974  1.00  0.00    -0.041 A 
HETATM   17  C5  UNL     1      25.215   6.136  49.597  1.00  0.00     0.009 A 
HETATM   18  C6  UNL     1      26.351   6.536  48.904  1.00  0.00     0.001 A 
HETATM   19  C7  UNL     1      27.377   5.661  48.567  1.00  0.00     0.000 A 
HETATM   20  C8  UNL     1      27.238   4.324  48.952  1.00  0.00     0.001 A 
HETATM   21  C9  UNL     1      26.105   3.923  49.643  1.00  0.00     0.009 A 
ENDBRANCH  15  16
ENDBRANCH  13  15
ENDBRANCH   3  13
TORSDOF 3
ENDMDL
MODEL 5
REMARK VINA RESULT:      -7.4      1.513      1.884
REMARK  3 active torsions:
REMARK  status: ('A' for Active; 'I' for Inactive)
REMARK    1  A    between atoms: C2_3  and  N2_4 
REMARK    2  A    between atoms: N2_4  and  C3_5 
REMARK    3  A    between atoms: C3_5  and  C4_6 
ROOT
HETATM    1  C1  UNL     1      22.819   1.502  51.581  1.00  0.00     0.145 A 
HETATM    2  N1  UNL     1      23.252   2.162  50.542  1.00  0.00    -0.242 NA
HETATM    3  C2  UNL     1      24.499   2.842  50.570  1.00  0.00     0.138 A 
HETATM    4  C10 UNL     1      25.297   2.842  51.643  1.00  0.00     0.138 A 
HETATM    5  N3  UNL     1      24.833   2.109  52.775  1.00  0.00    -0.355 N 
HETATM    6  C11 UNL     1      25.816   2.128  53.854  1.00  0.00     0.134 C 
HETATM    7  C12 UNL     1      26.697   0.940  53.966  1.00  0.00     0.035 C 
HETATM    8  C13 UNL     1      26.147  -0.187  54.808  1.00  0.00     0.012 C 
HETATM    9  C14 UNL     1      25.142  -0.081  53.894  1.00  0.00     0.047 C 
HETATM   10  C15 UNL     1      26.327  -0.130  52.927  1.00  0.00     0.074 C 
HETATM   11  O1  UNL     1      23.871   0.039  53.223  1.00  0.00    -0.326 OA
HETATM   12  C16 UNL     1      23.527   1.392  52.835  1.00  0.00     0.271 A 
ENDROOT
BRANCH   3  13
HETATM   13  N2  UNL     1      25.016   3.587  49.465  1.00  0.00    -0.369 N 
HETATM   14  H2  UNL     1      24.288   4.000  48.809  1.00  0.00     0.161 HD
BRANCH  13  15
HETATM   15  C3  UNL     1      26.467   3.604  49.495  1.00  0.00     0.160 C 
BRANCH  15  16
HETATM   16  C4  UNL     1      26.892   4.893  48.891  1.00  0.00    -0.041 A 
HETATM   17  C5  UNL     1      28.207   5.082  48.526  1.00  0.00     0.009 A 
HETATM   18  C6  UNL     1      28.590   6.293  47.961  1.00  0.00     0.001 A 
HETATM   19  C7  UNL     1      27.700   7.338  47.741  1.00  0.00     0.000 A 
HETATM   20  C8  UNL     1      26.367   7.140  48.113  1.00  0.00     0.001 A 
HETATM   21  C9  UNL     1      25.984   5.934  48.677  1.00  0.00     0.009 A 
ENDBRANCH  15  16
ENDBRANCH  13  15
ENDBRANCH   3  13
TORSDOF 3
ENDMDL
MODEL 6
REMARK VINA RESULT:      -7.4      5.185      7.901
REMARK  3 active torsions:
REMARK  status: ('A' for Active; 'I' for Inactive)
REMARK    1  A    between atoms: C2_3  and  N2_4 
REMARK    2  A    between atoms: N2_4  and  C3_5 
REMARK    3  A    between atoms: C3_5  and  C4_6 
ROOT
HETATM    1  C1  UNL     1      33.255   7.321  48.324  1.00  0.00     0.145 A 
HETATM    2  N1  UNL     1      32.077   7.247  48.880  1.00  0.00    -0.242 NA
HETATM    3  C2  UNL     1      31.117   6.296  48.444  1.00  0.00     0.138 A 
HETATM    4  C10 UNL     1      31.359   5.425  47.458  1.00  0.00     0.138 A 
HETATM    5  N3  UNL     1      32.651   5.493  46.859  1.00  0.00    -0.355 N 
HETATM    6  C11 UNL     1      32.819   4.455  45.847  1.00  0.00     0.134 C 
HETATM    7  C12 UNL     1      33.536   3.228  46.271  1.00  0.00     0.035 C 
HETATM    8  C13 UNL     1      35.038   3.282  46.122  1.00  0.00     0.012 C 
HETATM    9  C14 UNL     1      34.856   4.363  46.931  1.00  0.00     0.047 C 
HETATM   10  C15 UNL     1      34.032   3.345  47.721  1.00  0.00     0.074 C 
HETATM   11  O1  UNL     1      34.869   5.671  47.539  1.00  0.00    -0.326 OA
HETATM   12  C16 UNL     1      33.704   6.479  47.240  1.00  0.00     0.271 A 
ENDROOT
BRANCH   3  13
HETATM   13  N2  UNL     1      29.810   6.178  49.011  1.00  0.00    -0.369 N 
HETATM   14  H2  UNL     1      29.776   5.866  50.026  1.00  0.00     0.161 HD
BRANCH  13  15
HETATM   15  C3  UNL     1      28.796   6.524  48.031  1.00  0.00     0.160 C 
BRANCH  15  16
HETATM   16  C4  UNL     1      27.536   5.872  48.472  1.00  0.00    -0.041 A 
HETATM   17  C5  UNL     1      26.352   6.578  48.454  1.00  0.00     0.009 A 
HETATM   18  C6  UNL     1      25.181   5.955  48.869  1.00  0.00     0.001 A 
HETATM   19  C7  UNL     1      25.142   4.636  49.308  1.00  0.00     0.000 A 
HETATM   20  C8  UNL     1      26.346   3.925  49.324  1.00  0.00     0.001 A 
HETATM   21  C9  UNL     1      27.515   4.545  48.911  1.00  0.00     0.009 A 
ENDBRANCH  15  16
ENDBRANCH  13  15
ENDBRANCH   3  13
TORSDOF 3
ENDMDL
MODEL 7
REMARK VINA RESULT:      -7.0      4.850      7.108
REMARK  3 active torsions:
REMARK  status: ('A' for Active; 'I' for Inactive)
REMARK    1  A    between atoms: C2_3  and  N2_4 
REMARK    2  A    between atoms: N2_4  and  C3_5 
REMARK    3  A    between atoms: C3_5  and  C4_6 
ROOT
HETATM    1  C1  UNL     1      21.350  -0.529  54.553  1.00  0.00     0.145 A 
HETATM    2  N1  UNL     1      22.619  -0.716  54.793  1.00  0.00    -0.242 NA
HETATM    3  C2  UNL     1      23.601  -0.467  53.796  1.00  0.00     0.138 A 
HETATM    4  C10 UNL     1      23.290  -0.024  52.573  1.00  0.00     0.138 A 
HETATM    5  N3  UNL     1      21.906   0.195  52.313  1.00  0.00    -0.355 N 
HETATM    6  C11 UNL     1      21.700   0.737  50.974  1.00  0.00     0.134 C 
HETATM    7  C12 UNL     1      21.526   2.207  50.875  1.00  0.00     0.035 C 
HETATM    8  C13 UNL     1      20.105   2.695  51.032  1.00  0.00     0.012 C 
HETATM    9  C14 UNL     1      20.245   2.033  52.214  1.00  0.00     0.047 C 
HETATM   10  C15 UNL     1      21.528   2.864  52.264  1.00  0.00     0.074 C 
HETATM   11  O1  UNL     1      20.080   1.180  53.366  1.00  0.00    -0.326 OA
HETATM   12  C16 UNL     1      20.814  -0.067  53.294  1.00  0.00     0.271 A 
ENDROOT
BRANCH   3  13
HETATM   13  N2  UNL     1      25.001  -0.664  54.002  1.00  0.00    -0.369 N 
HETATM   14  H2  UNL     1      25.261  -1.458  54.658  1.00  0.00     0.161 HD
BRANCH  13  15
HETATM   15  C3  UNL     1      25.770   0.304  53.241  1.00  0.00     0.160 C 
BRANCH  15  16
HETATM   16  C4  UNL     1      27.192  -0.117  53.326  1.00  0.00    -0.041 A 
HETATM   17  C5  UNL     1      27.547  -1.412  53.017  1.00  0.00     0.009 A 
HETATM   18  C6  UNL     1      28.881  -1.792  53.101  1.00  0.00     0.001 A 
HETATM   19  C7  UNL     1      29.892  -0.917  53.486  1.00  0.00     0.000 A 
HETATM   20  C8  UNL     1      29.526   0.395  53.798  1.00  0.00     0.001 A 
HETATM   21  C9  UNL     1      28.195   0.775  53.715  1.00  0.00     0.009 A 
ENDBRANCH  15  16
ENDBRANCH  13  15
ENDBRANCH   3  13
TORSDOF 3
ENDMDL
MODEL 8
REMARK VINA RESULT:      -6.9      3.271      6.302
REMARK  3 active torsions:
REMARK  status: ('A' for Active; 'I' for Inactive)
REMARK    1  A    between atoms: C2_3  and  N2_4 
REMARK    2  A    between atoms: N2_4  and  C3_5 
REMARK    3  A    between atoms: C3_5  and  C4_6 
ROOT
HETATM    1  C1  UNL     1      22.592   2.326  49.529  1.00  0.00     0.145 A 
HETATM    2  N1  UNL     1      23.755   2.715  49.972  1.00  0.00    -0.242 NA
HETATM    3  C2  UNL     1      23.967   2.970  51.354  1.00  0.00     0.138 A 
HETATM    4  C10 UNL     1      23.006   2.821  52.271  1.00  0.00     0.138 A 
HETATM    5  N3  UNL     1      21.737   2.381  51.791  1.00  0.00    -0.355 N 
HETATM    6  C11 UNL     1      20.794   2.194  52.888  1.00  0.00     0.134 C 
HETATM    7  C12 UNL     1      20.623   0.806  53.383  1.00  0.00     0.035 C 
HETATM    8  C13 UNL     1      19.576  -0.007  52.659  1.00  0.00     0.012 C 
HETATM    9  C14 UNL     1      20.372   0.321  51.603  1.00  0.00     0.047 C 
HETATM   10  C15 UNL     1      21.454  -0.188  52.556  1.00  0.00     0.074 C 
HETATM   11  O1  UNL     1      20.899   0.769  50.338  1.00  0.00    -0.326 OA
HETATM   12  C16 UNL     1      21.426   2.119  50.356  1.00  0.00     0.271 A 
ENDROOT
BRANCH   3  13
HETATM   13  N2  UNL     1      25.217   3.407  51.892  1.00  0.00    -0.369 N 
HETATM   14  H2  UNL     1      25.154   4.063  52.726  1.00  0.00     0.161 HD
BRANCH  13  15
HETATM   15  C3  UNL     1      26.322   2.834  51.146  1.00  0.00     0.160 C 
BRANCH  15  16
HETATM   16  C4  UNL     1      26.918   1.779  52.006  1.00  0.00    -0.041 A 
HETATM   17  C5  UNL     1      27.803   2.123  53.005  1.00  0.00     0.009 A 
HETATM   18  C6  UNL     1      28.352   1.125  53.803  1.00  0.00     0.001 A 
HETATM   19  C7  UNL     1      28.048  -0.222  53.642  1.00  0.00     0.000 A 
HETATM   20  C8  UNL     1      27.149  -0.565  52.628  1.00  0.00     0.001 A 
HETATM   21  C9  UNL     1      26.601   0.429  51.831  1.00  0.00     0.009 A 
ENDBRANCH  15  16
ENDBRANCH  13  15
ENDBRANCH   3  13
TORSDOF 3
ENDMDL
MODEL 9
REMARK VINA RESULT:      -6.9      2.477      4.358
REMARK  3 active torsions:
REMARK  status: ('A' for Active; 'I' for Inactive)
REMARK    1  A    between atoms: C2_3  and  N2_4 
REMARK    2  A    between atoms: N2_4  and  C3_5 
REMARK    3  A    between atoms: C3_5  and  C4_6 
ROOT
HETATM    1  C1  UNL     1      24.698   0.990  53.294  1.00  0.00     0.145 A 
HETATM    2  N1  UNL     1      25.596   1.831  52.859  1.00  0.00    -0.242 NA
HETATM    3  C2  UNL     1      25.411   2.539  51.641  1.00  0.00     0.138 A 
HETATM    4  C10 UNL     1      24.320   2.395  50.882  1.00  0.00     0.138 A 
HETATM    5  N3  UNL     1      23.331   1.488  51.363  1.00  0.00    -0.355 N 
HETATM    6  C11 UNL     1      22.164   1.467  50.487  1.00  0.00     0.134 C 
HETATM    7  C12 UNL     1      21.008   2.299  50.904  1.00  0.00     0.035 C 
HETATM    8  C13 UNL     1      20.030   1.614  51.829  1.00  0.00     0.012 C 
HETATM    9  C14 UNL     1      21.165   1.481  52.569  1.00  0.00     0.047 C 
HETATM   10  C15 UNL     1      21.269   2.975  52.259  1.00  0.00     0.074 C 
HETATM   11  O1  UNL     1      22.262   0.994  53.369  1.00  0.00    -0.326 OA
HETATM   12  C16 UNL     1      23.460   0.688  52.615  1.00  0.00     0.271 A 
ENDROOT
BRANCH   3  13
HETATM   13  N2  UNL     1      26.365   3.463  51.114  1.00  0.00    -0.369 N 
HETATM   14  H2  UNL     1      26.788   4.138  51.818  1.00  0.00     0.161 HD
BRANCH  13  15
HETATM   15  C3  UNL     1      26.538   3.260  49.687  1.00  0.00     0.160 C 
BRANCH  15  16
HETATM   16  C4  UNL     1      26.760   4.602  49.088  1.00  0.00    -0.041 A 
HETATM   17  C5  UNL     1      28.006   4.944  48.608  1.00  0.00     0.009 A 
HETATM   18  C6  UNL     1      28.199   6.202  48.050  1.00  0.00     0.001 A 
HETATM   19  C7  UNL     1      27.184   7.147  47.950  1.00  0.00     0.000 A 
HETATM   20  C8  UNL     1      25.922   6.794  48.438  1.00  0.00     0.001 A 
HETATM   21  C9  UNL     1      25.729   5.540  48.996  1.00  0.00     0.009 A 
ENDBRANCH  15  16
ENDBRANCH  13  15
ENDBRANCH   3  13
TORSDOF 3
ENDMDL
