MODEL 1
REMARK VINA RESULT:      -8.1      0.000      0.000
REMARK  3 active torsions:
REMARK  status: ('A' for Active; 'I' for Inactive)
REMARK    1  A    between atoms: C4_5  and  C5_6 
REMARK    2  A    between atoms: C6_7  and  O1_8 
REMARK    3  A    between atoms: O1_8  and  C7_9 
ROOT
HETATM    1  C1  UNL     1      30.656   5.383  47.822  1.00  0.00     0.066 C 
HETATM    2  C2  UNL     1      29.220   5.586  48.107  1.00  0.00     0.017 A 
HETATM    3  N1  UNL     1      28.410   4.727  48.630  1.00  0.00    -0.257 NA
HETATM    4  C3  UNL     1      27.101   5.231  48.771  1.00  0.00     0.064 A 
HETATM    5  C4  UNL     1      26.078   4.592  49.266  1.00  0.00     0.034 C 
HETATM    6  C13 UNL     1      27.172   6.588  48.248  1.00  0.00    -0.009 A 
HETATM    7  C14 UNL     1      26.189   7.465  48.169  1.00  0.00     0.094 C 
HETATM    8 CL1  UNL     1      24.523   7.379  48.619  1.00  0.00    -0.096 Cl
HETATM    9  C15 UNL     1      28.549   6.897  47.787  1.00  0.00     0.065 A 
HETATM   10  C16 UNL     1      29.181   8.000  48.604  1.00  0.00     0.021 C 
ENDROOT
BRANCH   5  11
HETATM   11  C5  UNL     1      26.306   3.221  49.720  1.00  0.00     0.027 C 
HETATM   12  C6  UNL     1      25.902   2.839  50.924  1.00  0.00     0.142 C 
BRANCH  12  13
HETATM   13  O1  UNL     1      26.080   1.569  51.420  1.00  0.00    -0.323 OA
BRANCH  13  14
HETATM   14  C7  UNL     1      27.085   1.284  52.324  1.00  0.00     0.077 A 
HETATM   15  C8  UNL     1      27.235  -0.090  52.513  1.00  0.00     0.037 A 
HETATM   16  C9  UNL     1      28.198  -0.573  53.387  1.00  0.00     0.006 A 
HETATM   17  C10 UNL     1      29.011   0.303  54.074  1.00  0.00     0.042 A 
HETATM   18  C11 UNL     1      28.853   1.658  53.879  1.00  0.00     0.119 A 
HETATM   19  F1  UNL     1      29.618   2.596  54.520  1.00  0.00    -0.206 F 
HETATM   20  C12 UNL     1      27.893   2.154  53.007  1.00  0.00     0.079 A 
ENDBRANCH  13  14
ENDBRANCH  12  13
ENDBRANCH   5  11
TORSDOF 3
ENDMDL
MODEL 2
REMARK VINA RESULT:      -7.7      3.203      4.496
REMARK  3 active torsions:
REMARK  status: ('A' for Active; 'I' for Inactive)
REMARK    1  A    between atoms: C4_5  and  C5_6 
REMARK    2  A    between atoms: C6_7  and  O1_8 
REMARK    3  A    between atoms: O1_8  and  C7_9 
ROOT
HETATM    1  C1  UNL     1      26.557   3.938  49.514  1.00  0.00     0.066 C 
HETATM    2  C2  UNL     1      25.348   3.217  49.965  1.00  0.00     0.017 A 
HETATM    3  N1  UNL     1      25.243   2.472  51.013  1.00  0.00    -0.257 NA
HETATM    4  C3  UNL     1      23.951   1.926  51.165  1.00  0.00     0.064 A 
HETATM    5  C4  UNL     1      23.554   1.139  52.125  1.00  0.00     0.034 C 
HETATM    6  C13 UNL     1      23.201   2.440  50.027  1.00  0.00    -0.009 A 
HETATM    7  C14 UNL     1      21.936   2.205  49.734  1.00  0.00     0.094 C 
HETATM    8 CL1  UNL     1      20.723   1.257  50.520  1.00  0.00    -0.096 Cl
HETATM    9  C15 UNL     1      24.062   3.307  49.184  1.00  0.00     0.065 A 
HETATM   10  C16 UNL     1      23.577   4.738  49.170  1.00  0.00     0.021 C 
ENDROOT
BRANCH   5  11
HETATM   11  C5  UNL     1      24.538   0.786  53.146  1.00  0.00     0.027 C 
HETATM   12  C6  UNL     1      25.091  -0.420  53.155  1.00  0.00     0.142 C 
BRANCH  12  13
HETATM   13  O1  UNL     1      26.023  -0.825  54.081  1.00  0.00    -0.323 OA
BRANCH  13  14
HETATM   14  C7  UNL     1      27.341  -0.417  54.000  1.00  0.00     0.077 A 
HETATM   15  C8  UNL     1      28.139  -1.376  53.376  1.00  0.00     0.037 A 
HETATM   16  C9  UNL     1      29.496  -1.147  53.202  1.00  0.00     0.006 A 
HETATM   17  C10 UNL     1      30.062   0.029  53.645  1.00  0.00     0.042 A 
HETATM   18  C11 UNL     1      29.262   0.969  54.261  1.00  0.00     0.119 A 
HETATM   19  F1  UNL     1      29.743   2.162  54.730  1.00  0.00    -0.206 F 
HETATM   20  C12 UNL     1      27.904   0.751  54.441  1.00  0.00     0.079 A 
ENDBRANCH  13  14
ENDBRANCH  12  13
ENDBRANCH   5  11
TORSDOF 3
ENDMDL
MODEL 3
REMARK VINA RESULT:      -7.7      4.502      6.930
REMARK  3 active torsions:
REMARK  status: ('A' for Active; 'I' for Inactive)
REMARK    1  A    between atoms: C4_5  and  C5_6 
REMARK    2  A    between atoms: C6_7  and  O1_8 
REMARK    3  A    between atoms: O1_8  and  C7_9 
ROOT
HETATM    1  C1  UNL     1      22.271  -1.424  54.627  1.00  0.00     0.066 C 
HETATM    2  C2  UNL     1      22.041  -0.212  53.812  1.00  0.00     0.017 A 
HETATM    3  N1  UNL     1      22.894   0.365  53.034  1.00  0.00    -0.257 NA
HETATM    4  C3  UNL     1      22.363   1.505  52.395  1.00  0.00     0.064 A 
HETATM    5  C4  UNL     1      22.991   2.282  51.558  1.00  0.00     0.034 C 
HETATM    6  C13 UNL     1      20.994   1.593  52.883  1.00  0.00    -0.009 A 
HETATM    7  C14 UNL     1      20.092   2.503  52.566  1.00  0.00     0.094 C 
HETATM    8 CL1  UNL     1      20.150   3.874  51.515  1.00  0.00    -0.096 Cl
HETATM    9  C15 UNL     1      20.705   0.486  53.829  1.00  0.00     0.065 A 
HETATM   10  C16 UNL     1      19.642  -0.445  53.297  1.00  0.00     0.021 C 
ENDROOT
BRANCH   5  11
HETATM   11  C5  UNL     1      24.379   1.944  51.248  1.00  0.00     0.027 C 
HETATM   12  C6  UNL     1      25.374   2.558  51.875  1.00  0.00     0.142 C 
BRANCH  12  13
HETATM   13  O1  UNL     1      26.702   2.294  51.639  1.00  0.00    -0.323 OA
BRANCH  13  14
HETATM   14  C7  UNL     1      27.514   1.756  52.619  1.00  0.00     0.077 A 
HETATM   15  C8  UNL     1      27.327   0.380  52.745  1.00  0.00     0.037 A 
HETATM   16  C9  UNL     1      28.056  -0.340  53.681  1.00  0.00     0.006 A 
HETATM   17  C10 UNL     1      28.968   0.302  54.490  1.00  0.00     0.042 A 
HETATM   18  C11 UNL     1      29.144   1.663  54.355  1.00  0.00     0.119 A 
HETATM   19  F1  UNL     1      30.029   2.378  55.119  1.00  0.00    -0.206 F 
HETATM   20  C12 UNL     1      28.421   2.394  53.423  1.00  0.00     0.079 A 
ENDBRANCH  13  14
ENDBRANCH  12  13
ENDBRANCH   5  11
TORSDOF 3
ENDMDL
MODEL 4
REMARK VINA RESULT:      -7.5      2.375      3.768
REMARK  3 active torsions:
REMARK  status: ('A' for Active; 'I' for Inactive)
REMARK    1  A    between atoms: C4_5  and  C5_6 
REMARK    2  A    between atoms: C6_7  and  O1_8 
REMARK    3  A    between atoms: O1_8  and  C7_9 
ROOT
HETATM    1  C1  UNL     1      22.017   5.057  50.390  1.00  0.00     0.066 C 
HETATM    2  C2  UNL     1      23.456   4.934  50.073  1.00  0.00     0.017 A 
HETATM    3  N1  UNL     1      24.239   3.969  50.417  1.00  0.00    -0.257 NA
HETATM    4  C3  UNL     1      25.560   4.150  49.957  1.00  0.00     0.064 A 
HETATM    5  C4  UNL     1      26.563   3.340  50.153  1.00  0.00     0.034 C 
HETATM    6  C13 UNL     1      25.526   5.415  49.236  1.00  0.00    -0.009 A 
HETATM    7  C14 UNL     1      26.531   6.010  48.622  1.00  0.00     0.094 C 
HETATM    8 CL1  UNL     1      28.191   5.571  48.427  1.00  0.00    -0.096 Cl
HETATM    9  C15 UNL     1      24.161   5.997  49.269  1.00  0.00     0.065 A 
HETATM   10  C16 UNL     1      23.550   6.075  47.889  1.00  0.00     0.021 C 
ENDROOT
BRANCH   5  11
HETATM   11  C5  UNL     1      26.298   2.127  50.923  1.00  0.00     0.027 C 
HETATM   12  C6  UNL     1      26.528   2.099  52.229  1.00  0.00     0.142 C 
BRANCH  12  13
HETATM   13  O1  UNL     1      26.303   0.996  53.019  1.00  0.00    -0.323 OA
BRANCH  13  14
HETATM   14  C7  UNL     1      27.209  -0.046  53.074  1.00  0.00     0.077 A 
HETATM   15  C8  UNL     1      26.664  -1.230  52.578  1.00  0.00     0.037 A 
HETATM   16  C9  UNL     1      27.424  -2.390  52.551  1.00  0.00     0.006 A 
HETATM   17  C10 UNL     1      28.721  -2.378  53.015  1.00  0.00     0.042 A 
HETATM   18  C11 UNL     1      29.249  -1.201  53.502  1.00  0.00     0.119 A 
HETATM   19  F1  UNL     1      30.529  -1.102  53.982  1.00  0.00    -0.206 F 
HETATM   20  C12 UNL     1      28.499  -0.034  53.535  1.00  0.00     0.079 A 
ENDBRANCH  13  14
ENDBRANCH  12  13
ENDBRANCH   5  11
TORSDOF 3
ENDMDL
MODEL 5
REMARK VINA RESULT:      -7.4      2.144      2.448
REMARK  3 active torsions:
REMARK  status: ('A' for Active; 'I' for Inactive)
REMARK    1  A    between atoms: C4_5  and  C5_6 
REMARK    2  A    between atoms: C6_7  and  O1_8 
REMARK    3  A    between atoms: O1_8  and  C7_9 
ROOT
HETATM    1  C1  UNL     1      30.304   5.936  47.822  1.00  0.00     0.066 C 
HETATM    2  C2  UNL     1      28.866   5.861  48.156  1.00  0.00     0.017 A 
HETATM    3  N1  UNL     1      28.255   4.867  48.707  1.00  0.00    -0.257 NA
HETATM    4  C3  UNL     1      26.878   5.110  48.893  1.00  0.00     0.064 A 
HETATM    5  C4  UNL     1      26.015   4.289  49.423  1.00  0.00     0.034 C 
HETATM    6  C13 UNL     1      26.669   6.451  48.365  1.00  0.00    -0.009 A 
HETATM    7  C14 UNL     1      25.534   7.121  48.318  1.00  0.00     0.094 C 
HETATM    8 CL1  UNL     1      23.931   6.720  48.825  1.00  0.00    -0.096 Cl
HETATM    9  C15 UNL     1      27.945   7.016  47.858  1.00  0.00     0.065 A 
HETATM   10  C16 UNL     1      28.379   8.226  48.651  1.00  0.00     0.021 C 
ENDROOT
BRANCH   5  11
HETATM   11  C5  UNL     1      26.518   2.993  49.871  1.00  0.00     0.027 C 
HETATM   12  C6  UNL     1      26.536   2.692  51.163  1.00  0.00     0.142 C 
BRANCH  12  13
HETATM   13  O1  UNL     1      26.993   1.494  51.660  1.00  0.00    -0.323 OA
BRANCH  13  14
HETATM   14  C7  UNL     1      26.286   0.798  52.622  1.00  0.00     0.077 A 
HETATM   15  C8  UNL     1      26.990   0.720  53.824  1.00  0.00     0.037 A 
HETATM   16  C9  UNL     1      26.441   0.058  54.912  1.00  0.00     0.006 A 
HETATM   17  C10 UNL     1      25.197  -0.526  54.811  1.00  0.00     0.042 A 
HETATM   18  C11 UNL     1      24.511  -0.442  53.618  1.00  0.00     0.119 A 
HETATM   19  F1  UNL     1      23.271  -0.994  53.433  1.00  0.00    -0.206 F 
HETATM   20  C12 UNL     1      25.050   0.217  52.522  1.00  0.00     0.079 A 
ENDBRANCH  13  14
ENDBRANCH  12  13
ENDBRANCH   5  11
TORSDOF 3
ENDMDL
MODEL 6
REMARK VINA RESULT:      -7.3      2.492      3.346
REMARK  3 active torsions:
REMARK  status: ('A' for Active; 'I' for Inactive)
REMARK    1  A    between atoms: C4_5  and  C5_6 
REMARK    2  A    between atoms: C6_7  and  O1_8 
REMARK    3  A    between atoms: O1_8  and  C7_9 
ROOT
HETATM    1  C1  UNL     1      27.531   4.849  48.687  1.00  0.00     0.066 C 
HETATM    2  C2  UNL     1      26.274   4.655  49.441  1.00  0.00     0.017 A 
HETATM    3  N1  UNL     1      25.931   3.604  50.107  1.00  0.00    -0.257 NA
HETATM    4  C3  UNL     1      24.666   3.735  50.716  1.00  0.00     0.064 A 
HETATM    5  C4  UNL     1      24.065   2.839  51.447  1.00  0.00     0.034 C 
HETATM    6  C13 UNL     1      24.215   5.068  50.339  1.00  0.00    -0.009 A 
HETATM    7  C14 UNL     1      23.078   5.649  50.671  1.00  0.00     0.094 C 
HETATM    8 CL1  UNL     1      21.740   5.113  51.626  1.00  0.00    -0.096 Cl
HETATM    9  C15 UNL     1      25.231   5.741  49.491  1.00  0.00     0.065 A 
HETATM   10  C16 UNL     1      25.806   6.963  50.168  1.00  0.00     0.021 C 
ENDROOT
BRANCH   5  11
HETATM   11  C5  UNL     1      24.767   1.575  51.661  1.00  0.00     0.027 C 
HETATM   12  C6  UNL     1      24.487   0.824  52.718  1.00  0.00     0.142 C 
BRANCH  12  13
HETATM   13  O1  UNL     1      25.103  -0.376  52.985  1.00  0.00    -0.323 OA
BRANCH  13  14
HETATM   14  C7  UNL     1      26.434  -0.434  53.352  1.00  0.00     0.077 A 
HETATM   15  C8  UNL     1      26.734   0.489  54.354  1.00  0.00     0.037 A 
HETATM   16  C9  UNL     1      28.025   0.580  54.854  1.00  0.00     0.006 A 
HETATM   17  C10 UNL     1      29.017  -0.241  54.364  1.00  0.00     0.042 A 
HETATM   18  C11 UNL     1      28.708  -1.149  53.373  1.00  0.00     0.119 A 
HETATM   19  F1  UNL     1      29.633  -2.001  52.830  1.00  0.00    -0.206 F 
HETATM   20  C12 UNL     1      27.421  -1.249  52.864  1.00  0.00     0.079 A 
ENDBRANCH  13  14
ENDBRANCH  12  13
ENDBRANCH   5  11
TORSDOF 3
ENDMDL
MODEL 7
REMARK VINA RESULT:      -7.3      2.594      3.200
REMARK  3 active torsions:
REMARK  status: ('A' for Active; 'I' for Inactive)
REMARK    1  A    between atoms: C4_5  and  C5_6 
REMARK    2  A    between atoms: C6_7  and  O1_8 
REMARK    3  A    between atoms: O1_8  and  C7_9 
ROOT
HETATM    1  C1  UNL     1      30.419   5.339  47.826  1.00  0.00     0.066 C 
HETATM    2  C2  UNL     1      28.989   5.544  48.144  1.00  0.00     0.017 A 
HETATM    3  N1  UNL     1      28.208   4.710  48.744  1.00  0.00    -0.257 NA
HETATM    4  C3  UNL     1      26.897   5.208  48.897  1.00  0.00     0.064 A 
HETATM    5  C4  UNL     1      25.899   4.589  49.462  1.00  0.00     0.034 C 
HETATM    6  C13 UNL     1      26.935   6.531  48.290  1.00  0.00    -0.009 A 
HETATM    7  C14 UNL     1      25.939   7.390  48.190  1.00  0.00     0.094 C 
HETATM    8 CL1  UNL     1      24.288   7.314  48.698  1.00  0.00    -0.096 Cl
HETATM    9  C15 UNL     1      28.292   6.826  47.768  1.00  0.00     0.065 A 
HETATM   10  C16 UNL     1      28.936   7.983  48.495  1.00  0.00     0.021 C 
ENDROOT
BRANCH   5  11
HETATM   11  C5  UNL     1      26.158   3.251  49.991  1.00  0.00     0.027 C 
HETATM   12  C6  UNL     1      25.440   2.781  51.003  1.00  0.00     0.142 C 
BRANCH  12  13
HETATM   13  O1  UNL     1      25.625   1.534  51.553  1.00  0.00    -0.323 OA
BRANCH  13  14
HETATM   14  C7  UNL     1      24.615   0.899  52.249  1.00  0.00     0.077 A 
HETATM   15  C8  UNL     1      23.364   1.150  51.686  1.00  0.00     0.037 A 
HETATM   16  C9  UNL     1      22.222   0.596  52.248  1.00  0.00     0.006 A 
HETATM   17  C10 UNL     1      22.319  -0.205  53.365  1.00  0.00     0.042 A 
HETATM   18  C11 UNL     1      23.562  -0.446  53.912  1.00  0.00     0.119 A 
HETATM   19  F1  UNL     1      23.747  -1.229  55.021  1.00  0.00    -0.206 F 
HETATM   20  C12 UNL     1      24.711   0.103  53.360  1.00  0.00     0.079 A 
ENDBRANCH  13  14
ENDBRANCH  12  13
ENDBRANCH   5  11
TORSDOF 3
ENDMDL
MODEL 8
REMARK VINA RESULT:      -7.0      4.875      6.172
REMARK  3 active torsions:
REMARK  status: ('A' for Active; 'I' for Inactive)
REMARK    1  A    between atoms: C4_5  and  C5_6 
REMARK    2  A    between atoms: C6_7  and  O1_8 
REMARK    3  A    between atoms: O1_8  and  C7_9 
ROOT
HETATM    1  C1  UNL     1      23.076   3.233  49.238  1.00  0.00     0.066 C 
HETATM    2  C2  UNL     1      22.727   2.467  50.453  1.00  0.00     0.017 A 
HETATM    3  N1  UNL     1      23.490   1.643  51.089  1.00  0.00    -0.257 NA
HETATM    4  C3  UNL     1      22.857   1.074  52.214  1.00  0.00     0.064 A 
HETATM    5  C4  UNL     1      23.382   0.212  53.040  1.00  0.00     0.034 C 
HETATM    6  C13 UNL     1      21.526   1.665  52.223  1.00  0.00    -0.009 A 
HETATM    7  C14 UNL     1      20.559   1.439  53.092  1.00  0.00     0.094 C 
HETATM    8 CL1  UNL     1      20.471   0.421  54.486  1.00  0.00    -0.096 Cl
HETATM    9  C15 UNL     1      21.364   2.602  51.083  1.00  0.00     0.065 A 
HETATM   10  C16 UNL     1      21.161   4.024  51.549  1.00  0.00     0.021 C 
ENDROOT
BRANCH   5  11
HETATM   11  C5  UNL     1      24.757  -0.206  52.780  1.00  0.00     0.027 C 
HETATM   12  C6  UNL     1      25.369  -1.045  53.606  1.00  0.00     0.142 C 
BRANCH  12  13
HETATM   13  O1  UNL     1      26.660  -1.484  53.428  1.00  0.00    -0.323 OA
BRANCH  13  14
HETATM   14  C7  UNL     1      27.733  -0.617  53.513  1.00  0.00     0.077 A 
HETATM   15  C8  UNL     1      28.949  -1.298  53.476  1.00  0.00     0.037 A 
HETATM   16  C9  UNL     1      30.144  -0.595  53.549  1.00  0.00     0.006 A 
HETATM   17  C10 UNL     1      30.133   0.778  53.660  1.00  0.00     0.042 A 
HETATM   18  C11 UNL     1      28.924   1.439  53.695  1.00  0.00     0.119 A 
HETATM   19  F1  UNL     1      28.824   2.801  53.803  1.00  0.00    -0.206 F 
HETATM   20  C12 UNL     1      27.723   0.748  53.623  1.00  0.00     0.079 A 
ENDBRANCH  13  14
ENDBRANCH  12  13
ENDBRANCH   5  11
TORSDOF 3
ENDMDL
MODEL 9
REMARK VINA RESULT:      -7.0      6.697      8.630
REMARK  3 active torsions:
REMARK  status: ('A' for Active; 'I' for Inactive)
REMARK    1  A    between atoms: C4_5  and  C5_6 
REMARK    2  A    between atoms: C6_7  and  O1_8 
REMARK    3  A    between atoms: O1_8  and  C7_9 
ROOT
HETATM    1  C1  UNL     1      24.136   4.191  52.360  1.00  0.00     0.066 C 
HETATM    2  C2  UNL     1      24.539   2.782  52.553  1.00  0.00     0.017 A 
HETATM    3  N1  UNL     1      23.823   1.841  53.070  1.00  0.00    -0.257 NA
HETATM    4  C3  UNL     1      24.499   0.604  53.112  1.00  0.00     0.064 A 
HETATM    5  C4  UNL     1      24.026  -0.518  53.578  1.00  0.00     0.034 C 
HETATM    6  C13 UNL     1      25.804   0.880  52.527  1.00  0.00    -0.009 A 
HETATM    7  C14 UNL     1      26.794   0.027  52.349  1.00  0.00     0.094 C 
HETATM    8 CL1  UNL     1      26.950  -1.657  52.707  1.00  0.00    -0.096 Cl
HETATM    9  C15 UNL     1      25.906   2.307  52.131  1.00  0.00     0.065 A 
HETATM   10  C16 UNL     1      26.057   2.466  50.636  1.00  0.00     0.021 C 
ENDROOT
BRANCH   5  11
HETATM   11  C5  UNL     1      22.665  -0.496  54.110  1.00  0.00     0.027 C 
HETATM   12  C6  UNL     1      21.714  -1.229  53.545  1.00  0.00     0.142 C 
BRANCH  12  13
HETATM   13  O1  UNL     1      20.413  -1.262  53.988  1.00  0.00    -0.323 OA
BRANCH  13  14
HETATM   14  C7  UNL     1      19.362  -0.919  53.159  1.00  0.00     0.077 A 
HETATM   15  C8  UNL     1      18.211  -1.647  53.458  1.00  0.00     0.037 A 
HETATM   16  C9  UNL     1      17.047  -1.442  52.730  1.00  0.00     0.006 A 
HETATM   17  C10 UNL     1      17.024  -0.517  51.709  1.00  0.00     0.042 A 
HETATM   18  C11 UNL     1      18.169   0.197  51.424  1.00  0.00     0.119 A 
HETATM   19  F1  UNL     1      18.232   1.134  50.426  1.00  0.00    -0.206 F 
HETATM   20  C12 UNL     1      19.338  -0.000  52.144  1.00  0.00     0.079 A 
ENDBRANCH  13  14
ENDBRANCH  12  13
ENDBRANCH   5  11
TORSDOF 3
ENDMDL
