MODEL 1
REMARK VINA RESULT:      -7.9      0.000      0.000
REMARK  4 active torsions:
REMARK  status: ('A' for Active; 'I' for Inactive)
REMARK    1  A    between atoms: O1_2  and  C2_3 
REMARK    2  A    between atoms: C4_5  and  O2_6 
REMARK    3  A    between atoms: C8_12  and  N3_13 
REMARK    4  A    between atoms: N3_13  and  C9_14 
ROOT
HETATM    1  C2  UNL     1      21.024   0.912  50.985  1.00  0.00     0.124 A 
HETATM    2  C3  UNL     1      20.411   0.238  51.999  1.00  0.00     0.080 A 
HETATM    3  C4  UNL     1      20.223  -0.469  53.166  1.00  0.00     0.089 A 
HETATM    4  C6  UNL     1      21.422  -0.692  53.810  1.00  0.00     0.099 A 
HETATM    5  N1  UNL     1      21.723  -1.326  54.959  1.00  0.00    -0.239 NA
HETATM    6  C7  UNL     1      23.000  -1.405  55.374  1.00  0.00     0.236 A 
HETATM    7  N2  UNL     1      23.978  -0.855  54.651  1.00  0.00    -0.224 NA
HETATM    8  C8  UNL     1      23.775  -0.210  53.507  1.00  0.00     0.139 A 
HETATM    9  C15 UNL     1      22.464  -0.143  53.102  1.00  0.00     0.034 A 
HETATM   10  C16 UNL     1      21.861   0.426  51.998  1.00  0.00     0.063 A 
ENDROOT
BRANCH   8  11
HETATM   11  N3  UNL     1      24.766   0.396  52.691  1.00  0.00    -0.340 N 
HETATM   12  H8  UNL     1      24.487   0.692  51.711  1.00  0.00     0.167 HD
BRANCH  11  13
HETATM   13  C9  UNL     1      26.111   0.669  53.007  1.00  0.00     0.035 A 
HETATM   14  C10 UNL     1      26.558   1.970  53.261  1.00  0.00     0.029 A 
HETATM   15  C11 UNL     1      27.862   2.264  53.571  1.00  0.00     0.004 A 
HETATM   16  C12 UNL     1      28.817   1.276  53.647  1.00  0.00     0.019 A 
HETATM   17  C13 UNL     1      28.434  -0.027  53.406  1.00  0.00     0.013 A 
HETATM   18 BR1  UNL     1      29.744  -1.408  53.508  1.00  0.00    -0.051 Br
HETATM   19  C14 UNL     1      27.113  -0.269  53.099  1.00  0.00     0.048 A 
ENDBRANCH  11  13
ENDBRANCH   8  11
BRANCH   3  20
HETATM   20  O2  UNL     1      19.005  -0.922  53.669  1.00  0.00    -0.357 OA
HETATM   21  C5  UNL     1      17.907  -0.906  52.760  1.00  0.00     0.209 C 
ENDBRANCH   3  20
BRANCH   1  22
HETATM   22  O1  UNL     1      20.872   1.599  49.778  1.00  0.00    -0.379 OA
HETATM   23  C1  UNL     1      21.542   1.172  48.602  1.00  0.00     0.202 C 
ENDBRANCH   1  22
TORSDOF 4
ENDMDL
MODEL 2
REMARK VINA RESULT:      -7.6      3.687      6.281
REMARK  4 active torsions:
REMARK  status: ('A' for Active; 'I' for Inactive)
REMARK    1  A    between atoms: O1_2  and  C2_3 
REMARK    2  A    between atoms: C4_5  and  O2_6 
REMARK    3  A    between atoms: C8_12  and  N3_13 
REMARK    4  A    between atoms: N3_13  and  C9_14 
ROOT
HETATM    1  C2  UNL     1      26.716   1.976  51.749  1.00  0.00     0.124 A 
HETATM    2  C3  UNL     1      27.045   0.930  52.558  1.00  0.00     0.080 A 
HETATM    3  C4  UNL     1      26.929  -0.119  53.444  1.00  0.00     0.089 A 
HETATM    4  C6  UNL     1      25.616  -0.307  53.821  1.00  0.00     0.099 A 
HETATM    5  N1  UNL     1      25.034  -1.193  54.651  1.00  0.00    -0.239 NA
HETATM    6  C7  UNL     1      23.705  -1.163  54.851  1.00  0.00     0.236 A 
HETATM    7  N2  UNL     1      22.951  -0.255  54.227  1.00  0.00    -0.224 NA
HETATM    8  C8  UNL     1      23.437   0.657  53.391  1.00  0.00     0.139 A 
HETATM    9  C15 UNL     1      24.796   0.607  53.203  1.00  0.00     0.034 A 
HETATM   10  C16 UNL     1      25.655   1.365  52.432  1.00  0.00     0.063 A 
ENDROOT
BRANCH   8  11
HETATM   11  N3  UNL     1      22.694   1.648  52.697  1.00  0.00    -0.340 N 
HETATM   12  H8  UNL     1      22.343   2.482  53.251  1.00  0.00     0.167 HD
BRANCH  11  13
HETATM   13  C9  UNL     1      22.345   1.684  51.333  1.00  0.00     0.035 A 
HETATM   14  C10 UNL     1      21.636   0.641  50.726  1.00  0.00     0.029 A 
HETATM   15  C11 UNL     1      21.284   0.650  49.401  1.00  0.00     0.004 A 
HETATM   16  C12 UNL     1      21.617   1.705  48.582  1.00  0.00     0.019 A 
HETATM   17  C13 UNL     1      22.317   2.763  49.125  1.00  0.00     0.013 A 
HETATM   18 BR1  UNL     1      22.786   4.231  48.004  1.00  0.00    -0.051 Br
HETATM   19  C14 UNL     1      22.646   2.704  50.462  1.00  0.00     0.048 A 
ENDBRANCH  11  13
ENDBRANCH   8  11
BRANCH   3  20
HETATM   20  O2  UNL     1      27.969  -0.913  53.925  1.00  0.00    -0.357 OA
HETATM   21  C5  UNL     1      29.254  -0.299  53.971  1.00  0.00     0.209 C 
ENDBRANCH   3  20
BRANCH   1  22
HETATM   22  O1  UNL     1      27.168   2.956  50.863  1.00  0.00    -0.379 OA
HETATM   23  C1  UNL     1      26.436   3.278  49.690  1.00  0.00     0.202 C 
ENDBRANCH   1  22
TORSDOF 4
ENDMDL
MODEL 3
REMARK VINA RESULT:      -7.5      4.261      5.680
REMARK  4 active torsions:
REMARK  status: ('A' for Active; 'I' for Inactive)
REMARK    1  A    between atoms: O1_2  and  C2_3 
REMARK    2  A    between atoms: C4_5  and  O2_6 
REMARK    3  A    between atoms: C8_12  and  N3_13 
REMARK    4  A    between atoms: N3_13  and  C9_14 
ROOT
HETATM    1  C2  UNL     1      22.936   0.437  52.343  1.00  0.00     0.124 A 
HETATM    2  C3  UNL     1      23.851   0.018  53.261  1.00  0.00     0.080 A 
HETATM    3  C4  UNL     1      25.035  -0.113  53.955  1.00  0.00     0.089 A 
HETATM    4  C6  UNL     1      26.015   0.697  53.421  1.00  0.00     0.099 A 
HETATM    5  N1  UNL     1      27.302   0.897  53.761  1.00  0.00    -0.239 NA
HETATM    6  C7  UNL     1      28.061   1.760  53.062  1.00  0.00     0.236 A 
HETATM    7  N2  UNL     1      27.544   2.425  52.026  1.00  0.00    -0.224 NA
HETATM    8  C8  UNL     1      26.286   2.292  51.620  1.00  0.00     0.139 A 
HETATM    9  C15 UNL     1      25.531   1.405  52.347  1.00  0.00     0.034 A 
HETATM   10  C16 UNL     1      24.215   1.001  52.241  1.00  0.00     0.063 A 
ENDROOT
BRANCH   8  11
HETATM   11  N3  UNL     1      25.674   2.965  50.530  1.00  0.00    -0.340 N 
HETATM   12  H8  UNL     1      24.833   2.508  50.073  1.00  0.00     0.167 HD
BRANCH  11  13
HETATM   13  C9  UNL     1      26.036   4.197  49.950  1.00  0.00     0.035 A 
HETATM   14  C10 UNL     1      27.121   4.308  49.073  1.00  0.00     0.029 A 
HETATM   15  C11 UNL     1      27.495   5.493  48.494  1.00  0.00     0.004 A 
HETATM   16  C12 UNL     1      26.810   6.659  48.751  1.00  0.00     0.019 A 
HETATM   17  C13 UNL     1      25.730   6.612  49.608  1.00  0.00     0.013 A 
HETATM   18 BR1  UNL     1      24.771   8.218  49.975  1.00  0.00    -0.051 Br
HETATM   19  C14 UNL     1      25.396   5.395  50.163  1.00  0.00     0.048 A 
ENDBRANCH  11  13
ENDBRANCH   8  11
BRANCH   3  20
HETATM   20  O2  UNL     1      25.260  -0.940  55.053  1.00  0.00    -0.357 OA
HETATM   21  C5  UNL     1      24.098  -1.419  55.725  1.00  0.00     0.209 C 
ENDBRANCH   3  20
BRANCH   1  22
HETATM   22  O1  UNL     1      21.625   0.338  51.870  1.00  0.00    -0.379 OA
HETATM   23  C1  UNL     1      20.591   1.152  52.401  1.00  0.00     0.202 C 
ENDBRANCH   1  22
TORSDOF 4
ENDMDL
MODEL 4
REMARK VINA RESULT:      -7.5      3.755      6.831
REMARK  4 active torsions:
REMARK  status: ('A' for Active; 'I' for Inactive)
REMARK    1  A    between atoms: O1_2  and  C2_3 
REMARK    2  A    between atoms: C4_5  and  O2_6 
REMARK    3  A    between atoms: C8_12  and  N3_13 
REMARK    4  A    between atoms: N3_13  and  C9_14 
ROOT
HETATM    1  C2  UNL     1      26.647   1.690  51.636  1.00  0.00     0.124 A 
HETATM    2  C3  UNL     1      27.184   1.071  52.725  1.00  0.00     0.080 A 
HETATM    3  C4  UNL     1      27.293   0.324  53.877  1.00  0.00     0.089 A 
HETATM    4  C6  UNL     1      26.066  -0.175  54.262  1.00  0.00     0.099 A 
HETATM    5  N1  UNL     1      25.692  -0.943  55.303  1.00  0.00    -0.239 NA
HETATM    6  C7  UNL     1      24.404  -1.298  55.454  1.00  0.00     0.236 A 
HETATM    7  N2  UNL     1      23.486  -0.893  54.573  1.00  0.00    -0.224 NA
HETATM    8  C8  UNL     1      23.763  -0.135  53.517  1.00  0.00     0.139 A 
HETATM    9  C15 UNL     1      25.084   0.216  53.384  1.00  0.00     0.034 A 
HETATM   10  C16 UNL     1      25.753   0.974  52.444  1.00  0.00     0.063 A 
ENDROOT
BRANCH   8  11
HETATM   11  N3  UNL     1      22.839   0.329  52.545  1.00  0.00    -0.340 N 
HETATM   12  H8  UNL     1      23.214   0.917  51.745  1.00  0.00     0.167 HD
BRANCH  11  13
HETATM   13  C9  UNL     1      21.448   0.115  52.488  1.00  0.00     0.035 A 
HETATM   14  C10 UNL     1      20.769  -0.585  53.492  1.00  0.00     0.029 A 
HETATM   15  C11 UNL     1      19.416  -0.809  53.462  1.00  0.00     0.004 A 
HETATM   16  C12 UNL     1      18.640  -0.348  52.422  1.00  0.00     0.019 A 
HETATM   17  C13 UNL     1      19.255   0.349  51.402  1.00  0.00     0.013 A 
HETATM   18 BR1  UNL     1      18.196   0.992  49.954  1.00  0.00    -0.051 Br
HETATM   19  C14 UNL     1      20.617   0.546  51.481  1.00  0.00     0.048 A 
ENDBRANCH  11  13
ENDBRANCH   8  11
BRANCH   3  20
HETATM   20  O2  UNL     1      28.462   0.078  54.595  1.00  0.00    -0.357 OA
HETATM   21  C5  UNL     1      29.581  -0.367  53.833  1.00  0.00     0.209 C 
ENDBRANCH   3  20
BRANCH   1  22
HETATM   22  O1  UNL     1      26.877   2.485  50.511  1.00  0.00    -0.379 OA
HETATM   23  C1  UNL     1      25.895   3.398  50.045  1.00  0.00     0.202 C 
ENDBRANCH   1  22
TORSDOF 4
ENDMDL
MODEL 5
REMARK VINA RESULT:      -7.5      3.911      7.409
REMARK  4 active torsions:
REMARK  status: ('A' for Active; 'I' for Inactive)
REMARK    1  A    between atoms: O1_2  and  C2_3 
REMARK    2  A    between atoms: C4_5  and  O2_6 
REMARK    3  A    between atoms: C8_12  and  N3_13 
REMARK    4  A    between atoms: N3_13  and  C9_14 
ROOT
HETATM    1  C2  UNL     1      26.752  -1.135  52.708  1.00  0.00     0.124 A 
HETATM    2  C3  UNL     1      27.110   0.179  52.658  1.00  0.00     0.080 A 
HETATM    3  C4  UNL     1      27.020   1.553  52.610  1.00  0.00     0.089 A 
HETATM    4  C6  UNL     1      25.703   1.963  52.605  1.00  0.00     0.099 A 
HETATM    5  N1  UNL     1      25.141   3.186  52.566  1.00  0.00    -0.239 NA
HETATM    6  C7  UNL     1      23.802   3.317  52.571  1.00  0.00     0.236 A 
HETATM    7  N2  UNL     1      23.021   2.235  52.616  1.00  0.00    -0.224 NA
HETATM    8  C8  UNL     1      23.487   0.991  52.658  1.00  0.00     0.139 A 
HETATM    9  C15 UNL     1      24.856   0.883  52.651  1.00  0.00     0.034 A 
HETATM   10  C16 UNL     1      25.701  -0.209  52.684  1.00  0.00     0.063 A 
ENDROOT
BRANCH   8  11
HETATM   11  N3  UNL     1      22.715  -0.199  52.707  1.00  0.00    -0.340 N 
HETATM   12  H8  UNL     1      23.232  -1.123  52.771  1.00  0.00     0.167 HD
BRANCH  11  13
HETATM   13  C9  UNL     1      21.312  -0.333  52.681  1.00  0.00     0.035 A 
HETATM   14  C10 UNL     1      20.619  -1.008  53.692  1.00  0.00     0.029 A 
HETATM   15  C11 UNL     1      19.255  -1.153  53.692  1.00  0.00     0.004 A 
HETATM   16  C12 UNL     1      18.482  -0.634  52.678  1.00  0.00     0.019 A 
HETATM   17  C13 UNL     1      19.111   0.042  51.653  1.00  0.00     0.013 A 
HETATM   18 BR1  UNL     1      18.057   0.767  50.241  1.00  0.00    -0.051 Br
HETATM   19  C14 UNL     1      20.484   0.160  51.701  1.00  0.00     0.048 A 
ENDBRANCH  11  13
ENDBRANCH   8  11
BRANCH   3  20
HETATM   20  O2  UNL     1      28.086   2.450  52.569  1.00  0.00    -0.357 OA
HETATM   21  C5  UNL     1      28.938   2.460  53.711  1.00  0.00     0.209 C 
ENDBRANCH   3  20
BRANCH   1  22
HETATM   22  O1  UNL     1      27.182  -2.463  52.753  1.00  0.00    -0.379 OA
HETATM   23  C1  UNL     1      28.527  -2.788  53.072  1.00  0.00     0.202 C 
ENDBRANCH   1  22
TORSDOF 4
ENDMDL
MODEL 6
REMARK VINA RESULT:      -7.4      4.352      5.679
REMARK  4 active torsions:
REMARK  status: ('A' for Active; 'I' for Inactive)
REMARK    1  A    between atoms: O1_2  and  C2_3 
REMARK    2  A    between atoms: C4_5  and  O2_6 
REMARK    3  A    between atoms: C8_12  and  N3_13 
REMARK    4  A    between atoms: N3_13  and  C9_14 
ROOT
HETATM    1  C2  UNL     1      25.892  -0.317  53.540  1.00  0.00     0.124 A 
HETATM    2  C3  UNL     1      24.548  -0.537  53.503  1.00  0.00     0.080 A 
HETATM    3  C4  UNL     1      23.216  -0.411  53.176  1.00  0.00     0.089 A 
HETATM    4  C6  UNL     1      23.020   0.621  52.282  1.00  0.00     0.099 A 
HETATM    5  N1  UNL     1      21.911   1.105  51.693  1.00  0.00    -0.239 NA
HETATM    6  C7  UNL     1      21.993   2.142  50.841  1.00  0.00     0.236 A 
HETATM    7  N2  UNL     1      23.176   2.699  50.571  1.00  0.00    -0.224 NA
HETATM    8  C8  UNL     1      24.322   2.288  51.103  1.00  0.00     0.139 A 
HETATM    9  C15 UNL     1      24.213   1.229  51.971  1.00  0.00     0.034 A 
HETATM   10  C16 UNL     1      25.150   0.532  52.708  1.00  0.00     0.063 A 
ENDROOT
BRANCH   8  11
HETATM   11  N3  UNL     1      25.610   2.833  50.861  1.00  0.00    -0.340 N 
HETATM   12  H8  UNL     1      26.451   2.300  51.226  1.00  0.00     0.167 HD
BRANCH  11  13
HETATM   13  C9  UNL     1      25.942   4.021  50.180  1.00  0.00     0.035 A 
HETATM   14  C10 UNL     1      26.986   4.070  49.250  1.00  0.00     0.029 A 
HETATM   15  C11 UNL     1      27.331   5.212  48.574  1.00  0.00     0.004 A 
HETATM   16  C12 UNL     1      26.655   6.394  48.780  1.00  0.00     0.019 A 
HETATM   17  C13 UNL     1      25.616   6.407  49.687  1.00  0.00     0.013 A 
HETATM   18 BR1  UNL     1      24.671   8.035  49.985  1.00  0.00    -0.051 Br
HETATM   19  C14 UNL     1      25.310   5.232  50.339  1.00  0.00     0.048 A 
ENDBRANCH  11  13
ENDBRANCH   8  11
BRANCH   3  20
HETATM   20  O2  UNL     1      22.169  -1.194  53.659  1.00  0.00    -0.357 OA
HETATM   21  C5  UNL     1      21.528  -0.721  54.840  1.00  0.00     0.209 C 
ENDBRANCH   3  20
BRANCH   1  22
HETATM   22  O1  UNL     1      27.127  -0.703  54.067  1.00  0.00    -0.379 OA
HETATM   23  C1  UNL     1      28.329  -0.505  53.340  1.00  0.00     0.202 C 
ENDBRANCH   1  22
TORSDOF 4
ENDMDL
MODEL 7
REMARK VINA RESULT:      -7.3      3.565      6.782
REMARK  4 active torsions:
REMARK  status: ('A' for Active; 'I' for Inactive)
REMARK    1  A    between atoms: O1_2  and  C2_3 
REMARK    2  A    between atoms: C4_5  and  O2_6 
REMARK    3  A    between atoms: C8_12  and  N3_13 
REMARK    4  A    between atoms: N3_13  and  C9_14 
ROOT
HETATM    1  C2  UNL     1      23.991  -0.681  54.334  1.00  0.00     0.124 A 
HETATM    2  C3  UNL     1      25.321  -0.627  54.041  1.00  0.00     0.080 A 
HETATM    3  C4  UNL     1      26.520  -0.219  53.499  1.00  0.00     0.089 A 
HETATM    4  C6  UNL     1      26.347   0.878  52.682  1.00  0.00     0.099 A 
HETATM    5  N1  UNL     1      27.215   1.606  51.955  1.00  0.00    -0.239 NA
HETATM    6  C7  UNL     1      26.782   2.651  51.228  1.00  0.00     0.236 A 
HETATM    7  N2  UNL     1      25.487   2.976  51.222  1.00  0.00    -0.224 NA
HETATM    8  C8  UNL     1      24.559   2.316  51.909  1.00  0.00     0.139 A 
HETATM    9  C15 UNL     1      25.026   1.253  52.642  1.00  0.00     0.034 A 
HETATM   10  C16 UNL     1      24.392   0.344  53.466  1.00  0.00     0.063 A 
ENDROOT
BRANCH   8  11
HETATM   11  N3  UNL     1      23.171   2.606  51.947  1.00  0.00    -0.340 N 
HETATM   12  H8  UNL     1      22.849   3.413  52.556  1.00  0.00     0.167 HD
BRANCH  11  13
HETATM   13  C9  UNL     1      22.122   1.955  51.268  1.00  0.00     0.035 A 
HETATM   14  C10 UNL     1      22.077   1.891  49.870  1.00  0.00     0.029 A 
HETATM   15  C11 UNL     1      21.069   1.264  49.184  1.00  0.00     0.004 A 
HETATM   16  C12 UNL     1      20.028   0.653  49.847  1.00  0.00     0.019 A 
HETATM   17  C13 UNL     1      20.019   0.683  51.226  1.00  0.00     0.013 A 
HETATM   18 BR1  UNL     1      18.585  -0.157  52.159  1.00  0.00    -0.051 Br
HETATM   19  C14 UNL     1      21.056   1.327  51.867  1.00  0.00     0.048 A 
ENDBRANCH  11  13
ENDBRANCH   8  11
BRANCH   3  20
HETATM   20  O2  UNL     1      27.766  -0.805  53.716  1.00  0.00    -0.357 OA
HETATM   21  C5  UNL     1      28.622  -0.131  54.634  1.00  0.00     0.209 C 
ENDBRANCH   3  20
BRANCH   1  22
HETATM   22  O1  UNL     1      22.973  -1.334  55.032  1.00  0.00    -0.379 OA
HETATM   23  C1  UNL     1      21.705  -1.561  54.437  1.00  0.00     0.202 C 
ENDBRANCH   1  22
TORSDOF 4
ENDMDL
MODEL 8
REMARK VINA RESULT:      -7.3      4.081      5.754
REMARK  4 active torsions:
REMARK  status: ('A' for Active; 'I' for Inactive)
REMARK    1  A    between atoms: O1_2  and  C2_3 
REMARK    2  A    between atoms: C4_5  and  O2_6 
REMARK    3  A    between atoms: C8_12  and  N3_13 
REMARK    4  A    between atoms: N3_13  and  C9_14 
ROOT
HETATM    1  C2  UNL     1      26.788   4.515  49.249  1.00  0.00     0.124 A 
HETATM    2  C3  UNL     1      25.667   5.234  49.540  1.00  0.00     0.080 A 
HETATM    3  C4  UNL     1      24.449   5.586  50.078  1.00  0.00     0.089 A 
HETATM    4  C6  UNL     1      23.956   4.585  50.888  1.00  0.00     0.099 A 
HETATM    5  N1  UNL     1      22.824   4.484  51.609  1.00  0.00    -0.239 NA
HETATM    6  C7  UNL     1      22.575   3.376  52.329  1.00  0.00     0.236 A 
HETATM    7  N2  UNL     1      23.448   2.367  52.335  1.00  0.00    -0.224 NA
HETATM    8  C8  UNL     1      24.590   2.378  51.655  1.00  0.00     0.139 A 
HETATM    9  C15 UNL     1      24.822   3.519  50.927  1.00  0.00     0.034 A 
HETATM   10  C16 UNL     1      25.868   3.903  50.111  1.00  0.00     0.063 A 
ENDROOT
BRANCH   8  11
HETATM   11  N3  UNL     1      25.561   1.343  51.617  1.00  0.00    -0.340 N 
HETATM   12  H8  UNL     1      25.399   0.536  50.947  1.00  0.00     0.167 HD
BRANCH  11  13
HETATM   13  C9  UNL     1      26.748   1.230  52.366  1.00  0.00     0.035 A 
HETATM   14  C10 UNL     1      27.327   2.334  53.001  1.00  0.00     0.029 A 
HETATM   15  C11 UNL     1      28.482   2.253  53.736  1.00  0.00     0.004 A 
HETATM   16  C12 UNL     1      29.146   1.056  53.890  1.00  0.00     0.019 A 
HETATM   17  C13 UNL     1      28.622  -0.068  53.286  1.00  0.00     0.013 A 
HETATM   18 BR1  UNL     1      29.529  -1.732  53.489  1.00  0.00    -0.051 Br
HETATM   19  C14 UNL     1      27.459   0.068  52.559  1.00  0.00     0.048 A 
ENDBRANCH  11  13
ENDBRANCH   8  11
BRANCH   3  20
HETATM   20  O2  UNL     1      23.766   6.782  49.862  1.00  0.00    -0.357 OA
HETATM   21  C5  UNL     1      24.050   7.837  50.777  1.00  0.00     0.209 C 
ENDBRANCH   3  20
BRANCH   1  22
HETATM   22  O1  UNL     1      28.000   4.469  48.557  1.00  0.00    -0.379 OA
HETATM   23  C1  UNL     1      28.722   5.655  48.262  1.00  0.00     0.202 C 
ENDBRANCH   1  22
TORSDOF 4
ENDMDL
MODEL 9
REMARK VINA RESULT:      -7.1      4.916      6.404
REMARK  4 active torsions:
REMARK  status: ('A' for Active; 'I' for Inactive)
REMARK    1  A    between atoms: O1_2  and  C2_3 
REMARK    2  A    between atoms: C4_5  and  O2_6 
REMARK    3  A    between atoms: C8_12  and  N3_13 
REMARK    4  A    between atoms: N3_13  and  C9_14 
ROOT
HETATM    1  C2  UNL     1      26.178   2.020  53.353  1.00  0.00     0.124 A 
HETATM    2  C3  UNL     1      24.852   1.732  53.233  1.00  0.00     0.080 A 
HETATM    3  C4  UNL     1      23.585   1.621  52.702  1.00  0.00     0.089 A 
HETATM    4  C6  UNL     1      23.542   2.117  51.416  1.00  0.00     0.099 A 
HETATM    5  N1  UNL     1      22.540   2.216  50.522  1.00  0.00    -0.239 NA
HETATM    6  C7  UNL     1      22.765   2.751  49.309  1.00  0.00     0.236 A 
HETATM    7  N2  UNL     1      23.983   3.187  48.981  1.00  0.00    -0.224 NA
HETATM    8  C8  UNL     1      25.030   3.130  49.798  1.00  0.00     0.139 A 
HETATM    9  C15 UNL     1      24.776   2.581  51.030  1.00  0.00     0.034 A 
HETATM   10  C16 UNL     1      25.582   2.351  52.128  1.00  0.00     0.063 A 
ENDROOT
BRANCH   8  11
HETATM   11  N3  UNL     1      26.348   3.575  49.514  1.00  0.00    -0.340 N 
HETATM   12  H8  UNL     1      27.150   2.911  49.718  1.00  0.00     0.167 HD
BRANCH  11  13
HETATM   13  C9  UNL     1      26.757   4.813  48.983  1.00  0.00     0.035 A 
HETATM   14  C10 UNL     1      25.864   5.879  48.826  1.00  0.00     0.029 A 
HETATM   15  C11 UNL     1      26.235   7.095  48.311  1.00  0.00     0.004 A 
HETATM   16  C12 UNL     1      27.531   7.335  47.913  1.00  0.00     0.019 A 
HETATM   17  C13 UNL     1      28.457   6.321  48.044  1.00  0.00     0.013 A 
HETATM   18 BR1  UNL     1      30.255   6.636  47.497  1.00  0.00    -0.051 Br
HETATM   19  C14 UNL     1      28.032   5.118  48.567  1.00  0.00     0.048 A 
ENDBRANCH  11  13
ENDBRANCH   8  11
BRANCH   3  20
HETATM   20  O2  UNL     1      22.466   1.088  53.340  1.00  0.00    -0.357 OA
HETATM   21  C5  UNL     1      22.602  -0.243  53.830  1.00  0.00     0.209 C 
ENDBRANCH   3  20
BRANCH   1  22
HETATM   22  O1  UNL     1      27.313   1.986  54.166  1.00  0.00    -0.379 OA
HETATM   23  C1  UNL     1      28.589   2.347  53.659  1.00  0.00     0.202 C 
ENDBRANCH   1  22
TORSDOF 4
ENDMDL
