MODEL 1
REMARK VINA RESULT:      -7.7      0.000      0.000
REMARK  4 active torsions:
REMARK  status: ('A' for Active; 'I' for Inactive)
REMARK    1  A    between atoms: C2_2  and  C3_3 
REMARK    2  A    between atoms: C4_5  and  C5_6 
REMARK    3  A    between atoms: C8_9  and  C9_10 
REMARK    4  A    between atoms: C9_10  and  S1_11 
ROOT
HETATM    1  C5  UNL     1      25.836  -0.375  53.702  1.00  0.00     0.038 C 
HETATM    2  C6  UNL     1      24.898   0.215  53.000  1.00  0.00    -0.035 C 
HETATM    3  C7  UNL     1      24.726   1.158  51.870  1.00  0.00     0.047 C 
HETATM    4  C8  UNL     1      23.841   2.230  52.328  1.00  0.00     0.028 C 
HETATM    5  C11 UNL     1      22.526   1.820  52.871  1.00  0.00     0.007 C 
HETATM    6  C12 UNL     1      22.452   0.615  53.351  1.00  0.00     0.048 C 
HETATM    7  N1  UNL     1      21.215   0.116  53.908  1.00  0.00    -0.246 NA
HETATM    8  C13 UNL     1      21.349  -0.828  54.817  1.00  0.00     0.235 C 
HETATM    9  N2  UNL     1      22.632  -1.287  55.160  1.00  0.00    -0.228 NA
HETATM   10  C14 UNL     1      23.751  -0.930  54.682  1.00  0.00     0.120 C 
HETATM   11  N3  UNL     1      25.127  -1.072  54.717  1.00  0.00    -0.343 N 
HETATM   12  C15 UNL     1      23.574  -0.275  53.369  1.00  0.00     0.138 C 
HETATM   13  H13 UNL     1      25.436  -1.702  55.529  1.00  0.00     0.167 HD
ENDROOT
BRANCH   1  14
HETATM   14  C4  UNL     1      27.273  -0.425  53.741  1.00  0.00     0.048 C 
HETATM   15  C3  UNL     1      28.225   0.477  53.700  1.00  0.00     0.012 C 
HETATM   16 BR1  UNL     1      28.537   2.377  53.569  1.00  0.00    -0.051 Br
BRANCH  15  17
HETATM   17  C2  UNL     1      29.602  -0.060  53.774  1.00  0.00     0.009 C 
HETATM   18  C1  UNL     1      30.082  -1.260  53.697  1.00  0.00     0.012 C 
ENDBRANCH  15  17
ENDBRANCH   1  14
BRANCH   4  19
HETATM   19  C9  UNL     1      23.863   3.574  51.699  1.00  0.00     0.132 C 
BRANCH  19  20
HETATM   20  S1  UNL     1      24.851   3.341  50.648  1.00  0.00    -0.283 SA
HETATM   21  C10 UNL     1      25.327   4.628  50.144  1.00  0.00     0.145 C 
ENDBRANCH  19  20
ENDBRANCH   4  19
TORSDOF 4
ENDMDL
MODEL 2
REMARK VINA RESULT:      -7.5      2.508      5.187
REMARK  4 active torsions:
REMARK  status: ('A' for Active; 'I' for Inactive)
REMARK    1  A    between atoms: C2_2  and  C3_3 
REMARK    2  A    between atoms: C4_5  and  C5_6 
REMARK    3  A    between atoms: C8_9  and  C9_10 
REMARK    4  A    between atoms: C9_10  and  S1_11 
ROOT
HETATM    1  C5  UNL     1      24.683  -0.136  54.033  1.00  0.00     0.038 C 
HETATM    2  C6  UNL     1      25.197   0.976  53.564  1.00  0.00    -0.035 C 
HETATM    3  C7  UNL     1      24.797   2.241  52.903  1.00  0.00     0.047 C 
HETATM    4  C8  UNL     1      25.615   2.380  51.698  1.00  0.00     0.028 C 
HETATM    5  C11 UNL     1      27.083   2.330  51.882  1.00  0.00     0.007 C 
HETATM    6  C12 UNL     1      27.510   1.696  52.933  1.00  0.00     0.048 C 
HETATM    7  N1  UNL     1      28.925   1.585  53.205  1.00  0.00    -0.246 NA
HETATM    8  C13 UNL     1      29.279   0.533  53.916  1.00  0.00     0.235 C 
HETATM    9  N2  UNL     1      28.297  -0.365  54.365  1.00  0.00    -0.228 NA
HETATM   10  C14 UNL     1      27.041  -0.306  54.205  1.00  0.00     0.120 C 
HETATM   11  N3  UNL     1      25.813  -0.904  54.424  1.00  0.00    -0.343 N 
HETATM   12  C15 UNL     1      26.622   1.070  53.866  1.00  0.00     0.138 C 
HETATM   13  H13 UNL     1      25.923  -1.876  54.865  1.00  0.00     0.167 HD
ENDROOT
BRANCH   1  14
HETATM   14  C4  UNL     1      23.387  -0.744  54.167  1.00  0.00     0.048 C 
HETATM   15  C3  UNL     1      22.261  -0.663  53.498  1.00  0.00     0.012 C 
HETATM   16 BR1  UNL     1      21.432   0.197  51.982  1.00  0.00    -0.051 Br
BRANCH  15  17
HETATM   17  C2  UNL     1      21.158  -1.500  54.022  1.00  0.00     0.009 C 
HETATM   18  C1  UNL     1      19.874  -1.458  53.864  1.00  0.00     0.012 C 
ENDBRANCH  15  17
ENDBRANCH   1  14
BRANCH   4  19
HETATM   19  C9  UNL     1      25.160   3.195  50.543  1.00  0.00     0.132 C 
BRANCH  19  20
HETATM   20  S1  UNL     1      26.427   3.348  49.832  1.00  0.00    -0.283 SA
HETATM   21  C10 UNL     1      26.463   4.663  49.193  1.00  0.00     0.145 C 
ENDBRANCH  19  20
ENDBRANCH   4  19
TORSDOF 4
ENDMDL
MODEL 3
REMARK VINA RESULT:      -7.4      3.103      5.968
REMARK  4 active torsions:
REMARK  status: ('A' for Active; 'I' for Inactive)
REMARK    1  A    between atoms: C2_2  and  C3_3 
REMARK    2  A    between atoms: C4_5  and  C5_6 
REMARK    3  A    between atoms: C8_9  and  C9_10 
REMARK    4  A    between atoms: C9_10  and  S1_11 
ROOT
HETATM    1  C5  UNL     1      24.135   2.820  52.755  1.00  0.00     0.038 C 
HETATM    2  C6  UNL     1      24.006   1.519  52.859  1.00  0.00    -0.035 C 
HETATM    3  C7  UNL     1      23.032   0.433  52.595  1.00  0.00     0.047 C 
HETATM    4  C8  UNL     1      22.883  -0.330  53.835  1.00  0.00     0.028 C 
HETATM    5  C11 UNL     1      24.123  -0.875  54.433  1.00  0.00     0.007 C 
HETATM    6  C12 UNL     1      25.226  -0.256  54.135  1.00  0.00     0.048 C 
HETATM    7  N1  UNL     1      26.493  -0.704  54.668  1.00  0.00    -0.246 NA
HETATM    8  C13 UNL     1      27.418   0.228  54.777  1.00  0.00     0.235 C 
HETATM    9  N2  UNL     1      27.134   1.541  54.365  1.00  0.00    -0.228 NA
HETATM   10  C14 UNL     1      26.068   1.993  53.848  1.00  0.00     0.120 C 
HETATM   11  N3  UNL     1      25.394   3.095  53.354  1.00  0.00    -0.343 N 
HETATM   12  C15 UNL     1      25.256   0.895  53.283  1.00  0.00     0.138 C 
HETATM   13  H13 UNL     1      25.951   3.998  53.512  1.00  0.00     0.167 HD
ENDROOT
BRANCH   1  14
HETATM   14  C4  UNL     1      23.358   3.941  52.296  1.00  0.00     0.048 C 
HETATM   15  C3  UNL     1      22.086   4.132  52.039  1.00  0.00     0.012 C 
HETATM   16 BR1  UNL     1      20.370   3.248  52.029  1.00  0.00    -0.051 Br
BRANCH  15  17
HETATM   17  C2  UNL     1      21.737   5.494  51.577  1.00  0.00     0.009 C 
HETATM   18  C1  UNL     1      22.395   6.393  50.918  1.00  0.00     0.012 C 
ENDBRANCH  15  17
ENDBRANCH   1  14
BRANCH   4  19
HETATM   19  C9  UNL     1      21.658  -1.119  54.116  1.00  0.00     0.132 C 
BRANCH  19  20
HETATM   20  S1  UNL     1      20.662  -0.049  54.090  1.00  0.00    -0.283 SA
HETATM   21  C10 UNL     1      19.503  -0.492  53.316  1.00  0.00     0.145 C 
ENDBRANCH  19  20
ENDBRANCH   4  19
TORSDOF 4
ENDMDL
MODEL 4
REMARK VINA RESULT:      -7.3      2.897      5.717
REMARK  4 active torsions:
REMARK  status: ('A' for Active; 'I' for Inactive)
REMARK    1  A    between atoms: C2_2  and  C3_3 
REMARK    2  A    between atoms: C4_5  and  C5_6 
REMARK    3  A    between atoms: C8_9  and  C9_10 
REMARK    4  A    between atoms: C9_10  and  S1_11 
ROOT
HETATM    1  C5  UNL     1      25.969   2.425  51.596  1.00  0.00     0.038 C 
HETATM    2  C6  UNL     1      25.714   1.256  52.135  1.00  0.00    -0.035 C 
HETATM    3  C7  UNL     1      24.646   0.231  52.212  1.00  0.00     0.047 C 
HETATM    4  C8  UNL     1      24.404  -0.038  53.630  1.00  0.00     0.028 C 
HETATM    5  C11 UNL     1      25.576  -0.443  54.440  1.00  0.00     0.007 C 
HETATM    6  C12 UNL     1      26.738  -0.061  54.001  1.00  0.00     0.048 C 
HETATM    7  N1  UNL     1      27.946  -0.400  54.718  1.00  0.00    -0.246 NA
HETATM    8  C13 UNL     1      28.954   0.431  54.545  1.00  0.00     0.235 C 
HETATM    9  N2  UNL     1      28.804   1.538  53.693  1.00  0.00    -0.228 NA
HETATM   10  C14 UNL     1      27.795   1.870  53.001  1.00  0.00     0.120 C 
HETATM   11  N3  UNL     1      27.237   2.785  52.125  1.00  0.00    -0.343 N 
HETATM   12  C15 UNL     1      26.891   0.717  52.808  1.00  0.00     0.138 C 
HETATM   13  H13 UNL     1      27.875   3.637  51.990  1.00  0.00     0.167 HD
ENDROOT
BRANCH   1  14
HETATM   14  C4  UNL     1      25.310   3.377  50.742  1.00  0.00     0.048 C 
HETATM   15  C3  UNL     1      25.713   4.202  49.805  1.00  0.00     0.012 C 
HETATM   16 BR1  UNL     1      27.284   4.809  48.863  1.00  0.00    -0.051 Br
BRANCH  15  17
HETATM   17  C2  UNL     1      24.644   5.012  49.180  1.00  0.00     0.009 C 
HETATM   18  C1  UNL     1      24.658   6.125  48.519  1.00  0.00     0.012 C 
ENDBRANCH  15  17
ENDBRANCH   1  14
BRANCH   4  19
HETATM   19  C9  UNL     1      23.104  -0.575  54.105  1.00  0.00     0.132 C 
BRANCH  19  20
HETATM   20  S1  UNL     1      22.192   0.337  53.418  1.00  0.00    -0.283 SA
HETATM   21  C10 UNL     1      20.916   0.366  54.131  1.00  0.00     0.145 C 
ENDBRANCH  19  20
ENDBRANCH   4  19
TORSDOF 4
ENDMDL
MODEL 5
REMARK VINA RESULT:      -7.0      3.123      4.709
REMARK  4 active torsions:
REMARK  status: ('A' for Active; 'I' for Inactive)
REMARK    1  A    between atoms: C2_2  and  C3_3 
REMARK    2  A    between atoms: C4_5  and  C5_6 
REMARK    3  A    between atoms: C8_9  and  C9_10 
REMARK    4  A    between atoms: C9_10  and  S1_11 
ROOT
HETATM    1  C5  UNL     1      26.428   2.269  52.108  1.00  0.00     0.038 C 
HETATM    2  C6  UNL     1      25.120   2.331  52.187  1.00  0.00    -0.035 C 
HETATM    3  C7  UNL     1      23.980   1.726  52.917  1.00  0.00     0.047 C 
HETATM    4  C8  UNL     1      23.025   1.251  51.915  1.00  0.00     0.028 C 
HETATM    5  C11 UNL     1      22.544   2.247  50.931  1.00  0.00     0.007 C 
HETATM    6  C12 UNL     1      23.327   3.261  50.709  1.00  0.00     0.048 C 
HETATM    7  N1  UNL     1      22.954   4.289  49.764  1.00  0.00    -0.246 NA
HETATM    8  C13 UNL     1      23.960   4.934  49.210  1.00  0.00     0.235 C 
HETATM    9  N2  UNL     1      25.278   4.610  49.574  1.00  0.00    -0.228 NA
HETATM   10  C14 UNL     1      25.676   3.758  50.424  1.00  0.00     0.120 C 
HETATM   11  N3  UNL     1      26.754   3.145  51.037  1.00  0.00    -0.343 N 
HETATM   12  C15 UNL     1      24.590   3.415  51.366  1.00  0.00     0.138 C 
HETATM   13  H13 UNL     1      27.681   3.441  50.586  1.00  0.00     0.167 HD
ENDROOT
BRANCH   1  14
HETATM   14  C4  UNL     1      27.506   1.546  52.727  1.00  0.00     0.048 C 
HETATM   15  C3  UNL     1      27.737   0.279  52.979  1.00  0.00     0.012 C 
HETATM   16 BR1  UNL     1      26.980  -1.487  52.795  1.00  0.00    -0.051 Br
BRANCH  15  17
HETATM   17  C2  UNL     1      29.023  -0.002  53.653  1.00  0.00     0.009 C 
HETATM   18  C1  UNL     1      29.817  -1.025  53.638  1.00  0.00     0.012 C 
ENDBRANCH  15  17
ENDBRANCH   1  14
BRANCH   4  19
HETATM   19  C9  UNL     1      22.064   0.160  52.218  1.00  0.00     0.132 C 
BRANCH  19  20
HETATM   20  S1  UNL     1      22.755  -0.478  53.335  1.00  0.00    -0.283 SA
HETATM   21  C10 UNL     1      21.766  -1.057  54.243  1.00  0.00     0.145 C 
ENDBRANCH  19  20
ENDBRANCH   4  19
TORSDOF 4
ENDMDL
MODEL 6
REMARK VINA RESULT:      -7.0      2.689      4.982
REMARK  4 active torsions:
REMARK  status: ('A' for Active; 'I' for Inactive)
REMARK    1  A    between atoms: C2_2  and  C3_3 
REMARK    2  A    between atoms: C4_5  and  C5_6 
REMARK    3  A    between atoms: C8_9  and  C9_10 
REMARK    4  A    between atoms: C9_10  and  S1_11 
ROOT
HETATM    1  C5  UNL     1      25.006   2.751  51.215  1.00  0.00     0.038 C 
HETATM    2  C6  UNL     1      25.112   2.187  52.394  1.00  0.00    -0.035 C 
HETATM    3  C7  UNL     1      26.033   2.103  53.552  1.00  0.00     0.047 C 
HETATM    4  C8  UNL     1      26.269   0.684  53.819  1.00  0.00     0.028 C 
HETATM    5  C11 UNL     1      25.071  -0.158  54.043  1.00  0.00     0.007 C 
HETATM    6  C12 UNL     1      23.962   0.268  53.517  1.00  0.00     0.048 C 
HETATM    7  N1  UNL     1      22.735  -0.480  53.673  1.00  0.00    -0.246 NA
HETATM    8  C13 UNL     1      21.845  -0.304  52.717  1.00  0.00     0.235 C 
HETATM    9  N2  UNL     1      22.125   0.578  51.660  1.00  0.00    -0.228 NA
HETATM   10  C14 UNL     1      23.153   1.298  51.484  1.00  0.00     0.120 C 
HETATM   11  N3  UNL     1      23.810   2.208  50.674  1.00  0.00    -0.343 N 
HETATM   12  C15 UNL     1      23.888   1.478  52.753  1.00  0.00     0.138 C 
HETATM   13  H13 UNL     1      23.290   2.352  49.747  1.00  0.00     0.167 HD
ENDROOT
BRANCH   1  14
HETATM   14  C4  UNL     1      25.768   3.641  50.380  1.00  0.00     0.048 C 
HETATM   15  C3  UNL     1      25.462   4.617  49.558  1.00  0.00     0.012 C 
HETATM   16 BR1  UNL     1      23.970   5.597  48.824  1.00  0.00    -0.051 Br
BRANCH  15  17
HETATM   17  C2  UNL     1      26.616   5.269  48.901  1.00  0.00     0.009 C 
HETATM   18  C1  UNL     1      27.827   4.879  48.664  1.00  0.00     0.012 C 
ENDBRANCH  15  17
ENDBRANCH   1  14
BRANCH   4  19
HETATM   19  C9  UNL     1      27.495   0.220  54.517  1.00  0.00     0.132 C 
BRANCH  19  20
HETATM   20  S1  UNL     1      28.474   0.406  53.449  1.00  0.00    -0.283 SA
HETATM   21  C10 UNL     1      29.556  -0.563  53.617  1.00  0.00     0.145 C 
ENDBRANCH  19  20
ENDBRANCH   4  19
TORSDOF 4
ENDMDL
MODEL 7
REMARK VINA RESULT:      -6.8      2.929      4.546
REMARK  4 active torsions:
REMARK  status: ('A' for Active; 'I' for Inactive)
REMARK    1  A    between atoms: C2_2  and  C3_3 
REMARK    2  A    between atoms: C4_5  and  C5_6 
REMARK    3  A    between atoms: C8_9  and  C9_10 
REMARK    4  A    between atoms: C9_10  and  S1_11 
ROOT
HETATM    1  C5  UNL     1      24.962   1.625  51.922  1.00  0.00     0.038 C 
HETATM    2  C6  UNL     1      23.854   0.960  52.149  1.00  0.00    -0.035 C 
HETATM    3  C7  UNL     1      22.464   0.834  51.652  1.00  0.00     0.047 C 
HETATM    4  C8  UNL     1      21.574   0.993  52.804  1.00  0.00     0.028 C 
HETATM    5  C11 UNL     1      21.803   0.085  53.951  1.00  0.00     0.007 C 
HETATM    6  C12 UNL     1      23.003  -0.400  54.070  1.00  0.00     0.048 C 
HETATM    7  N1  UNL     1      23.333  -1.294  55.157  1.00  0.00    -0.246 NA
HETATM    8  C13 UNL     1      24.601  -1.296  55.516  1.00  0.00     0.235 C 
HETATM    9  N2  UNL     1      25.518  -0.478  54.835  1.00  0.00    -0.228 NA
HETATM   10  C14 UNL     1      25.309   0.291  53.850  1.00  0.00     0.120 C 
HETATM   11  N3  UNL     1      25.840   1.206  52.958  1.00  0.00    -0.343 N 
HETATM   12  C15 UNL     1      24.057  -0.077  53.157  1.00  0.00     0.138 C 
HETATM   13  H13 UNL     1      26.854   1.453  53.207  1.00  0.00     0.167 HD
ENDROOT
BRANCH   1  14
HETATM   14  C4  UNL     1      25.438   2.635  51.015  1.00  0.00     0.048 C 
HETATM   15  C3  UNL     1      24.895   3.320  50.036  1.00  0.00     0.012 C 
HETATM   16 BR1  UNL     1      23.247   3.570  49.065  1.00  0.00    -0.051 Br
BRANCH  15  17
HETATM   17  C2  UNL     1      25.800   4.280  49.365  1.00  0.00     0.009 C 
HETATM   18  C1  UNL     1      27.074   4.272  49.134  1.00  0.00     0.012 C 
ENDBRANCH  15  17
ENDBRANCH   1  14
BRANCH   4  19
HETATM   19  C9  UNL     1      20.171   1.449  52.641  1.00  0.00     0.132 C 
BRANCH  19  20
HETATM   20  S1  UNL     1      19.510   0.159  52.456  1.00  0.00    -0.283 SA
HETATM   21  C10 UNL     1      18.630   0.234  51.291  1.00  0.00     0.145 C 
ENDBRANCH  19  20
ENDBRANCH   4  19
TORSDOF 4
ENDMDL
MODEL 8
REMARK VINA RESULT:      -6.6      2.746      4.964
REMARK  4 active torsions:
REMARK  status: ('A' for Active; 'I' for Inactive)
REMARK    1  A    between atoms: C2_2  and  C3_3 
REMARK    2  A    between atoms: C4_5  and  C5_6 
REMARK    3  A    between atoms: C8_9  and  C9_10 
REMARK    4  A    between atoms: C9_10  and  S1_11 
ROOT
HETATM    1  C5  UNL     1      26.302   2.734  51.126  1.00  0.00     0.038 C 
HETATM    2  C6  UNL     1      25.300   1.934  51.404  1.00  0.00    -0.035 C 
HETATM    3  C7  UNL     1      23.929   1.604  50.945  1.00  0.00     0.047 C 
HETATM    4  C8  UNL     1      23.049   1.685  52.112  1.00  0.00     0.028 C 
HETATM    5  C11 UNL     1      23.421   0.859  53.283  1.00  0.00     0.007 C 
HETATM    6  C12 UNL     1      24.677   0.545  53.390  1.00  0.00     0.048 C 
HETATM    7  N1  UNL     1      25.147  -0.256  54.499  1.00  0.00    -0.246 NA
HETATM    8  C13 UNL     1      26.410  -0.074  54.827  1.00  0.00     0.235 C 
HETATM    9  N2  UNL     1      27.195   0.834  54.096  1.00  0.00    -0.228 NA
HETATM   10  C14 UNL     1      26.864   1.531  53.090  1.00  0.00     0.120 C 
HETATM   11  N3  UNL     1      27.249   2.476  52.155  1.00  0.00    -0.343 N 
HETATM   12  C15 UNL     1      25.660   0.973  52.441  1.00  0.00     0.138 C 
HETATM   13  H13 UNL     1      28.224   2.866  52.370  1.00  0.00     0.167 HD
ENDROOT
BRANCH   1  14
HETATM   14  C4  UNL     1      26.620   3.764  50.174  1.00  0.00     0.048 C 
HETATM   15  C3  UNL     1      25.933   4.716  49.588  1.00  0.00     0.012 C 
HETATM   16 BR1  UNL     1      24.168   5.487  49.469  1.00  0.00    -0.051 Br
BRANCH  15  17
HETATM   17  C2  UNL     1      26.706   5.563  48.653  1.00  0.00     0.009 C 
HETATM   18  C1  UNL     1      27.976   5.707  48.444  1.00  0.00     0.012 C 
ENDBRANCH  15  17
ENDBRANCH   1  14
BRANCH   4  19
HETATM   19  C9  UNL     1      21.594   1.941  51.967  1.00  0.00     0.132 C 
BRANCH  19  20
HETATM   20  S1  UNL     1      21.141   0.602  51.598  1.00  0.00    -0.283 SA
HETATM   21  C10 UNL     1      19.680   0.565  51.626  1.00  0.00     0.145 C 
ENDBRANCH  19  20
ENDBRANCH   4  19
TORSDOF 4
ENDMDL
MODEL 9
REMARK VINA RESULT:      -6.6      3.514      4.995
REMARK  4 active torsions:
REMARK  status: ('A' for Active; 'I' for Inactive)
REMARK    1  A    between atoms: C2_2  and  C3_3 
REMARK    2  A    between atoms: C4_5  and  C5_6 
REMARK    3  A    between atoms: C8_9  and  C9_10 
REMARK    4  A    between atoms: C9_10  and  S1_11 
ROOT
HETATM    1  C5  UNL     1      26.038   2.650  51.078  1.00  0.00     0.038 C 
HETATM    2  C6  UNL     1      25.956   3.454  50.045  1.00  0.00    -0.035 C 
HETATM    3  C7  UNL     1      26.799   4.330  49.197  1.00  0.00     0.047 C 
HETATM    4  C8  UNL     1      26.166   5.649  49.169  1.00  0.00     0.028 C 
HETATM    5  C11 UNL     1      24.754   5.699  48.729  1.00  0.00     0.007 C 
HETATM    6  C12 UNL     1      24.064   4.609  48.882  1.00  0.00     0.048 C 
HETATM    7  N1  UNL     1      22.674   4.552  48.488  1.00  0.00    -0.246 NA
HETATM    8  C13 UNL     1      21.941   3.673  49.140  1.00  0.00     0.235 C 
HETATM    9  N2  UNL     1      22.536   2.865  50.124  1.00  0.00    -0.228 NA
HETATM   10  C14 UNL     1      23.750   2.828  50.487  1.00  0.00     0.120 C 
HETATM   11  N3  UNL     1      24.692   2.272  51.334  1.00  0.00    -0.343 N 
HETATM   12  C15 UNL     1      24.623   3.420  49.452  1.00  0.00     0.138 C 
HETATM   13  H13 UNL     1      24.235   1.631  52.063  1.00  0.00     0.167 HD
ENDROOT
BRANCH   1  14
HETATM   14  C4  UNL     1      27.048   2.163  51.979  1.00  0.00     0.048 C 
HETATM   15  C3  UNL     1      27.298   1.002  52.536  1.00  0.00     0.012 C 
HETATM   16 BR1  UNL     1      26.659  -0.815  52.656  1.00  0.00    -0.051 Br
BRANCH  15  17
HETATM   17  C2  UNL     1      28.486   0.972  53.419  1.00  0.00     0.009 C 
HETATM   18  C1  UNL     1      28.773   0.291  54.481  1.00  0.00     0.012 C 
ENDBRANCH  15  17
ENDBRANCH   1  14
BRANCH   4  19
HETATM   19  C9  UNL     1      26.950   6.878  48.888  1.00  0.00     0.132 C 
BRANCH  19  20
HETATM   20  S1  UNL     1      26.253   7.822  49.758  1.00  0.00    -0.283 SA
HETATM   21  C10 UNL     1      27.163   8.911  50.111  1.00  0.00     0.145 C 
ENDBRANCH  19  20
ENDBRANCH   4  19
TORSDOF 4
ENDMDL
