MODEL 1
REMARK VINA RESULT:      -7.8      0.000      0.000
REMARK  7 active torsions:
REMARK  status: ('A' for Active; 'I' for Inactive)
REMARK    1  A    between atoms: C2_2  and  C3_3 
REMARK    2  A    between atoms: C5_5  and  C6_6 
REMARK    3  A    between atoms: C7_7  and  C8_9 
REMARK    4  A    between atoms: C8_9  and  C9_10 
REMARK       I    between atoms: C9_10  and  N1_12 
REMARK    5  A    between atoms: N3_15  and  C11_16 
REMARK    6  A    between atoms: C14_19  and  S1_20 
REMARK    7  A    between atoms: S1_20  and  N4_21 
ROOT
HETATM    1  C9  UNL     1      24.168   2.058  52.471  1.00  0.00     0.266 C 
HETATM    2  O1  UNL     1      25.251   2.674  52.743  1.00  0.00    -0.269 OA
HETATM    3  N1  UNL     1      23.504   2.123  51.195  1.00  0.00    -0.128 N 
HETATM    4  N2  UNL     1      22.455   1.680  50.550  1.00  0.00    -0.141 NA
HETATM    5  C10 UNL     1      22.773   2.340  49.430  1.00  0.00     0.259 A 
HETATM    6  N3  UNL     1      23.854   2.797  50.094  1.00  0.00    -0.223 N 
ENDROOT
BRANCH   1   7
HETATM    7  C8  UNL     1      23.449   1.180  53.464  1.00  0.00     0.176 C 
BRANCH   7   8
HETATM    8  C7  UNL     1      23.918  -0.211  53.240  1.00  0.00     0.102 C 
HETATM    9  C6  UNL     1      25.050  -0.778  53.627  1.00  0.00     0.038 C 
HETATM   10  F1  UNL     1      22.943  -0.825  52.539  1.00  0.00    -0.210 F 
BRANCH   9  11
HETATM   11  C5  UNL     1      26.096  -0.107  54.383  1.00  0.00     0.005 C 
HETATM   12  C3  UNL     1      27.376  -0.257  54.095  1.00  0.00    -0.084 C 
HETATM   13  C4  UNL     1      28.440   0.424  54.863  1.00  0.00     0.043 C 
BRANCH  12  14
HETATM   14  C2  UNL     1      28.030  -1.057  53.047  1.00  0.00     0.029 C 
HETATM   15  C1  UNL     1      29.497  -1.283  53.400  1.00  0.00     0.010 C 
ENDBRANCH  12  14
ENDBRANCH   9  11
ENDBRANCH   7   8
ENDBRANCH   1   7
BRANCH   6  16
HETATM   16  C11 UNL     1      24.888   3.668  49.650  1.00  0.00     0.059 A 
HETATM   17  C12 UNL     1      24.570   4.971  49.320  1.00  0.00     0.033 A 
HETATM   18  C13 UNL     1      25.497   5.881  48.884  1.00  0.00     0.025 A 
HETATM   19  C14 UNL     1      26.820   5.515  48.755  1.00  0.00     0.047 A 
HETATM   20  C15 UNL     1      27.164   4.210  49.081  1.00  0.00     0.025 A 
HETATM   21  C16 UNL     1      26.214   3.318  49.516  1.00  0.00     0.033 A 
BRANCH  19  22
HETATM   22  S1  UNL     1      28.151   6.561  48.206  1.00  0.00     0.122 S 
HETATM   23  O2  UNL     1      29.409   5.745  48.033  1.00  0.00    -0.236 OA
BRANCH  22  24
HETATM   24  N4  UNL     1      28.333   7.899  49.288  1.00  0.00    -0.248 NA
HETATM   25  H16 UNL     1      28.601   7.570  50.227  1.00  0.00     0.134 HD
HETATM   26  H17 UNL     1      28.993   8.578  48.873  1.00  0.00     0.134 HD
ENDBRANCH  22  24
ENDBRANCH  19  22
ENDBRANCH   6  16
TORSDOF 7
ENDMDL
MODEL 2
REMARK VINA RESULT:      -7.7      1.697      2.120
REMARK  7 active torsions:
REMARK  status: ('A' for Active; 'I' for Inactive)
REMARK    1  A    between atoms: C2_2  and  C3_3 
REMARK    2  A    between atoms: C5_5  and  C6_6 
REMARK    3  A    between atoms: C7_7  and  C8_9 
REMARK    4  A    between atoms: C8_9  and  C9_10 
REMARK       I    between atoms: C9_10  and  N1_12 
REMARK    5  A    between atoms: N3_15  and  C11_16 
REMARK    6  A    between atoms: C14_19  and  S1_20 
REMARK    7  A    between atoms: S1_20  and  N4_21 
ROOT
HETATM    1  C9  UNL     1      25.430   2.082  51.383  1.00  0.00     0.266 C 
HETATM    2  O1  UNL     1      26.503   2.724  51.635  1.00  0.00    -0.269 OA
HETATM    3  N1  UNL     1      24.337   2.614  50.611  1.00  0.00    -0.128 N 
HETATM    4  N2  UNL     1      23.148   2.312  50.156  1.00  0.00    -0.141 NA
HETATM    5  C10 UNL     1      22.992   3.501  49.562  1.00  0.00     0.259 A 
HETATM    6  N3  UNL     1      24.217   3.813  50.032  1.00  0.00    -0.223 N 
ENDROOT
BRANCH   1   7
HETATM    7  C8  UNL     1      25.179   0.677  51.869  1.00  0.00     0.176 C 
BRANCH   7   8
HETATM    8  C7  UNL     1      25.252   0.705  53.352  1.00  0.00     0.102 C 
HETATM    9  C6  UNL     1      26.182   0.197  54.145  1.00  0.00     0.038 C 
HETATM   10  F1  UNL     1      24.155   1.369  53.768  1.00  0.00    -0.210 F 
BRANCH   9  11
HETATM   11  C5  UNL     1      27.363  -0.518  53.687  1.00  0.00     0.005 C 
HETATM   12  C3  UNL     1      28.586  -0.090  53.941  1.00  0.00    -0.084 C 
HETATM   13  C4  UNL     1      29.786  -0.816  53.475  1.00  0.00     0.043 C 
BRANCH  12  14
HETATM   14  C2  UNL     1      29.046   1.099  54.676  1.00  0.00     0.029 C 
HETATM   15  C1  UNL     1      28.999   2.326  53.769  1.00  0.00     0.010 C 
ENDBRANCH  12  14
ENDBRANCH   9  11
ENDBRANCH   7   8
ENDBRANCH   1   7
BRANCH   6  16
HETATM   16  C11 UNL     1      24.965   5.014  49.882  1.00  0.00     0.059 A 
HETATM   17  C12 UNL     1      24.612   6.121  50.628  1.00  0.00     0.033 A 
HETATM   18  C13 UNL     1      25.273   7.319  50.551  1.00  0.00     0.025 A 
HETATM   19  C14 UNL     1      26.346   7.464  49.699  1.00  0.00     0.047 A 
HETATM   20  C15 UNL     1      26.721   6.366  48.938  1.00  0.00     0.025 A 
HETATM   21  C16 UNL     1      26.041   5.176  49.035  1.00  0.00     0.033 A 
BRANCH  19  22
HETATM   22  S1  UNL     1      27.316   8.940  49.472  1.00  0.00     0.122 S 
HETATM   23  O2  UNL     1      28.660   8.587  48.884  1.00  0.00    -0.236 OA
BRANCH  22  24
HETATM   24  N4  UNL     1      27.417   9.812  50.963  1.00  0.00    -0.248 NA
HETATM   25  H16 UNL     1      26.483  10.122  51.265  1.00  0.00     0.134 HD
HETATM   26  H17 UNL     1      27.916   9.232  51.658  1.00  0.00     0.134 HD
ENDBRANCH  22  24
ENDBRANCH  19  22
ENDBRANCH   6  16
TORSDOF 7
ENDMDL
MODEL 3
REMARK VINA RESULT:      -7.6      1.886      2.376
REMARK  7 active torsions:
REMARK  status: ('A' for Active; 'I' for Inactive)
REMARK    1  A    between atoms: C2_2  and  C3_3 
REMARK    2  A    between atoms: C5_5  and  C6_6 
REMARK    3  A    between atoms: C7_7  and  C8_9 
REMARK    4  A    between atoms: C8_9  and  C9_10 
REMARK       I    between atoms: C9_10  and  N1_12 
REMARK    5  A    between atoms: N3_15  and  C11_16 
REMARK    6  A    between atoms: C14_19  and  S1_20 
REMARK    7  A    between atoms: S1_20  and  N4_21 
ROOT
HETATM    1  C9  UNL     1      25.543   2.780  50.930  1.00  0.00     0.266 C 
HETATM    2  O1  UNL     1      26.791   2.926  51.147  1.00  0.00    -0.269 OA
HETATM    3  N1  UNL     1      24.782   3.606  50.030  1.00  0.00    -0.128 N 
HETATM    4  N2  UNL     1      23.574   3.780  49.555  1.00  0.00    -0.141 NA
HETATM    5  C10 UNL     1      23.945   4.814  48.790  1.00  0.00     0.259 A 
HETATM    6  N3  UNL     1      25.188   4.635  49.279  1.00  0.00    -0.223 N 
ENDROOT
BRANCH   1   7
HETATM    7  C8  UNL     1      24.711   1.714  51.597  1.00  0.00     0.176 C 
BRANCH   7   8
HETATM    8  C7  UNL     1      25.094   1.692  53.032  1.00  0.00     0.102 C 
HETATM    9  C6  UNL     1      25.636   0.707  53.731  1.00  0.00     0.038 C 
HETATM   10  F1  UNL     1      24.777   2.908  53.522  1.00  0.00    -0.210 F 
BRANCH   9  11
HETATM   11  C5  UNL     1      25.975  -0.601  53.193  1.00  0.00     0.005 C 
HETATM   12  C3  UNL     1      27.211  -1.067  53.206  1.00  0.00    -0.084 C 
HETATM   13  C4  UNL     1      27.555  -2.397  52.660  1.00  0.00     0.043 C 
BRANCH  12  14
HETATM   14  C2  UNL     1      28.453  -0.460  53.710  1.00  0.00     0.029 C 
HETATM   15  C1  UNL     1      29.649  -1.334  53.342  1.00  0.00     0.010 C 
ENDBRANCH  12  14
ENDBRANCH   9  11
ENDBRANCH   7   8
ENDBRANCH   1   7
BRANCH   6  16
HETATM   16  C11 UNL     1      26.383   5.356  49.000  1.00  0.00     0.059 A 
HETATM   17  C12 UNL     1      26.376   6.733  49.116  1.00  0.00     0.033 A 
HETATM   18  C13 UNL     1      27.476   7.511  48.870  1.00  0.00     0.025 A 
HETATM   19  C14 UNL     1      28.665   6.928  48.485  1.00  0.00     0.047 A 
HETATM   20  C15 UNL     1      28.697   5.546  48.362  1.00  0.00     0.025 A 
HETATM   21  C16 UNL     1      27.579   4.790  48.615  1.00  0.00     0.033 A 
BRANCH  19  22
HETATM   22  S1  UNL     1      30.186   7.780  48.125  1.00  0.00     0.122 S 
HETATM   23  O2  UNL     1      31.018   6.966  47.165  1.00  0.00    -0.236 OA
BRANCH  22  24
HETATM   24  N4  UNL     1      31.006   8.168  49.599  1.00  0.00    -0.248 NA
HETATM   25  H16 UNL     1      30.628   7.611  50.379  1.00  0.00     0.134 HD
HETATM   26  H17 UNL     1      32.024   8.060  49.455  1.00  0.00     0.134 HD
ENDBRANCH  22  24
ENDBRANCH  19  22
ENDBRANCH   6  16
TORSDOF 7
ENDMDL
MODEL 4
REMARK VINA RESULT:      -7.4      1.881      2.515
REMARK  7 active torsions:
REMARK  status: ('A' for Active; 'I' for Inactive)
REMARK    1  A    between atoms: C2_2  and  C3_3 
REMARK    2  A    between atoms: C5_5  and  C6_6 
REMARK    3  A    between atoms: C7_7  and  C8_9 
REMARK    4  A    between atoms: C8_9  and  C9_10 
REMARK       I    between atoms: C9_10  and  N1_12 
REMARK    5  A    between atoms: N3_15  and  C11_16 
REMARK    6  A    between atoms: C14_19  and  S1_20 
REMARK    7  A    between atoms: S1_20  and  N4_21 
ROOT
HETATM    1  C9  UNL     1      22.400   1.644  51.139  1.00  0.00     0.266 C 
HETATM    2  O1  UNL     1      23.078   2.458  51.850  1.00  0.00    -0.269 OA
HETATM    3  N1  UNL     1      22.312   1.712  49.704  1.00  0.00    -0.128 N 
HETATM    4  N2  UNL     1      21.768   1.119  48.671  1.00  0.00    -0.141 NA
HETATM    5  C10 UNL     1      22.320   1.971  47.799  1.00  0.00     0.259 A 
HETATM    6  N3  UNL     1      22.879   2.582  48.862  1.00  0.00    -0.223 N 
ENDROOT
BRANCH   1   7
HETATM    7  C8  UNL     1      21.606   0.504  51.725  1.00  0.00     0.176 C 
BRANCH   7   8
HETATM    8  C7  UNL     1      21.781   0.559  53.199  1.00  0.00     0.102 C 
HETATM    9  C6  UNL     1      22.731   0.013  53.942  1.00  0.00     0.038 C 
HETATM   10  F1  UNL     1      20.756   1.296  53.671  1.00  0.00    -0.210 F 
BRANCH   9  11
HETATM   11  C5  UNL     1      23.834  -0.781  53.424  1.00  0.00     0.005 C 
HETATM   12  C3  UNL     1      25.051  -0.287  53.284  1.00  0.00    -0.084 C 
HETATM   13  C4  UNL     1      26.172  -1.094  52.759  1.00  0.00     0.043 C 
BRANCH  12  14
HETATM   14  C2  UNL     1      25.572   1.057  53.579  1.00  0.00     0.029 C 
HETATM   15  C1  UNL     1      26.425   1.554  52.415  1.00  0.00     0.010 C 
ENDBRANCH  12  14
ENDBRANCH   9  11
ENDBRANCH   7   8
ENDBRANCH   1   7
BRANCH   6  16
HETATM   16  C11 UNL     1      23.733   3.720  48.907  1.00  0.00     0.059 A 
HETATM   17  C12 UNL     1      25.037   3.562  49.333  1.00  0.00     0.033 A 
HETATM   18  C13 UNL     1      25.931   4.598  49.409  1.00  0.00     0.025 A 
HETATM   19  C14 UNL     1      25.546   5.872  49.053  1.00  0.00     0.047 A 
HETATM   20  C15 UNL     1      24.240   6.057  48.621  1.00  0.00     0.025 A 
HETATM   21  C16 UNL     1      23.364   5.000  48.555  1.00  0.00     0.033 A 
BRANCH  19  22
HETATM   22  S1  UNL     1      26.570   7.328  49.089  1.00  0.00     0.122 S 
HETATM   23  O2  UNL     1      27.968   6.987  48.634  1.00  0.00    -0.236 OA
BRANCH  22  24
HETATM   24  N4  UNL     1      26.507   8.053  50.659  1.00  0.00    -0.248 NA
HETATM   25  H16 UNL     1      26.270   7.349  51.372  1.00  0.00     0.134 HD
HETATM   26  H17 UNL     1      27.395   8.552  50.833  1.00  0.00     0.134 HD
ENDBRANCH  22  24
ENDBRANCH  19  22
ENDBRANCH   6  16
TORSDOF 7
ENDMDL
MODEL 5
REMARK VINA RESULT:      -7.3      3.479      6.586
REMARK  7 active torsions:
REMARK  status: ('A' for Active; 'I' for Inactive)
REMARK    1  A    between atoms: C2_2  and  C3_3 
REMARK    2  A    between atoms: C5_5  and  C6_6 
REMARK    3  A    between atoms: C7_7  and  C8_9 
REMARK    4  A    between atoms: C8_9  and  C9_10 
REMARK       I    between atoms: C9_10  and  N1_12 
REMARK    5  A    between atoms: N3_15  and  C11_16 
REMARK    6  A    between atoms: C14_19  and  S1_20 
REMARK    7  A    between atoms: S1_20  and  N4_21 
ROOT
HETATM    1  C9  UNL     1      22.866   1.910  50.491  1.00  0.00     0.266 C 
HETATM    2  O1  UNL     1      24.008   2.457  50.342  1.00  0.00    -0.269 OA
HETATM    3  N1  UNL     1      22.556   0.965  51.532  1.00  0.00    -0.128 N 
HETATM    4  N2  UNL     1      21.584   0.225  52.003  1.00  0.00    -0.141 NA
HETATM    5  C10 UNL     1      22.343  -0.273  52.987  1.00  0.00     0.259 A 
HETATM    6  N3  UNL     1      23.344   0.489  52.502  1.00  0.00    -0.223 N 
ENDROOT
BRANCH   1   7
HETATM    7  C8  UNL     1      21.695   2.192  49.584  1.00  0.00     0.176 C 
BRANCH   7   8
HETATM    8  C7  UNL     1      22.245   2.517  48.243  1.00  0.00     0.102 C 
HETATM    9  C6  UNL     1      22.460   3.705  47.701  1.00  0.00     0.038 C 
HETATM   10  F1  UNL     1      22.499   1.334  47.647  1.00  0.00    -0.210 F 
BRANCH   9  11
HETATM   11  C5  UNL     1      22.183   4.975  48.352  1.00  0.00     0.005 C 
HETATM   12  C3  UNL     1      23.147   5.766  48.789  1.00  0.00    -0.084 C 
HETATM   13  C4  UNL     1      22.866   7.057  49.451  1.00  0.00     0.043 C 
BRANCH  12  14
HETATM   14  C2  UNL     1      24.609   5.599  48.746  1.00  0.00     0.029 C 
HETATM   15  C1  UNL     1      25.195   5.756  50.146  1.00  0.00     0.010 C 
ENDBRANCH  12  14
ENDBRANCH   9  11
ENDBRANCH   7   8
ENDBRANCH   1   7
BRANCH   6  16
HETATM   16  C11 UNL     1      24.683   0.624  52.962  1.00  0.00     0.059 A 
HETATM   17  C12 UNL     1      25.520  -0.474  52.920  1.00  0.00     0.033 A 
HETATM   18  C13 UNL     1      26.824  -0.440  53.340  1.00  0.00     0.025 A 
HETATM   19  C14 UNL     1      27.361   0.728  53.836  1.00  0.00     0.047 A 
HETATM   20  C15 UNL     1      26.540   1.846  53.890  1.00  0.00     0.025 A 
HETATM   21  C16 UNL     1      25.236   1.784  53.462  1.00  0.00     0.033 A 
BRANCH  19  22
HETATM   22  S1  UNL     1      29.026   0.953  54.424  1.00  0.00     0.122 S 
HETATM   23  O2  UNL     1      29.301   2.421  54.644  1.00  0.00    -0.236 OA
BRANCH  22  24
HETATM   24  N4  UNL     1      30.140   0.192  53.341  1.00  0.00    -0.248 NA
HETATM   25  H16 UNL     1      29.642  -0.213  52.536  1.00  0.00     0.134 HD
HETATM   26  H17 UNL     1      30.877   0.871  53.086  1.00  0.00     0.134 HD
ENDBRANCH  22  24
ENDBRANCH  19  22
ENDBRANCH   6  16
TORSDOF 7
ENDMDL
MODEL 6
REMARK VINA RESULT:      -7.2      2.472      3.747
REMARK  7 active torsions:
REMARK  status: ('A' for Active; 'I' for Inactive)
REMARK    1  A    between atoms: C2_2  and  C3_3 
REMARK    2  A    between atoms: C5_5  and  C6_6 
REMARK    3  A    between atoms: C7_7  and  C8_9 
REMARK    4  A    between atoms: C8_9  and  C9_10 
REMARK       I    between atoms: C9_10  and  N1_12 
REMARK    5  A    between atoms: N3_15  and  C11_16 
REMARK    6  A    between atoms: C14_19  and  S1_20 
REMARK    7  A    between atoms: S1_20  and  N4_21 
ROOT
HETATM    1  C9  UNL     1      26.090   2.552  50.906  1.00  0.00     0.266 C 
HETATM    2  O1  UNL     1      27.213   3.109  51.141  1.00  0.00    -0.269 OA
HETATM    3  N1  UNL     1      25.034   3.161  50.140  1.00  0.00    -0.128 N 
HETATM    4  N2  UNL     1      23.820   2.949  49.699  1.00  0.00    -0.141 NA
HETATM    5  C10 UNL     1      23.752   4.143  49.097  1.00  0.00     0.259 A 
HETATM    6  N3  UNL     1      25.002   4.361  49.552  1.00  0.00    -0.223 N 
ENDROOT
BRANCH   1   7
HETATM    7  C8  UNL     1      25.735   1.174  51.406  1.00  0.00     0.176 C 
BRANCH   7   8
HETATM    8  C7  UNL     1      25.367   1.309  52.839  1.00  0.00     0.102 C 
HETATM    9  C6  UNL     1      24.162   1.375  53.382  1.00  0.00     0.038 C 
HETATM   10  F1  UNL     1      26.529   1.354  53.521  1.00  0.00    -0.210 F 
BRANCH   9  11
HETATM   11  C5  UNL     1      22.914   1.324  52.638  1.00  0.00     0.005 C 
HETATM   12  C3  UNL     1      22.159   0.241  52.605  1.00  0.00    -0.084 C 
HETATM   13  C4  UNL     1      20.889   0.190  51.849  1.00  0.00     0.043 C 
BRANCH  12  14
HETATM   14  C2  UNL     1      22.349  -1.073  53.240  1.00  0.00     0.029 C 
HETATM   15  C1  UNL     1      21.559  -1.143  54.544  1.00  0.00     0.010 C 
ENDBRANCH  12  14
ENDBRANCH   9  11
ENDBRANCH   7   8
ENDBRANCH   1   7
BRANCH   6  16
HETATM   16  C11 UNL     1      25.840   5.499  49.384  1.00  0.00     0.059 A 
HETATM   17  C12 UNL     1      25.561   6.648  50.097  1.00  0.00     0.033 A 
HETATM   18  C13 UNL     1      26.310   7.791  50.001  1.00  0.00     0.025 A 
HETATM   19  C14 UNL     1      27.403   7.834  49.163  1.00  0.00     0.047 A 
HETATM   20  C15 UNL     1      27.705   6.691  48.434  1.00  0.00     0.025 A 
HETATM   21  C16 UNL     1      26.936   5.559  48.550  1.00  0.00     0.033 A 
BRANCH  19  22
HETATM   22  S1  UNL     1      28.484   9.227  48.915  1.00  0.00     0.122 S 
HETATM   23  O2  UNL     1      29.874   8.893  49.399  1.00  0.00    -0.236 OA
BRANCH  22  24
HETATM   24  N4  UNL     1      27.808  10.636  49.658  1.00  0.00    -0.248 NA
HETATM   25  H16 UNL     1      26.894  10.861  49.240  1.00  0.00     0.134 HD
HETATM   26  H17 UNL     1      27.784  10.495  50.682  1.00  0.00     0.134 HD
ENDBRANCH  22  24
ENDBRANCH  19  22
ENDBRANCH   6  16
TORSDOF 7
ENDMDL
MODEL 7
REMARK VINA RESULT:      -7.2      1.978      2.501
REMARK  7 active torsions:
REMARK  status: ('A' for Active; 'I' for Inactive)
REMARK    1  A    between atoms: C2_2  and  C3_3 
REMARK    2  A    between atoms: C5_5  and  C6_6 
REMARK    3  A    between atoms: C7_7  and  C8_9 
REMARK    4  A    between atoms: C8_9  and  C9_10 
REMARK       I    between atoms: C9_10  and  N1_12 
REMARK    5  A    between atoms: N3_15  and  C11_16 
REMARK    6  A    between atoms: C14_19  and  S1_20 
REMARK    7  A    between atoms: S1_20  and  N4_21 
ROOT
HETATM    1  C9  UNL     1      23.530   2.570  50.765  1.00  0.00     0.266 C 
HETATM    2  O1  UNL     1      24.762   2.829  50.970  1.00  0.00    -0.269 OA
HETATM    3  N1  UNL     1      22.594   3.508  50.201  1.00  0.00    -0.128 N 
HETATM    4  N2  UNL     1      21.339   3.635  49.852  1.00  0.00    -0.141 NA
HETATM    5  C10 UNL     1      21.506   4.897  49.437  1.00  0.00     0.259 A 
HETATM    6  N3  UNL     1      22.799   4.766  49.797  1.00  0.00    -0.223 N 
ENDROOT
BRANCH   1   7
HETATM    7  C8  UNL     1      22.904   1.239  51.094  1.00  0.00     0.176 C 
BRANCH   7   8
HETATM    8  C7  UNL     1      22.818   1.146  52.574  1.00  0.00     0.102 C 
HETATM    9  C6  UNL     1      23.619   0.508  53.412  1.00  0.00     0.038 C 
HETATM   10  F1  UNL     1      21.731   1.860  52.930  1.00  0.00    -0.210 F 
BRANCH   9  11
HETATM   11  C5  UNL     1      24.790  -0.259  53.018  1.00  0.00     0.005 C 
HETATM   12  C3  UNL     1      26.017   0.203  53.174  1.00  0.00    -0.084 C 
HETATM   13  C4  UNL     1      27.208  -0.577  52.774  1.00  0.00     0.043 C 
BRANCH  12  14
HETATM   14  C2  UNL     1      26.491   1.481  53.727  1.00  0.00     0.029 C 
HETATM   15  C1  UNL     1      27.616   2.041  52.861  1.00  0.00     0.010 C 
ENDBRANCH  12  14
ENDBRANCH   9  11
ENDBRANCH   7   8
ENDBRANCH   1   7
BRANCH   6  16
HETATM   16  C11 UNL     1      23.861   5.709  49.715  1.00  0.00     0.059 A 
HETATM   17  C12 UNL     1      23.977   6.675  50.695  1.00  0.00     0.033 A 
HETATM   18  C13 UNL     1      24.965   7.623  50.701  1.00  0.00     0.025 A 
HETATM   19  C14 UNL     1      25.907   7.647  49.695  1.00  0.00     0.047 A 
HETATM   20  C15 UNL     1      25.813   6.687  48.697  1.00  0.00     0.025 A 
HETATM   21  C16 UNL     1      24.811   5.747  48.717  1.00  0.00     0.033 A 
BRANCH  19  22
HETATM   22  S1  UNL     1      27.254   8.801  49.543  1.00  0.00     0.122 S 
HETATM   23  O2  UNL     1      28.438   8.128  48.894  1.00  0.00    -0.236 OA
BRANCH  22  24
HETATM   24  N4  UNL     1      27.610   9.496  51.088  1.00  0.00    -0.248 NA
HETATM   25  H16 UNL     1      26.770   9.938  51.487  1.00  0.00     0.134 HD
HETATM   26  H17 UNL     1      28.036   8.773  51.691  1.00  0.00     0.134 HD
ENDBRANCH  22  24
ENDBRANCH  19  22
ENDBRANCH   6  16
TORSDOF 7
ENDMDL
MODEL 8
REMARK VINA RESULT:      -7.1      3.877      6.337
REMARK  7 active torsions:
REMARK  status: ('A' for Active; 'I' for Inactive)
REMARK    1  A    between atoms: C2_2  and  C3_3 
REMARK    2  A    between atoms: C5_5  and  C6_6 
REMARK    3  A    between atoms: C7_7  and  C8_9 
REMARK    4  A    between atoms: C8_9  and  C9_10 
REMARK       I    between atoms: C9_10  and  N1_12 
REMARK    5  A    between atoms: N3_15  and  C11_16 
REMARK    6  A    between atoms: C14_19  and  S1_20 
REMARK    7  A    between atoms: S1_20  and  N4_21 
ROOT
HETATM    1  C9  UNL     1      22.079   0.727  51.508  1.00  0.00     0.266 C 
HETATM    2  O1  UNL     1      23.035   1.364  50.954  1.00  0.00    -0.269 OA
HETATM    3  N1  UNL     1      22.226  -0.067  52.699  1.00  0.00    -0.128 N 
HETATM    4  N2  UNL     1      21.552  -0.824  53.529  1.00  0.00    -0.141 NA
HETATM    5  C10 UNL     1      22.626  -1.074  54.287  1.00  0.00     0.259 A 
HETATM    6  N3  UNL     1      23.320  -0.295  53.433  1.00  0.00    -0.223 N 
ENDROOT
BRANCH   1   7
HETATM    7  C8  UNL     1      20.669   0.733  50.974  1.00  0.00     0.176 C 
BRANCH   7   8
HETATM    8  C7  UNL     1      19.874   1.640  51.841  1.00  0.00     0.102 C 
HETATM    9  C6  UNL     1      19.779   2.959  51.794  1.00  0.00     0.038 C 
HETATM   10  F1  UNL     1      19.238   0.847  52.727  1.00  0.00    -0.210 F 
BRANCH   9  11
HETATM   11  C5  UNL     1      20.470   3.806  50.835  1.00  0.00     0.005 C 
HETATM   12  C3  UNL     1      21.551   4.494  51.156  1.00  0.00    -0.084 C 
HETATM   13  C4  UNL     1      22.253   5.355  50.181  1.00  0.00     0.043 C 
BRANCH  12  14
HETATM   14  C2  UNL     1      22.278   4.586  52.432  1.00  0.00     0.029 C 
HETATM   15  C1  UNL     1      23.782   4.557  52.180  1.00  0.00     0.010 C 
ENDBRANCH  12  14
ENDBRANCH   9  11
ENDBRANCH   7   8
ENDBRANCH   1   7
BRANCH   6  16
HETATM   16  C11 UNL     1      24.699   0.055  53.444  1.00  0.00     0.059 A 
HETATM   17  C12 UNL     1      25.639  -0.916  53.160  1.00  0.00     0.033 A 
HETATM   18  C13 UNL     1      26.987  -0.672  53.146  1.00  0.00     0.025 A 
HETATM   19  C14 UNL     1      27.466   0.590  53.426  1.00  0.00     0.047 A 
HETATM   20  C15 UNL     1      26.541   1.584  53.715  1.00  0.00     0.025 A 
HETATM   21  C16 UNL     1      25.194   1.311  53.721  1.00  0.00     0.033 A 
BRANCH  19  22
HETATM   22  S1  UNL     1      29.176   1.083  53.453  1.00  0.00     0.122 S 
HETATM   23  O2  UNL     1      30.060  -0.130  53.611  1.00  0.00    -0.236 OA
BRANCH  22  24
HETATM   24  N4  UNL     1      29.422   2.285  54.673  1.00  0.00    -0.248 NA
HETATM   25  H16 UNL     1      30.177   2.930  54.398  1.00  0.00     0.134 HD
HETATM   26  H17 UNL     1      28.520   2.749  54.873  1.00  0.00     0.134 HD
ENDBRANCH  22  24
ENDBRANCH  19  22
ENDBRANCH   6  16
TORSDOF 7
ENDMDL
MODEL 9
REMARK VINA RESULT:      -7.1      7.825     10.397
REMARK  7 active torsions:
REMARK  status: ('A' for Active; 'I' for Inactive)
REMARK    1  A    between atoms: C2_2  and  C3_3 
REMARK    2  A    between atoms: C5_5  and  C6_6 
REMARK    3  A    between atoms: C7_7  and  C8_9 
REMARK    4  A    between atoms: C8_9  and  C9_10 
REMARK       I    between atoms: C9_10  and  N1_12 
REMARK    5  A    between atoms: N3_15  and  C11_16 
REMARK    6  A    between atoms: C14_19  and  S1_20 
REMARK    7  A    between atoms: S1_20  and  N4_21 
ROOT
HETATM    1  C9  UNL     1      33.815   5.520  48.207  1.00  0.00     0.266 C 
HETATM    2  O1  UNL     1      32.793   5.054  48.811  1.00  0.00    -0.269 OA
HETATM    3  N1  UNL     1      33.861   6.818  47.588  1.00  0.00    -0.128 N 
HETATM    4  N2  UNL     1      34.651   7.618  46.917  1.00  0.00    -0.141 NA
HETATM    5  C10 UNL     1      33.722   8.577  46.824  1.00  0.00     0.259 A 
HETATM    6  N3  UNL     1      32.908   7.753  47.515  1.00  0.00    -0.223 N 
ENDROOT
BRANCH   1   7
HETATM    7  C8  UNL     1      35.109   4.756  48.072  1.00  0.00     0.176 C 
BRANCH   7   8
HETATM    8  C7  UNL     1      34.786   3.455  47.431  1.00  0.00     0.102 C 
HETATM    9  C6  UNL     1      34.850   3.123  46.152  1.00  0.00     0.038 C 
HETATM   10  F1  UNL     1      34.398   2.634  48.428  1.00  0.00    -0.210 F 
BRANCH   9  11
HETATM   11  C5  UNL     1      35.269   4.015  45.083  1.00  0.00     0.005 C 
HETATM   12  C3  UNL     1      34.412   4.775  44.425  1.00  0.00    -0.084 C 
HETATM   13  C4  UNL     1      34.839   5.683  43.339  1.00  0.00     0.043 C 
BRANCH  12  14
HETATM   14  C2  UNL     1      32.955   4.914  44.572  1.00  0.00     0.029 C 
HETATM   15  C1  UNL     1      32.521   6.321  44.172  1.00  0.00     0.010 C 
ENDBRANCH  12  14
ENDBRANCH   9  11
ENDBRANCH   7   8
ENDBRANCH   1   7
BRANCH   6  16
HETATM   16  C11 UNL     1      31.562   7.951  47.932  1.00  0.00     0.059 A 
HETATM   17  C12 UNL     1      31.290   8.915  48.883  1.00  0.00     0.033 A 
HETATM   18  C13 UNL     1      30.028   9.177  49.345  1.00  0.00     0.025 A 
HETATM   19  C14 UNL     1      28.951   8.464  48.862  1.00  0.00     0.047 A 
HETATM   20  C15 UNL     1      29.198   7.489  47.904  1.00  0.00     0.025 A 
HETATM   21  C16 UNL     1      30.475   7.247  47.459  1.00  0.00     0.033 A 
BRANCH  19  22
HETATM   22  S1  UNL     1      27.251   8.669  49.346  1.00  0.00     0.122 S 
HETATM   23  O2  UNL     1      27.134   9.783  50.358  1.00  0.00    -0.236 OA
BRANCH  22  24
HETATM   24  N4  UNL     1      26.610   7.160  49.898  1.00  0.00    -0.248 NA
HETATM   25  H16 UNL     1      25.966   6.764  49.199  1.00  0.00     0.134 HD
HETATM   26  H17 UNL     1      27.394   6.536  50.154  1.00  0.00     0.134 HD
ENDBRANCH  22  24
ENDBRANCH  19  22
ENDBRANCH   6  16
TORSDOF 7
ENDMDL
