MODEL 1
REMARK VINA RESULT:      -8.3      0.000      0.000
REMARK  5 active torsions:
REMARK  status: ('A' for Active; 'I' for Inactive)
REMARK    1  A    between atoms: N1_8  and  N2_9 
REMARK    2  A    between atoms: N2_9  and  C8_10 
REMARK    3  A    between atoms: N2_9  and  C16_18 
REMARK    4  A    between atoms: C8_10  and  C9_11 
REMARK    5  A    between atoms: C17_20  and  O1_21 
ROOT
HETATM    1  N2  UNL     1      26.059   0.818  53.815  1.00  0.00    -0.241 N 
ENDROOT
BRANCH   1   2
HETATM    2  N1  UNL     1      25.000   0.023  54.227  1.00  0.00    -0.170 NA
HETATM    3  C7  UNL     1      23.862  -0.085  53.678  1.00  0.00     0.084 C 
HETATM    4  C2  UNL     1      22.971  -1.024  54.382  1.00  0.00    -0.020 C 
HETATM    5  C6  UNL     1      23.318   0.559  52.487  1.00  0.00     0.034 C 
HETATM    6  C1  UNL     1      23.325  -1.610  55.711  1.00  0.00     0.052 C 
HETATM    7  C3  UNL     1      21.816  -1.415  53.911  1.00  0.00    -0.017 C 
HETATM    8  C4  UNL     1      21.298  -0.714  52.945  1.00  0.00     0.013 C 
HETATM    9  C5  UNL     1      22.082   0.233  52.163  1.00  0.00     0.003 C 
ENDBRANCH   1   2
BRANCH   1  10
HETATM   10  C8  UNL     1      26.268   2.228  53.570  1.00  0.00     0.192 C 
BRANCH  10  11
HETATM   11  C9  UNL     1      25.743   2.710  52.290  1.00  0.00    -0.038 A 
HETATM   12  C10 UNL     1      24.581   3.483  52.374  1.00  0.00     0.009 A 
HETATM   13  C11 UNL     1      23.939   4.025  51.283  1.00  0.00     0.007 A 
HETATM   14  C12 UNL     1      24.485   3.785  50.018  1.00  0.00    -0.062 A 
HETATM   15  C13 UNL     1      23.789   4.368  48.859  1.00  0.00     0.048 C 
HETATM   16  C14 UNL     1      25.642   3.019  49.900  1.00  0.00     0.007 A 
HETATM   17  C15 UNL     1      26.244   2.501  51.027  1.00  0.00     0.009 A 
ENDBRANCH  10  11
ENDBRANCH   1  10
BRANCH   1  18
HETATM   18  C16 UNL     1      27.221  -0.122  53.613  1.00  0.00     0.192 A 
HETATM   19  N3  UNL     1      27.134  -1.384  53.271  1.00  0.00    -0.198 NA
HETATM   20  C17 UNL     1      28.324  -1.968  53.178  1.00  0.00     0.171 A 
HETATM   21  C18 UNL     1      29.593  -1.317  53.420  1.00  0.00     0.111 A 
HETATM   22  S1  UNL     1      29.053   0.354  53.837  1.00  0.00    -0.058 SA
BRANCH  20  23
HETATM   23  O1  UNL     1      28.171  -3.326  52.808  1.00  0.00    -0.344 OA
HETATM   24  H16 UNL     1      28.618  -4.048  53.395  1.00  0.00     0.219 HD
ENDBRANCH  20  23
ENDBRANCH   1  18
TORSDOF 5
ENDMDL
MODEL 2
REMARK VINA RESULT:      -8.3      2.761      5.714
REMARK  5 active torsions:
REMARK  status: ('A' for Active; 'I' for Inactive)
REMARK    1  A    between atoms: N1_8  and  N2_9 
REMARK    2  A    between atoms: N2_9  and  C8_10 
REMARK    3  A    between atoms: N2_9  and  C16_18 
REMARK    4  A    between atoms: C8_10  and  C9_11 
REMARK    5  A    between atoms: C17_20  and  O1_21 
ROOT
HETATM    1  N2  UNL     1      23.663   1.216  52.488  1.00  0.00    -0.241 N 
ENDROOT
BRANCH   1   2
HETATM    2  N1  UNL     1      23.043   1.312  51.251  1.00  0.00    -0.170 NA
HETATM    3  C7  UNL     1      23.162   2.248  50.403  1.00  0.00     0.084 C 
HETATM    4  C2  UNL     1      22.357   2.028  49.188  1.00  0.00    -0.020 C 
HETATM    5  C6  UNL     1      23.953   3.473  50.447  1.00  0.00     0.034 C 
HETATM    6  C1  UNL     1      21.361   0.918  49.085  1.00  0.00     0.052 C 
HETATM    7  C3  UNL     1      22.446   2.774  48.118  1.00  0.00    -0.017 C 
HETATM    8  C4  UNL     1      23.031   3.929  48.244  1.00  0.00     0.013 C 
HETATM    9  C5  UNL     1      23.867   4.259  49.391  1.00  0.00     0.003 C 
ENDBRANCH   1   2
BRANCH   1  10
HETATM   10  C8  UNL     1      24.826   1.799  53.118  1.00  0.00     0.192 C 
BRANCH  10  11
HETATM   11  C9  UNL     1      26.011   0.938  53.132  1.00  0.00    -0.038 A 
HETATM   12  C10 UNL     1      27.026   1.331  54.009  1.00  0.00     0.009 A 
HETATM   13  C11 UNL     1      28.213   0.652  54.163  1.00  0.00     0.007 A 
HETATM   14  C12 UNL     1      28.412  -0.500  53.394  1.00  0.00    -0.062 A 
HETATM   15  C13 UNL     1      29.687  -1.217  53.567  1.00  0.00     0.048 C 
HETATM   16  C14 UNL     1      27.421  -0.919  52.511  1.00  0.00     0.007 A 
HETATM   17  C15 UNL     1      26.249  -0.200  52.397  1.00  0.00     0.009 A 
ENDBRANCH  10  11
ENDBRANCH   1  10
BRANCH   1  18
HETATM   18  C16 UNL     1      22.828   0.247  53.287  1.00  0.00     0.192 A 
HETATM   19  N3  UNL     1      23.255  -0.496  54.278  1.00  0.00    -0.198 NA
HETATM   20  C17 UNL     1      22.297  -1.265  54.787  1.00  0.00     0.171 A 
HETATM   21  C18 UNL     1      20.926  -1.302  54.326  1.00  0.00     0.111 A 
HETATM   22  S1  UNL     1      20.975  -0.092  52.988  1.00  0.00    -0.058 SA
BRANCH  20  23
HETATM   23  O1  UNL     1      22.813  -2.044  55.850  1.00  0.00    -0.344 OA
HETATM   24  H16 UNL     1      23.607  -2.674  55.654  1.00  0.00     0.219 HD
ENDBRANCH  20  23
ENDBRANCH   1  18
TORSDOF 5
ENDMDL
MODEL 3
REMARK VINA RESULT:      -8.2      2.795      5.260
REMARK  5 active torsions:
REMARK  status: ('A' for Active; 'I' for Inactive)
REMARK    1  A    between atoms: N1_8  and  N2_9 
REMARK    2  A    between atoms: N2_9  and  C8_10 
REMARK    3  A    between atoms: N2_9  and  C16_18 
REMARK    4  A    between atoms: C8_10  and  C9_11 
REMARK    5  A    between atoms: C17_20  and  O1_21 
ROOT
HETATM    1  N2  UNL     1      24.548   1.974  52.472  1.00  0.00    -0.241 N 
ENDROOT
BRANCH   1   2
HETATM    2  N1  UNL     1      23.300   1.450  52.171  1.00  0.00    -0.170 NA
HETATM    3  C7  UNL     1      22.616   0.643  52.872  1.00  0.00     0.084 C 
HETATM    4  C2  UNL     1      21.327   0.290  52.249  1.00  0.00    -0.020 C 
HETATM    5  C6  UNL     1      22.903   0.032  54.165  1.00  0.00     0.034 C 
HETATM    6  C1  UNL     1      20.985   0.691  50.850  1.00  0.00     0.052 C 
HETATM    7  C3  UNL     1      20.394  -0.392  52.858  1.00  0.00    -0.017 C 
HETATM    8  C4  UNL     1      20.736  -1.046  53.929  1.00  0.00     0.013 C 
HETATM    9  C5  UNL     1      21.977  -0.775  54.644  1.00  0.00     0.003 C 
ENDBRANCH   1   2
BRANCH   1  10
HETATM   10  C8  UNL     1      25.502   1.836  53.549  1.00  0.00     0.192 C 
BRANCH  10  11
HETATM   11  C9  UNL     1      26.432   0.714  53.404  1.00  0.00    -0.038 A 
HETATM   12  C10 UNL     1      27.642   0.847  54.093  1.00  0.00     0.009 A 
HETATM   13  C11 UNL     1      28.641  -0.100  54.079  1.00  0.00     0.007 A 
HETATM   14  C12 UNL     1      28.429  -1.263  53.330  1.00  0.00    -0.062 A 
HETATM   15  C13 UNL     1      29.505  -2.268  53.322  1.00  0.00     0.048 C 
HETATM   16  C14 UNL     1      27.235  -1.426  52.632  1.00  0.00     0.007 A 
HETATM   17  C15 UNL     1      26.267  -0.444  52.682  1.00  0.00     0.009 A 
ENDBRANCH  10  11
ENDBRANCH   1  10
BRANCH   1  18
HETATM   18  C16 UNL     1      24.894   2.887  51.323  1.00  0.00     0.192 A 
HETATM   19  N3  UNL     1      26.105   3.191  50.924  1.00  0.00    -0.198 NA
HETATM   20  C17 UNL     1      26.104   4.031  49.893  1.00  0.00     0.171 A 
HETATM   21  C18 UNL     1      24.921   4.567  49.257  1.00  0.00     0.111 A 
HETATM   22  S1  UNL     1      23.617   3.792  50.235  1.00  0.00    -0.058 SA
BRANCH  20  23
HETATM   23  O1  UNL     1      27.434   4.325  49.506  1.00  0.00    -0.344 OA
HETATM   24  H16 UNL     1      27.639   4.432  48.500  1.00  0.00     0.219 HD
ENDBRANCH  20  23
ENDBRANCH   1  18
TORSDOF 5
ENDMDL
MODEL 4
REMARK VINA RESULT:      -8.1      2.373      4.764
REMARK  5 active torsions:
REMARK  status: ('A' for Active; 'I' for Inactive)
REMARK    1  A    between atoms: N1_8  and  N2_9 
REMARK    2  A    between atoms: N2_9  and  C8_10 
REMARK    3  A    between atoms: N2_9  and  C16_18 
REMARK    4  A    between atoms: C8_10  and  C9_11 
REMARK    5  A    between atoms: C17_20  and  O1_21 
ROOT
HETATM    1  N2  UNL     1      24.769   1.145  53.234  1.00  0.00    -0.241 N 
ENDROOT
BRANCH   1   2
HETATM    2  N1  UNL     1      25.724   0.148  53.094  1.00  0.00    -0.170 NA
HETATM    3  C7  UNL     1      26.971   0.243  53.303  1.00  0.00     0.084 C 
HETATM    4  C2  UNL     1      27.693  -1.018  53.055  1.00  0.00    -0.020 C 
HETATM    5  C6  UNL     1      27.775   1.378  53.743  1.00  0.00     0.034 C 
HETATM    6  C1  UNL     1      27.032  -2.201  52.426  1.00  0.00     0.052 C 
HETATM    7  C3  UNL     1      28.951  -1.201  53.358  1.00  0.00    -0.017 C 
HETATM    8  C4  UNL     1      29.667  -0.141  53.596  1.00  0.00     0.013 C 
HETATM    9  C5  UNL     1      29.069   1.158  53.874  1.00  0.00     0.003 C 
ENDBRANCH   1   2
BRANCH   1  10
HETATM   10  C8  UNL     1      24.763   2.590  53.202  1.00  0.00     0.192 C 
BRANCH  10  11
HETATM   11  C9  UNL     1      24.513   3.173  51.882  1.00  0.00    -0.038 A 
HETATM   12  C10 UNL     1      23.636   4.262  51.864  1.00  0.00     0.009 A 
HETATM   13  C11 UNL     1      23.278   4.941  50.722  1.00  0.00     0.007 A 
HETATM   14  C12 UNL     1      23.827   4.512  49.508  1.00  0.00    -0.062 A 
HETATM   15  C13 UNL     1      23.435   5.246  48.292  1.00  0.00     0.048 C 
HETATM   16  C14 UNL     1      24.703   3.431  49.491  1.00  0.00     0.007 A 
HETATM   17  C15 UNL     1      25.028   2.786  50.666  1.00  0.00     0.009 A 
ENDBRANCH  10  11
ENDBRANCH   1  10
BRANCH   1  18
HETATM   18  C16 UNL     1      23.462   0.429  53.462  1.00  0.00     0.192 A 
HETATM   19  N3  UNL     1      23.270  -0.567  54.292  1.00  0.00    -0.198 NA
HETATM   20  C17 UNL     1      22.015  -1.008  54.273  1.00  0.00     0.171 A 
HETATM   21  C18 UNL     1      20.956  -0.473  53.446  1.00  0.00     0.111 A 
HETATM   22  S1  UNL     1      21.831   0.835  52.562  1.00  0.00    -0.058 SA
BRANCH  20  23
HETATM   23  O1  UNL     1      21.865  -2.081  55.185  1.00  0.00    -0.344 OA
HETATM   24  H16 UNL     1      22.038  -3.040  54.845  1.00  0.00     0.219 HD
ENDBRANCH  20  23
ENDBRANCH   1  18
TORSDOF 5
ENDMDL
MODEL 5
REMARK VINA RESULT:      -8.1      3.554      5.746
REMARK  5 active torsions:
REMARK  status: ('A' for Active; 'I' for Inactive)
REMARK    1  A    between atoms: N1_8  and  N2_9 
REMARK    2  A    between atoms: N2_9  and  C8_10 
REMARK    3  A    between atoms: N2_9  and  C16_18 
REMARK    4  A    between atoms: C8_10  and  C9_11 
REMARK    5  A    between atoms: C17_20  and  O1_21 
ROOT
HETATM    1  N2  UNL     1      23.556   2.070  51.286  1.00  0.00    -0.241 N 
ENDROOT
BRANCH   1   2
HETATM    2  N1  UNL     1      22.422   1.359  51.654  1.00  0.00    -0.170 NA
HETATM    3  C7  UNL     1      22.314   0.522  52.601  1.00  0.00     0.084 C 
HETATM    4  C2  UNL     1      20.959  -0.049  52.711  1.00  0.00    -0.020 C 
HETATM    5  C6  UNL     1      23.299   0.054  53.570  1.00  0.00     0.034 C 
HETATM    6  C1  UNL     1      19.908   0.196  51.677  1.00  0.00     0.052 C 
HETATM    7  C3  UNL     1      20.573  -0.804  53.705  1.00  0.00    -0.017 C 
HETATM    8  C4  UNL     1      21.501  -1.324  54.454  1.00  0.00     0.013 C 
HETATM    9  C5  UNL     1      22.874  -0.834  54.448  1.00  0.00     0.003 C 
ENDBRANCH   1   2
BRANCH   1  10
HETATM   10  C8  UNL     1      24.895   1.740  50.854  1.00  0.00     0.192 C 
BRANCH  10  11
HETATM   11  C9  UNL     1      25.830   1.431  51.938  1.00  0.00    -0.038 A 
HETATM   12  C10 UNL     1      26.435   0.172  51.866  1.00  0.00     0.009 A 
HETATM   13  C11 UNL     1      27.339  -0.300  52.790  1.00  0.00     0.007 A 
HETATM   14  C12 UNL     1      27.669   0.533  53.865  1.00  0.00    -0.062 A 
HETATM   15  C13 UNL     1      28.636   0.018  54.848  1.00  0.00     0.048 C 
HETATM   16  C14 UNL     1      27.085   1.793  53.967  1.00  0.00     0.007 A 
HETATM   17  C15 UNL     1      26.184   2.215  53.011  1.00  0.00     0.009 A 
ENDBRANCH  10  11
ENDBRANCH   1  10
BRANCH   1  18
HETATM   18  C16 UNL     1      23.177   3.525  51.394  1.00  0.00     0.192 A 
HETATM   19  N3  UNL     1      23.990   4.507  51.699  1.00  0.00    -0.198 NA
HETATM   20  C17 UNL     1      23.373   5.685  51.732  1.00  0.00     0.171 A 
HETATM   21  C18 UNL     1      21.967   5.897  51.466  1.00  0.00     0.111 A 
HETATM   22  S1  UNL     1      21.420   4.212  51.120  1.00  0.00    -0.058 SA
BRANCH  20  23
HETATM   23  O1  UNL     1      24.295   6.706  52.067  1.00  0.00    -0.344 OA
HETATM   24  H16 UNL     1      24.426   6.940  53.063  1.00  0.00     0.219 HD
ENDBRANCH  20  23
ENDBRANCH   1  18
TORSDOF 5
ENDMDL
MODEL 6
REMARK VINA RESULT:      -8.1      2.061      2.599
REMARK  5 active torsions:
REMARK  status: ('A' for Active; 'I' for Inactive)
REMARK    1  A    between atoms: N1_8  and  N2_9 
REMARK    2  A    between atoms: N2_9  and  C8_10 
REMARK    3  A    between atoms: N2_9  and  C16_18 
REMARK    4  A    between atoms: C8_10  and  C9_11 
REMARK    5  A    between atoms: C17_20  and  O1_21 
ROOT
HETATM    1  N2  UNL     1      25.070   1.005  52.472  1.00  0.00    -0.241 N 
ENDROOT
BRANCH   1   2
HETATM    2  N1  UNL     1      24.356   0.213  53.360  1.00  0.00    -0.170 NA
HETATM    3  C7  UNL     1      23.109  -0.021  53.348  1.00  0.00     0.084 C 
HETATM    4  C2  UNL     1      22.681  -0.910  54.444  1.00  0.00    -0.020 C 
HETATM    5  C6  UNL     1      22.065   0.441  52.439  1.00  0.00     0.034 C 
HETATM    6  C1  UNL     1      23.604  -1.305  55.552  1.00  0.00     0.052 C 
HETATM    7  C3  UNL     1      21.479  -1.415  54.536  1.00  0.00    -0.017 C 
HETATM    8  C4  UNL     1      20.546  -0.868  53.814  1.00  0.00     0.013 C 
HETATM    9  C5  UNL     1      20.843   0.014  52.693  1.00  0.00     0.003 C 
ENDBRANCH   1   2
BRANCH   1  10
HETATM   10  C8  UNL     1      24.805   1.643  51.202  1.00  0.00     0.192 C 
BRANCH  10  11
HETATM   11  C9  UNL     1      24.468   3.066  51.291  1.00  0.00    -0.038 A 
HETATM   12  C10 UNL     1      24.918   3.855  50.228  1.00  0.00     0.009 A 
HETATM   13  C11 UNL     1      24.700   5.210  50.132  1.00  0.00     0.007 A 
HETATM   14  C12 UNL     1      23.986   5.832  51.162  1.00  0.00    -0.062 A 
HETATM   15  C13 UNL     1      23.760   7.283  51.049  1.00  0.00     0.048 C 
HETATM   16  C14 UNL     1      23.523   5.075  52.235  1.00  0.00     0.007 A 
HETATM   17  C15 UNL     1      23.770   3.718  52.280  1.00  0.00     0.009 A 
ENDBRANCH  10  11
ENDBRANCH   1  10
BRANCH   1  18
HETATM   18  C16 UNL     1      26.434   1.180  53.090  1.00  0.00     0.192 A 
HETATM   19  N3  UNL     1      27.319   2.084  52.748  1.00  0.00    -0.198 NA
HETATM   20  C17 UNL     1      28.439   1.993  53.458  1.00  0.00     0.171 A 
HETATM   21  C18 UNL     1      28.688   1.019  54.499  1.00  0.00     0.111 A 
HETATM   22  S1  UNL     1      27.139   0.094  54.489  1.00  0.00    -0.058 SA
BRANCH  20  23
HETATM   23  O1  UNL     1      29.357   2.990  53.048  1.00  0.00    -0.344 OA
HETATM   24  H16 UNL     1      29.007   3.951  52.913  1.00  0.00     0.219 HD
ENDBRANCH  20  23
ENDBRANCH   1  18
TORSDOF 5
ENDMDL
MODEL 7
REMARK VINA RESULT:      -7.9      3.876      6.126
REMARK  5 active torsions:
REMARK  status: ('A' for Active; 'I' for Inactive)
REMARK    1  A    between atoms: N1_8  and  N2_9 
REMARK    2  A    between atoms: N2_9  and  C8_10 
REMARK    3  A    between atoms: N2_9  and  C16_18 
REMARK    4  A    between atoms: C8_10  and  C9_11 
REMARK    5  A    between atoms: C17_20  and  O1_21 
ROOT
HETATM    1  N2  UNL     1      23.432   2.992  51.907  1.00  0.00    -0.241 N 
ENDROOT
BRANCH   1   2
HETATM    2  N1  UNL     1      22.461   2.291  51.207  1.00  0.00    -0.170 NA
HETATM    3  C7  UNL     1      21.519   1.593  51.691  1.00  0.00     0.084 C 
HETATM    4  C2  UNL     1      20.664   0.984  50.656  1.00  0.00    -0.020 C 
HETATM    5  C6  UNL     1      21.162   1.312  53.078  1.00  0.00     0.034 C 
HETATM    6  C1  UNL     1      21.019   1.032  49.205  1.00  0.00     0.052 C 
HETATM    7  C3  UNL     1      19.546   0.361  50.918  1.00  0.00    -0.017 C 
HETATM    8  C4  UNL     1      19.341  -0.005  52.150  1.00  0.00     0.013 C 
HETATM    9  C5  UNL     1      20.109   0.540  53.262  1.00  0.00     0.003 C 
ENDBRANCH   1   2
BRANCH   1  10
HETATM   10  C8  UNL     1      24.308   2.721  53.025  1.00  0.00     0.192 C 
BRANCH  10  11
HETATM   11  C9  UNL     1      24.951   1.405  52.994  1.00  0.00    -0.038 A 
HETATM   12  C10 UNL     1      26.033   1.288  52.117  1.00  0.00     0.009 A 
HETATM   13  C11 UNL     1      26.763   0.133  51.947  1.00  0.00     0.007 A 
HETATM   14  C12 UNL     1      26.396  -0.988  52.700  1.00  0.00    -0.062 A 
HETATM   15  C13 UNL     1      27.183  -2.218  52.509  1.00  0.00     0.048 C 
HETATM   16  C14 UNL     1      25.323  -0.905  53.583  1.00  0.00     0.007 A 
HETATM   17  C15 UNL     1      24.626   0.278  53.713  1.00  0.00     0.009 A 
ENDBRANCH  10  11
ENDBRANCH   1  10
BRANCH   1  18
HETATM   18  C16 UNL     1      23.513   4.346  51.248  1.00  0.00     0.192 A 
HETATM   19  N3  UNL     1      23.806   5.473  51.848  1.00  0.00    -0.198 NA
HETATM   20  C17 UNL     1      23.789   6.510  51.016  1.00  0.00     0.171 A 
HETATM   21  C18 UNL     1      23.488   6.440  49.603  1.00  0.00     0.111 A 
HETATM   22  S1  UNL     1      23.181   4.673  49.399  1.00  0.00    -0.058 SA
BRANCH  20  23
HETATM   23  O1  UNL     1      24.111   7.698  51.715  1.00  0.00    -0.344 OA
HETATM   24  H16 UNL     1      24.384   8.530  51.168  1.00  0.00     0.219 HD
ENDBRANCH  20  23
ENDBRANCH   1  18
TORSDOF 5
ENDMDL
MODEL 8
REMARK VINA RESULT:      -7.8      2.034      4.836
REMARK  5 active torsions:
REMARK  status: ('A' for Active; 'I' for Inactive)
REMARK    1  A    between atoms: N1_8  and  N2_9 
REMARK    2  A    between atoms: N2_9  and  C8_10 
REMARK    3  A    between atoms: N2_9  and  C16_18 
REMARK    4  A    between atoms: C8_10  and  C9_11 
REMARK    5  A    between atoms: C17_20  and  O1_21 
ROOT
HETATM    1  N2  UNL     1      25.365   0.932  52.857  1.00  0.00    -0.241 N 
ENDROOT
BRANCH   1   2
HETATM    2  N1  UNL     1      25.344   1.929  51.892  1.00  0.00    -0.170 NA
HETATM    3  C7  UNL     1      24.728   3.036  51.945  1.00  0.00     0.084 C 
HETATM    4  C2  UNL     1      24.925   3.861  50.739  1.00  0.00    -0.020 C 
HETATM    5  C6  UNL     1      23.881   3.601  52.989  1.00  0.00     0.034 C 
HETATM    6  C1  UNL     1      25.610   3.335  49.520  1.00  0.00     0.052 C 
HETATM    7  C3  UNL     1      24.523   5.101  50.639  1.00  0.00    -0.017 C 
HETATM    8  C4  UNL     1      23.648   5.515  51.508  1.00  0.00     0.013 C 
HETATM    9  C5  UNL     1      23.378   4.796  52.746  1.00  0.00     0.003 C 
ENDBRANCH   1   2
BRANCH   1  10
HETATM   10  C8  UNL     1      24.389   0.063  53.476  1.00  0.00     0.192 C 
BRANCH  10  11
HETATM   11  C9  UNL     1      23.035   0.176  52.931  1.00  0.00    -0.038 A 
HETATM   12  C10 UNL     1      22.016   0.301  53.880  1.00  0.00     0.009 A 
HETATM   13  C11 UNL     1      20.682   0.419  53.563  1.00  0.00     0.007 A 
HETATM   14  C12 UNL     1      20.328   0.412  52.209  1.00  0.00    -0.062 A 
HETATM   15  C13 UNL     1      18.898   0.536  51.883  1.00  0.00     0.048 C 
HETATM   16  C14 UNL     1      21.319   0.288  51.238  1.00  0.00     0.007 A 
HETATM   17  C15 UNL     1      22.641   0.174  51.613  1.00  0.00     0.009 A 
ENDBRANCH  10  11
ENDBRANCH   1  10
BRANCH   1  18
HETATM   18  C16 UNL     1      26.806   0.808  53.283  1.00  0.00     0.192 A 
HETATM   19  N3  UNL     1      27.539   1.766  53.794  1.00  0.00    -0.198 NA
HETATM   20  C17 UNL     1      28.779   1.368  54.064  1.00  0.00     0.171 A 
HETATM   21  C18 UNL     1      29.295   0.038  53.833  1.00  0.00     0.111 A 
HETATM   22  S1  UNL     1      27.846  -0.784  53.139  1.00  0.00    -0.058 SA
BRANCH  20  23
HETATM   23  O1  UNL     1      29.524   2.441  54.612  1.00  0.00    -0.344 OA
HETATM   24  H16 UNL     1      30.268   2.865  54.036  1.00  0.00     0.219 HD
ENDBRANCH  20  23
ENDBRANCH   1  18
TORSDOF 5
ENDMDL
MODEL 9
REMARK VINA RESULT:      -7.8      3.792      7.046
REMARK  5 active torsions:
REMARK  status: ('A' for Active; 'I' for Inactive)
REMARK    1  A    between atoms: N1_8  and  N2_9 
REMARK    2  A    between atoms: N2_9  and  C8_10 
REMARK    3  A    between atoms: N2_9  and  C16_18 
REMARK    4  A    between atoms: C8_10  and  C9_11 
REMARK    5  A    between atoms: C17_20  and  O1_21 
ROOT
HETATM    1  N2  UNL     1      23.643   3.580  51.696  1.00  0.00    -0.241 N 
ENDROOT
BRANCH   1   2
HETATM    2  N1  UNL     1      24.237   4.665  51.067  1.00  0.00    -0.170 NA
HETATM    3  C7  UNL     1      25.257   4.652  50.313  1.00  0.00     0.084 C 
HETATM    4  C2  UNL     1      25.618   5.990  49.812  1.00  0.00    -0.020 C 
HETATM    5  C6  UNL     1      26.101   3.544  49.878  1.00  0.00     0.034 C 
HETATM    6  C1  UNL     1      24.962   7.232  50.321  1.00  0.00     0.052 C 
HETATM    7  C3  UNL     1      26.529   6.197  48.897  1.00  0.00    -0.017 C 
HETATM    8  C4  UNL     1      27.357   5.225  48.651  1.00  0.00     0.013 C 
HETATM    9  C5  UNL     1      27.102   3.855  49.078  1.00  0.00     0.003 C 
ENDBRANCH   1   2
BRANCH   1  10
HETATM   10  C8  UNL     1      23.811   2.886  52.953  1.00  0.00     0.192 C 
BRANCH  10  11
HETATM   11  C9  UNL     1      24.979   2.004  53.014  1.00  0.00    -0.038 A 
HETATM   12  C10 UNL     1      24.739   0.669  52.677  1.00  0.00     0.009 A 
HETATM   13  C11 UNL     1      25.707  -0.309  52.675  1.00  0.00     0.007 A 
HETATM   14  C12 UNL     1      27.009   0.059  53.033  1.00  0.00    -0.062 A 
HETATM   15  C13 UNL     1      28.036  -0.995  53.029  1.00  0.00     0.048 C 
HETATM   16  C14 UNL     1      27.282   1.382  53.374  1.00  0.00     0.007 A 
HETATM   17  C15 UNL     1      26.272   2.321  53.358  1.00  0.00     0.009 A 
ENDBRANCH  10  11
ENDBRANCH   1  10
BRANCH   1  18
HETATM   18  C16 UNL     1      22.574   3.095  50.749  1.00  0.00     0.192 A 
HETATM   19  N3  UNL     1      22.671   2.060  49.950  1.00  0.00    -0.198 NA
HETATM   20  C17 UNL     1      21.575   1.878  49.220  1.00  0.00     0.171 A 
HETATM   21  C18 UNL     1      20.391   2.707  49.275  1.00  0.00     0.111 A 
HETATM   22  S1  UNL     1      20.870   3.918  50.524  1.00  0.00    -0.058 SA
BRANCH  20  23
HETATM   23  O1  UNL     1      21.735   0.751  48.378  1.00  0.00    -0.344 OA
HETATM   24  H16 UNL     1      21.359   0.801  47.418  1.00  0.00     0.219 HD
ENDBRANCH  20  23
ENDBRANCH   1  18
TORSDOF 5
ENDMDL
