MODEL 1
REMARK VINA RESULT:      -6.6      0.000      0.000
REMARK  9 active torsions:
REMARK  status: ('A' for Active; 'I' for Inactive)
REMARK    1  A    between atoms: O1_2  and  C2_3 
REMARK    2  A    between atoms: C5_6  and  C6_7 
REMARK    3  A    between atoms: C6_7  and  C7_8 
REMARK    4  A    between atoms: C7_8  and  C8_9 
REMARK    5  A    between atoms: C8_9  and  C9_10 
REMARK    6  A    between atoms: C9_10  and  C10_11 
REMARK    7  A    between atoms: C10_11  and  N1_12 
REMARK    8  A    between atoms: C13_15  and  C14_16 
REMARK    9  A    between atoms: C14_16  and  N2_17 
ROOT
HETATM    1  C8  UNL     1      22.550   0.326  53.435  1.00  0.00     0.002 C 
ENDROOT
BRANCH   1   2
HETATM    2  C7  UNL     1      23.202   1.575  52.915  1.00  0.00     0.005 C 
BRANCH   2   3
HETATM    3  C6  UNL     1      22.855   1.942  51.515  1.00  0.00     0.038 C 
BRANCH   3   4
HETATM    4  C5  UNL     1      24.082   2.513  50.889  1.00  0.00    -0.058 A 
HETATM    5  C4  UNL     1      23.939   3.301  49.742  1.00  0.00     0.010 A 
HETATM    6  C3  UNL     1      25.084   3.805  49.201  1.00  0.00     0.037 A 
HETATM    7  C2  UNL     1      26.353   3.598  49.692  1.00  0.00     0.068 A 
HETATM    8  C17 UNL     1      26.501   2.811  50.837  1.00  0.00     0.037 A 
HETATM    9  C16 UNL     1      25.340   2.285  51.408  1.00  0.00     0.010 A 
BRANCH   7  10
HETATM   10  O1  UNL     1      27.504   4.112  49.136  1.00  0.00    -0.356 OA
HETATM   11  C1  UNL     1      27.525   5.397  48.587  1.00  0.00     0.210 C 
ENDBRANCH   7  10
ENDBRANCH   3   4
ENDBRANCH   2   3
ENDBRANCH   1   2
BRANCH   1  12
HETATM   12  C9  UNL     1      23.433  -0.886  53.367  1.00  0.00     0.020 C 
BRANCH  12  13
HETATM   13  C10 UNL     1      24.377  -0.779  54.549  1.00  0.00     0.128 C 
BRANCH  13  14
HETATM   14  N1  UNL     1      25.726  -0.469  54.189  1.00  0.00    -0.366 N 
HETATM   15  C11 UNL     1      26.303  -0.926  53.041  1.00  0.00     0.091 A 
HETATM   16  C12 UNL     1      27.608  -0.473  52.950  1.00  0.00     0.027 A 
HETATM   17  C13 UNL     1      27.836   0.288  54.081  1.00  0.00    -0.014 A 
HETATM   18  C15 UNL     1      26.679   0.263  54.796  1.00  0.00     0.099 A 
BRANCH  17  19
HETATM   19  C14 UNL     1      29.125   0.971  54.385  1.00  0.00     0.306 C 
BRANCH  19  20
HETATM   20  N2  UNL     1      29.076   2.384  53.994  1.00  0.00     0.082 N 
HETATM   21  H20 UNL     1      29.404   2.920  54.836  1.00  0.00     0.313 HD
HETATM   22  H21 UNL     1      28.083   2.599  53.755  1.00  0.00     0.313 HD
ENDBRANCH  19  20
ENDBRANCH  17  19
ENDBRANCH  13  14
ENDBRANCH  12  13
ENDBRANCH   1  12
TORSDOF 9
ENDMDL
MODEL 2
REMARK VINA RESULT:      -6.2      2.274      3.839
REMARK  9 active torsions:
REMARK  status: ('A' for Active; 'I' for Inactive)
REMARK    1  A    between atoms: O1_2  and  C2_3 
REMARK    2  A    between atoms: C5_6  and  C6_7 
REMARK    3  A    between atoms: C6_7  and  C7_8 
REMARK    4  A    between atoms: C7_8  and  C8_9 
REMARK    5  A    between atoms: C8_9  and  C9_10 
REMARK    6  A    between atoms: C9_10  and  C10_11 
REMARK    7  A    between atoms: C10_11  and  N1_12 
REMARK    8  A    between atoms: C13_15  and  C14_16 
REMARK    9  A    between atoms: C14_16  and  N2_17 
ROOT
HETATM    1  C8  UNL     1      26.317   1.765  51.435  1.00  0.00     0.002 C 
ENDROOT
BRANCH   1   2
HETATM    2  C7  UNL     1      26.075   3.014  50.639  1.00  0.00     0.005 C 
BRANCH   2   3
HETATM    3  C6  UNL     1      26.865   3.135  49.382  1.00  0.00     0.038 C 
BRANCH   3   4
HETATM    4  C5  UNL     1      26.905   4.580  49.020  1.00  0.00    -0.058 A 
HETATM    5  C4  UNL     1      25.757   5.351  49.235  1.00  0.00     0.010 A 
HETATM    6  C3  UNL     1      25.834   6.668  48.891  1.00  0.00     0.037 A 
HETATM    7  C2  UNL     1      26.941   7.287  48.357  1.00  0.00     0.068 A 
HETATM    8  C17 UNL     1      28.089   6.521  48.141  1.00  0.00     0.037 A 
HETATM    9  C16 UNL     1      28.032   5.169  48.486  1.00  0.00     0.010 A 
BRANCH   7  10
HETATM   10  O1  UNL     1      27.007   8.620  48.014  1.00  0.00    -0.356 OA
HETATM   11  C1  UNL     1      26.081   9.538  48.516  1.00  0.00     0.210 C 
ENDBRANCH   7  10
ENDBRANCH   3   4
ENDBRANCH   2   3
ENDBRANCH   1   2
BRANCH   1  12
HETATM   12  C9  UNL     1      25.580   1.733  52.742  1.00  0.00     0.020 C 
BRANCH  12  13
HETATM   13  C10 UNL     1      26.638   1.871  53.819  1.00  0.00     0.128 C 
BRANCH  13  14
HETATM   14  N1  UNL     1      27.703   0.922  53.714  1.00  0.00    -0.366 N 
HETATM   15  C11 UNL     1      29.016   1.284  53.775  1.00  0.00     0.091 A 
HETATM   16  C12 UNL     1      29.824   0.168  53.647  1.00  0.00     0.027 A 
HETATM   17  C13 UNL     1      28.975  -0.914  53.500  1.00  0.00    -0.014 A 
HETATM   18  C15 UNL     1      27.711  -0.413  53.547  1.00  0.00     0.099 A 
BRANCH  17  19
HETATM   19  C14 UNL     1      29.433  -2.321  53.331  1.00  0.00     0.306 C 
BRANCH  19  20
HETATM   20  N2  UNL     1      28.297  -3.216  53.083  1.00  0.00     0.082 N 
HETATM   21  H20 UNL     1      27.501  -2.822  53.644  1.00  0.00     0.313 HD
HETATM   22  H21 UNL     1      28.579  -4.164  53.415  1.00  0.00     0.313 HD
ENDBRANCH  19  20
ENDBRANCH  17  19
ENDBRANCH  13  14
ENDBRANCH  12  13
ENDBRANCH   1  12
TORSDOF 9
ENDMDL
MODEL 3
REMARK VINA RESULT:      -6.2      2.879      5.779
REMARK  9 active torsions:
REMARK  status: ('A' for Active; 'I' for Inactive)
REMARK    1  A    between atoms: O1_2  and  C2_3 
REMARK    2  A    between atoms: C5_6  and  C6_7 
REMARK    3  A    between atoms: C6_7  and  C7_8 
REMARK    4  A    between atoms: C7_8  and  C8_9 
REMARK    5  A    between atoms: C8_9  and  C9_10 
REMARK    6  A    between atoms: C9_10  and  C10_11 
REMARK    7  A    between atoms: C10_11  and  N1_12 
REMARK    8  A    between atoms: C13_15  and  C14_16 
REMARK    9  A    between atoms: C14_16  and  N2_17 
ROOT
HETATM    1  C8  UNL     1      23.219   3.459  52.375  1.00  0.00     0.002 C 
ENDROOT
BRANCH   1   2
HETATM    2  C7  UNL     1      22.971   2.021  52.727  1.00  0.00     0.005 C 
BRANCH   2   3
HETATM    3  C6  UNL     1      23.653   1.023  51.858  1.00  0.00     0.038 C 
BRANCH   3   4
HETATM    4  C5  UNL     1      24.903   0.607  52.555  1.00  0.00    -0.058 A 
HETATM    5  C4  UNL     1      26.126   0.819  51.910  1.00  0.00     0.010 A 
HETATM    6  C3  UNL     1      27.246   0.426  52.582  1.00  0.00     0.037 A 
HETATM    7  C2  UNL     1      27.262  -0.156  53.829  1.00  0.00     0.068 A 
HETATM    8  C17 UNL     1      26.042  -0.369  54.477  1.00  0.00     0.037 A 
HETATM    9  C16 UNL     1      24.883   0.027  53.807  1.00  0.00     0.010 A 
BRANCH   7  10
HETATM   10  O1  UNL     1      28.400  -0.549  54.498  1.00  0.00    -0.356 OA
HETATM   11  C1  UNL     1      29.592  -0.790  53.809  1.00  0.00     0.210 C 
ENDBRANCH   7  10
ENDBRANCH   3   4
ENDBRANCH   2   3
ENDBRANCH   1   2
BRANCH   1  12
HETATM   12  C9  UNL     1      23.316   3.708  50.898  1.00  0.00     0.020 C 
BRANCH  12  13
HETATM   13  C10 UNL     1      23.978   5.063  50.747  1.00  0.00     0.128 C 
BRANCH  13  14
HETATM   14  N1  UNL     1      25.220   5.028  50.038  1.00  0.00    -0.366 N 
HETATM   15  C11 UNL     1      25.898   3.868  49.803  1.00  0.00     0.091 A 
HETATM   16  C12 UNL     1      27.060   4.130  49.099  1.00  0.00     0.027 A 
HETATM   17  C13 UNL     1      27.095   5.497  48.897  1.00  0.00    -0.014 A 
HETATM   18  C15 UNL     1      25.970   5.995  49.477  1.00  0.00     0.099 A 
BRANCH  17  19
HETATM   19  C14 UNL     1      28.184   6.210  48.175  1.00  0.00     0.306 C 
BRANCH  19  20
HETATM   20  N2  UNL     1      29.476   6.006  48.838  1.00  0.00     0.082 N 
HETATM   21  H20 UNL     1      29.268   6.014  49.869  1.00  0.00     0.313 HD
HETATM   22  H21 UNL     1      30.092   6.799  48.556  1.00  0.00     0.313 HD
ENDBRANCH  19  20
ENDBRANCH  17  19
ENDBRANCH  13  14
ENDBRANCH  12  13
ENDBRANCH   1  12
TORSDOF 9
ENDMDL
MODEL 4
REMARK VINA RESULT:      -6.2      1.668      2.866
REMARK  9 active torsions:
REMARK  status: ('A' for Active; 'I' for Inactive)
REMARK    1  A    between atoms: O1_2  and  C2_3 
REMARK    2  A    between atoms: C5_6  and  C6_7 
REMARK    3  A    between atoms: C6_7  and  C7_8 
REMARK    4  A    between atoms: C7_8  and  C8_9 
REMARK    5  A    between atoms: C8_9  and  C9_10 
REMARK    6  A    between atoms: C9_10  and  C10_11 
REMARK    7  A    between atoms: C10_11  and  N1_12 
REMARK    8  A    between atoms: C13_15  and  C14_16 
REMARK    9  A    between atoms: C14_16  and  N2_17 
ROOT
HETATM    1  C8  UNL     1      23.625   1.886  51.815  1.00  0.00     0.002 C 
ENDROOT
BRANCH   1   2
HETATM    2  C7  UNL     1      24.012   3.270  51.377  1.00  0.00     0.005 C 
BRANCH   2   3
HETATM    3  C6  UNL     1      23.807   3.564  49.932  1.00  0.00     0.038 C 
BRANCH   3   4
HETATM    4  C5  UNL     1      25.016   4.293  49.453  1.00  0.00    -0.058 A 
HETATM    5  C4  UNL     1      26.251   3.637  49.500  1.00  0.00     0.010 A 
HETATM    6  C3  UNL     1      27.331   4.337  49.052  1.00  0.00     0.037 A 
HETATM    7  C2  UNL     1      27.298   5.624  48.564  1.00  0.00     0.068 A 
HETATM    8  C17 UNL     1      26.067   6.283  48.515  1.00  0.00     0.037 A 
HETATM    9  C16 UNL     1      24.947   5.583  48.969  1.00  0.00     0.010 A 
BRANCH   7  10
HETATM   10  O1  UNL     1      28.397   6.322  48.114  1.00  0.00    -0.356 OA
HETATM   11  C1  UNL     1      29.652   5.713  48.033  1.00  0.00     0.210 C 
ENDBRANCH   7  10
ENDBRANCH   3   4
ENDBRANCH   2   3
ENDBRANCH   1   2
BRANCH   1  12
HETATM   12  C9  UNL     1      24.790   0.948  51.940  1.00  0.00     0.020 C 
BRANCH  12  13
HETATM   13  C10 UNL     1      25.419   1.243  53.287  1.00  0.00     0.128 C 
BRANCH  13  14
HETATM   14  N1  UNL     1      26.648   0.549  53.519  1.00  0.00    -0.366 N 
HETATM   15  C11 UNL     1      27.575   0.980  54.422  1.00  0.00     0.091 A 
HETATM   16  C12 UNL     1      28.660   0.121  54.439  1.00  0.00     0.027 A 
HETATM   17  C13 UNL     1      28.387  -0.870  53.514  1.00  0.00    -0.014 A 
HETATM   18  C15 UNL     1      27.169  -0.572  52.986  1.00  0.00     0.099 A 
BRANCH  17  19
HETATM   19  C14 UNL     1      29.299  -2.008  53.211  1.00  0.00     0.306 C 
BRANCH  19  20
HETATM   20  N2  UNL     1      28.558  -3.273  53.152  1.00  0.00     0.082 N 
HETATM   21  H20 UNL     1      27.769  -3.105  52.478  1.00  0.00     0.313 HD
HETATM   22  H21 UNL     1      28.215  -3.470  54.117  1.00  0.00     0.313 HD
ENDBRANCH  19  20
ENDBRANCH  17  19
ENDBRANCH  13  14
ENDBRANCH  12  13
ENDBRANCH   1  12
TORSDOF 9
ENDMDL
MODEL 5
REMARK VINA RESULT:      -6.1      2.666      5.140
REMARK  9 active torsions:
REMARK  status: ('A' for Active; 'I' for Inactive)
REMARK    1  A    between atoms: O1_2  and  C2_3 
REMARK    2  A    between atoms: C5_6  and  C6_7 
REMARK    3  A    between atoms: C6_7  and  C7_8 
REMARK    4  A    between atoms: C7_8  and  C8_9 
REMARK    5  A    between atoms: C8_9  and  C9_10 
REMARK    6  A    between atoms: C9_10  and  C10_11 
REMARK    7  A    between atoms: C10_11  and  N1_12 
REMARK    8  A    between atoms: C13_15  and  C14_16 
REMARK    9  A    between atoms: C14_16  and  N2_17 
ROOT
HETATM    1  C8  UNL     1      23.297   2.243  50.523  1.00  0.00     0.002 C 
ENDROOT
BRANCH   1   2
HETATM    2  C7  UNL     1      24.292   2.348  51.643  1.00  0.00     0.005 C 
BRANCH   2   3
HETATM    3  C6  UNL     1      25.704   2.570  51.225  1.00  0.00     0.038 C 
BRANCH   3   4
HETATM    4  C5  UNL     1      26.556   1.658  52.039  1.00  0.00    -0.058 A 
HETATM    5  C4  UNL     1      26.203   0.306  52.111  1.00  0.00     0.010 A 
HETATM    6  C3  UNL     1      27.008  -0.496  52.865  1.00  0.00     0.037 A 
HETATM    7  C2  UNL     1      28.126  -0.080  53.550  1.00  0.00     0.068 A 
HETATM    8  C17 UNL     1      28.483   1.269  53.480  1.00  0.00     0.037 A 
HETATM    9  C16 UNL     1      27.672   2.108  52.713  1.00  0.00     0.010 A 
BRANCH   7  10
HETATM   10  O1  UNL     1      28.933  -0.899  54.309  1.00  0.00    -0.356 OA
HETATM   11  C1  UNL     1      30.125  -1.412  53.792  1.00  0.00     0.210 C 
ENDBRANCH   7  10
ENDBRANCH   3   4
ENDBRANCH   2   3
ENDBRANCH   1   2
BRANCH   1  12
HETATM   12  C9  UNL     1      21.896   1.970  50.988  1.00  0.00     0.020 C 
BRANCH  12  13
HETATM   13  C10 UNL     1      21.807   0.470  51.183  1.00  0.00     0.128 C 
BRANCH  13  14
HETATM   14  N1  UNL     1      21.908   0.054  52.548  1.00  0.00    -0.366 N 
HETATM   15  C11 UNL     1      21.023   0.456  53.505  1.00  0.00     0.091 A 
HETATM   16  C12 UNL     1      21.360  -0.096  54.728  1.00  0.00     0.027 A 
HETATM   17  C13 UNL     1      22.490  -0.862  54.512  1.00  0.00    -0.014 A 
HETATM   18  C15 UNL     1      22.783  -0.743  53.189  1.00  0.00     0.099 A 
BRANCH  17  19
HETATM   19  C14 UNL     1      23.191  -1.638  55.573  1.00  0.00     0.306 C 
BRANCH  19  20
HETATM   20  N2  UNL     1      24.628  -1.346  55.575  1.00  0.00     0.082 N 
HETATM   21  H20 UNL     1      24.828  -0.906  54.641  1.00  0.00     0.313 HD
HETATM   22  H21 UNL     1      25.124  -2.256  55.693  1.00  0.00     0.313 HD
ENDBRANCH  19  20
ENDBRANCH  17  19
ENDBRANCH  13  14
ENDBRANCH  12  13
ENDBRANCH   1  12
TORSDOF 9
ENDMDL
MODEL 6
REMARK VINA RESULT:      -6.1      2.959      6.212
REMARK  9 active torsions:
REMARK  status: ('A' for Active; 'I' for Inactive)
REMARK    1  A    between atoms: O1_2  and  C2_3 
REMARK    2  A    between atoms: C5_6  and  C6_7 
REMARK    3  A    between atoms: C6_7  and  C7_8 
REMARK    4  A    between atoms: C7_8  and  C8_9 
REMARK    5  A    between atoms: C8_9  and  C9_10 
REMARK    6  A    between atoms: C9_10  and  C10_11 
REMARK    7  A    between atoms: C10_11  and  N1_12 
REMARK    8  A    between atoms: C13_15  and  C14_16 
REMARK    9  A    between atoms: C14_16  and  N2_17 
ROOT
HETATM    1  C8  UNL     1      23.565   2.649  50.264  1.00  0.00     0.002 C 
ENDROOT
BRANCH   1   2
HETATM    2  C7  UNL     1      23.401   2.784  51.750  1.00  0.00     0.005 C 
BRANCH   2   3
HETATM    3  C6  UNL     1      23.161   1.512  52.485  1.00  0.00     0.038 C 
BRANCH   3   4
HETATM    4  C5  UNL     1      24.465   1.083  53.067  1.00  0.00    -0.058 A 
HETATM    5  C4  UNL     1      24.711  -0.287  53.209  1.00  0.00     0.010 A 
HETATM    6  C3  UNL     1      25.915  -0.638  53.744  1.00  0.00     0.037 A 
HETATM    7  C2  UNL     1      26.892   0.242  54.149  1.00  0.00     0.068 A 
HETATM    8  C17 UNL     1      26.651   1.611  54.008  1.00  0.00     0.037 A 
HETATM    9  C16 UNL     1      25.423   1.993  53.462  1.00  0.00     0.010 A 
BRANCH   7  10
HETATM   10  O1  UNL     1      28.106  -0.125  54.688  1.00  0.00    -0.356 OA
HETATM   11  C1  UNL     1      29.073  -0.767  53.911  1.00  0.00     0.210 C 
ENDBRANCH   7  10
ENDBRANCH   3   4
ENDBRANCH   2   3
ENDBRANCH   1   2
BRANCH   1  12
HETATM   12  C9  UNL     1      24.908   3.094  49.764  1.00  0.00     0.020 C 
BRANCH  12  13
HETATM   13  C10 UNL     1      24.748   4.552  49.380  1.00  0.00     0.128 C 
BRANCH  13  14
HETATM   14  N1  UNL     1      25.963   5.180  48.963  1.00  0.00    -0.366 N 
HETATM   15  C11 UNL     1      26.024   6.494  48.602  1.00  0.00     0.091 A 
HETATM   16  C12 UNL     1      27.318   6.831  48.247  1.00  0.00     0.027 A 
HETATM   17  C13 UNL     1      28.075   5.685  48.396  1.00  0.00    -0.014 A 
HETATM   18  C15 UNL     1      27.221   4.719  48.829  1.00  0.00     0.099 A 
BRANCH  17  19
HETATM   19  C14 UNL     1      29.536   5.604  48.119  1.00  0.00     0.306 C 
BRANCH  19  20
HETATM   20  N2  UNL     1      30.314   6.161  49.231  1.00  0.00     0.082 N 
HETATM   21  H20 UNL     1      31.026   5.426  49.472  1.00  0.00     0.313 HD
HETATM   22  H21 UNL     1      29.646   6.331  50.014  1.00  0.00     0.313 HD
ENDBRANCH  19  20
ENDBRANCH  17  19
ENDBRANCH  13  14
ENDBRANCH  12  13
ENDBRANCH   1  12
TORSDOF 9
ENDMDL
MODEL 7
REMARK VINA RESULT:      -6.1      1.396      1.969
REMARK  9 active torsions:
REMARK  status: ('A' for Active; 'I' for Inactive)
REMARK    1  A    between atoms: O1_2  and  C2_3 
REMARK    2  A    between atoms: C5_6  and  C6_7 
REMARK    3  A    between atoms: C6_7  and  C7_8 
REMARK    4  A    between atoms: C7_8  and  C8_9 
REMARK    5  A    between atoms: C8_9  and  C9_10 
REMARK    6  A    between atoms: C9_10  and  C10_11 
REMARK    7  A    between atoms: C10_11  and  N1_12 
REMARK    8  A    between atoms: C13_15  and  C14_16 
REMARK    9  A    between atoms: C14_16  and  N2_17 
ROOT
HETATM    1  C8  UNL     1      23.303   2.999  52.001  1.00  0.00     0.002 C 
ENDROOT
BRANCH   1   2
HETATM    2  C7  UNL     1      23.440   2.131  50.784  1.00  0.00     0.005 C 
BRANCH   2   3
HETATM    3  C6  UNL     1      23.258   2.825  49.479  1.00  0.00     0.038 C 
BRANCH   3   4
HETATM    4  C5  UNL     1      24.431   3.726  49.290  1.00  0.00    -0.058 A 
HETATM    5  C4  UNL     1      24.196   5.053  48.913  1.00  0.00     0.010 A 
HETATM    6  C3  UNL     1      25.294   5.844  48.751  1.00  0.00     0.037 A 
HETATM    7  C2  UNL     1      26.598   5.440  48.927  1.00  0.00     0.068 A 
HETATM    8  C17 UNL     1      26.837   4.116  49.303  1.00  0.00     0.037 A 
HETATM    9  C16 UNL     1      25.726   3.288  49.475  1.00  0.00     0.010 A 
BRANCH   7  10
HETATM   10  O1  UNL     1      27.700   6.250  48.760  1.00  0.00    -0.356 OA
HETATM   11  C1  UNL     1      28.864   5.764  48.158  1.00  0.00     0.210 C 
ENDBRANCH   7  10
ENDBRANCH   3   4
ENDBRANCH   2   3
ENDBRANCH   1   2
BRANCH   1  12
HETATM   12  C9  UNL     1      24.286   2.671  53.087  1.00  0.00     0.020 C 
BRANCH  12  13
HETATM   13  C10 UNL     1      24.445   1.163  53.062  1.00  0.00     0.128 C 
BRANCH  13  14
HETATM   14  N1  UNL     1      25.798   0.720  53.201  1.00  0.00    -0.366 N 
HETATM   15  C11 UNL     1      26.216  -0.505  52.772  1.00  0.00     0.091 A 
HETATM   16  C12 UNL     1      27.565  -0.667  53.032  1.00  0.00     0.027 A 
HETATM   17  C13 UNL     1      27.987   0.500  53.643  1.00  0.00    -0.014 A 
HETATM   18  C15 UNL     1      26.893   1.303  53.723  1.00  0.00     0.099 A 
BRANCH  17  19
HETATM   19  C14 UNL     1      29.384   0.752  54.094  1.00  0.00     0.306 C 
BRANCH  19  20
HETATM   20  N2  UNL     1      29.559   2.148  54.507  1.00  0.00     0.082 N 
HETATM   21  H20 UNL     1      29.493   2.142  55.556  1.00  0.00     0.313 HD
HETATM   22  H21 UNL     1      28.785   2.694  54.070  1.00  0.00     0.313 HD
ENDBRANCH  19  20
ENDBRANCH  17  19
ENDBRANCH  13  14
ENDBRANCH  12  13
ENDBRANCH   1  12
TORSDOF 9
ENDMDL
MODEL 8
REMARK VINA RESULT:      -5.9      2.410      4.025
REMARK  9 active torsions:
REMARK  status: ('A' for Active; 'I' for Inactive)
REMARK    1  A    between atoms: O1_2  and  C2_3 
REMARK    2  A    between atoms: C5_6  and  C6_7 
REMARK    3  A    between atoms: C6_7  and  C7_8 
REMARK    4  A    between atoms: C7_8  and  C8_9 
REMARK    5  A    between atoms: C8_9  and  C9_10 
REMARK    6  A    between atoms: C9_10  and  C10_11 
REMARK    7  A    between atoms: C10_11  and  N1_12 
REMARK    8  A    between atoms: C13_15  and  C14_16 
REMARK    9  A    between atoms: C14_16  and  N2_17 
ROOT
HETATM    1  C8  UNL     1      21.085   1.600  50.309  1.00  0.00     0.002 C 
ENDROOT
BRANCH   1   2
HETATM    2  C7  UNL     1      22.478   2.143  50.171  1.00  0.00     0.005 C 
BRANCH   2   3
HETATM    3  C6  UNL     1      22.886   3.128  51.210  1.00  0.00     0.038 C 
BRANCH   3   4
HETATM    4  C5  UNL     1      24.306   2.840  51.560  1.00  0.00    -0.058 A 
HETATM    5  C4  UNL     1      25.261   2.859  50.537  1.00  0.00     0.010 A 
HETATM    6  C3  UNL     1      26.548   2.592  50.898  1.00  0.00     0.037 A 
HETATM    7  C2  UNL     1      26.972   2.308  52.177  1.00  0.00     0.068 A 
HETATM    8  C17 UNL     1      26.022   2.287  53.201  1.00  0.00     0.037 A 
HETATM    9  C16 UNL     1      24.697   2.559  52.853  1.00  0.00     0.010 A 
BRANCH   7  10
HETATM   10  O1  UNL     1      28.276   2.038  52.530  1.00  0.00    -0.356 OA
HETATM   11  C1  UNL     1      28.792   2.469  53.755  1.00  0.00     0.210 C 
ENDBRANCH   7  10
ENDBRANCH   3   4
ENDBRANCH   2   3
ENDBRANCH   1   2
BRANCH   1  12
HETATM   12  C9  UNL     1      20.586   1.580  51.724  1.00  0.00     0.020 C 
BRANCH  12  13
HETATM   13  C10 UNL     1      20.489   0.117  52.111  1.00  0.00     0.128 C 
BRANCH  13  14
HETATM   14  N1  UNL     1      21.451  -0.291  53.087  1.00  0.00    -0.366 N 
HETATM   15  C11 UNL     1      21.094  -0.811  54.296  1.00  0.00     0.091 A 
HETATM   16  C12 UNL     1      22.223  -1.117  55.036  1.00  0.00     0.027 A 
HETATM   17  C13 UNL     1      23.308  -0.772  54.252  1.00  0.00    -0.014 A 
HETATM   18  C15 UNL     1      22.797  -0.281  53.091  1.00  0.00     0.099 A 
BRANCH  17  19
HETATM   19  C14 UNL     1      24.728  -0.938  54.668  1.00  0.00     0.306 C 
BRANCH  19  20
HETATM   20  N2  UNL     1      24.818  -1.442  56.042  1.00  0.00     0.082 N 
HETATM   21  H20 UNL     1      23.887  -1.889  56.240  1.00  0.00     0.313 HD
HETATM   22  H21 UNL     1      24.996  -0.618  56.658  1.00  0.00     0.313 HD
ENDBRANCH  19  20
ENDBRANCH  17  19
ENDBRANCH  13  14
ENDBRANCH  12  13
ENDBRANCH   1  12
TORSDOF 9
ENDMDL
MODEL 9
REMARK VINA RESULT:      -5.9      3.127      4.741
REMARK  9 active torsions:
REMARK  status: ('A' for Active; 'I' for Inactive)
REMARK    1  A    between atoms: O1_2  and  C2_3 
REMARK    2  A    between atoms: C5_6  and  C6_7 
REMARK    3  A    between atoms: C6_7  and  C7_8 
REMARK    4  A    between atoms: C7_8  and  C8_9 
REMARK    5  A    between atoms: C8_9  and  C9_10 
REMARK    6  A    between atoms: C9_10  and  C10_11 
REMARK    7  A    between atoms: C10_11  and  N1_12 
REMARK    8  A    between atoms: C13_15  and  C14_16 
REMARK    9  A    between atoms: C14_16  and  N2_17 
ROOT
HETATM    1  C8  UNL     1      24.357   0.710  52.672  1.00  0.00     0.002 C 
ENDROOT
BRANCH   1   2
HETATM    2  C7  UNL     1      23.418   0.000  53.606  1.00  0.00     0.005 C 
BRANCH   2   3
HETATM    3  C6  UNL     1      22.307  -0.745  52.952  1.00  0.00     0.038 C 
BRANCH   3   4
HETATM    4  C5  UNL     1      21.447   0.258  52.262  1.00  0.00    -0.058 A 
HETATM    5  C4  UNL     1      20.781   1.212  53.041  1.00  0.00     0.010 A 
HETATM    6  C3  UNL     1      20.005   2.111  52.373  1.00  0.00     0.037 A 
HETATM    7  C2  UNL     1      19.829   2.151  51.008  1.00  0.00     0.068 A 
HETATM    8  C17 UNL     1      20.492   1.201  50.226  1.00  0.00     0.037 A 
HETATM    9  C16 UNL     1      21.293   0.270  50.891  1.00  0.00     0.010 A 
BRANCH   7  10
HETATM   10  O1  UNL     1      19.042   3.065  50.344  1.00  0.00    -0.356 OA
HETATM   11  C1  UNL     1      19.210   4.438  50.544  1.00  0.00     0.210 C 
ENDBRANCH   7  10
ENDBRANCH   3   4
ENDBRANCH   2   3
ENDBRANCH   1   2
BRANCH   1  12
HETATM   12  C9  UNL     1      25.252   1.700  53.358  1.00  0.00     0.020 C 
BRANCH  12  13
HETATM   13  C10 UNL     1      26.509   1.778  52.514  1.00  0.00     0.128 C 
BRANCH  13  14
HETATM   14  N1  UNL     1      27.546   0.886  52.932  1.00  0.00    -0.366 N 
HETATM   15  C11 UNL     1      28.613   1.298  53.674  1.00  0.00     0.091 A 
HETATM   16  C12 UNL     1      29.455   0.230  53.933  1.00  0.00     0.027 A 
HETATM   17  C13 UNL     1      28.882  -0.874  53.327  1.00  0.00    -0.014 A 
HETATM   18  C15 UNL     1      27.738  -0.433  52.739  1.00  0.00     0.099 A 
BRANCH  17  19
HETATM   19  C14 UNL     1      29.465  -2.244  53.359  1.00  0.00     0.306 C 
BRANCH  19  20
HETATM   20  N2  UNL     1      28.427  -3.261  53.163  1.00  0.00     0.082 N 
HETATM   21  H20 UNL     1      28.833  -4.154  53.541  1.00  0.00     0.313 HD
HETATM   22  H21 UNL     1      28.245  -3.316  52.137  1.00  0.00     0.313 HD
ENDBRANCH  19  20
ENDBRANCH  17  19
ENDBRANCH  13  14
ENDBRANCH  12  13
ENDBRANCH   1  12
TORSDOF 9
ENDMDL
