MODEL 1
REMARK VINA RESULT:      -8.0      0.000      0.000
REMARK  7 active torsions:
REMARK  status: ('A' for Active; 'I' for Inactive)
REMARK    1  A    between atoms: C2_2  and  C3_3 
REMARK    2  A    between atoms: C5_7  and  N3_8 
REMARK    3  A    between atoms: N3_8  and  C6_9 
REMARK    4  A    between atoms: C6_9  and  C7_10 
REMARK    5  A    between atoms: C9_13  and  O1_14 
REMARK    6  A    between atoms: O1_14  and  C10_15 
REMARK    7  A    between atoms: C10_15  and  C11_16 
ROOT
HETATM    1  C7  UNL     1      25.360   3.686  50.731  1.00  0.00    -0.021 A 
HETATM    2  C8  UNL     1      26.487   3.147  50.152  1.00  0.00     0.128 A 
HETATM    3  N4  UNL     1      27.228   3.829  49.292  1.00  0.00    -0.235 NA
HETATM    4  C9  UNL     1      26.978   5.072  48.903  1.00  0.00     0.186 A 
HETATM    5  C17 UNL     1      25.855   5.656  49.458  1.00  0.00     0.087 A 
HETATM    6 CL1  UNL     1      25.241   7.290  49.154  1.00  0.00    -0.080 Cl
HETATM    7  C18 UNL     1      25.033   4.986  50.371  1.00  0.00     0.038 A 
ENDROOT
BRANCH   1   8
HETATM    8  C6  UNL     1      24.543   2.899  51.694  1.00  0.00     0.161 C 
BRANCH   8   9
HETATM    9  N3  UNL     1      25.320   2.797  52.914  1.00  0.00    -0.370 N 
HETATM   10  H7  UNL     1      25.555   3.616  53.520  1.00  0.00     0.161 HD
BRANCH   9  11
HETATM   11  C5  UNL     1      25.833   1.549  53.386  1.00  0.00     0.133 A 
HETATM   12  N2  UNL     1      24.936   0.542  53.579  1.00  0.00    -0.224 NA
HETATM   13  C4  UNL     1      25.359  -0.671  54.026  1.00  0.00     0.235 A 
HETATM   14  N1  UNL     1      26.648  -0.876  54.276  1.00  0.00    -0.246 NA
HETATM   15  C3  UNL     1      27.593   0.069  54.111  1.00  0.00     0.045 A 
HETATM   16  C19 UNL     1      27.141   1.287  53.657  1.00  0.00     0.008 A 
HETATM   17  C20 UNL     1      28.112   2.373  53.449  1.00  0.00     0.054 C 
BRANCH  15  18
HETATM   18  C2  UNL     1      29.053  -0.108  54.377  1.00  0.00     0.055 C 
HETATM   19  C1  UNL     1      29.500  -1.254  53.473  1.00  0.00     0.011 C 
ENDBRANCH  15  18
ENDBRANCH   9  11
ENDBRANCH   8   9
ENDBRANCH   1   8
BRANCH   4  20
HETATM   20  O1  UNL     1      27.568   5.972  48.053  1.00  0.00    -0.329 OA
BRANCH  20  21
HETATM   21  C10 UNL     1      28.940   6.087  47.862  1.00  0.00     0.216 C 
BRANCH  21  22
HETATM   22  C11 UNL     1      29.458   7.341  48.448  1.00  0.00    -0.031 A 
HETATM   23  C12 UNL     1      28.822   8.513  48.786  1.00  0.00     0.009 A 
HETATM   24  C13 UNL     1      29.540   9.562  49.320  1.00  0.00     0.004 A 
HETATM   25  C14 UNL     1      30.899   9.492  49.535  1.00  0.00     0.042 A 
HETATM   26  C15 UNL     1      31.546   8.328  49.202  1.00  0.00     0.117 A 
HETATM   27  F1  UNL     1      32.882   8.297  49.429  1.00  0.00    -0.206 F 
HETATM   28  C16 UNL     1      30.832   7.264  48.664  1.00  0.00     0.051 A 
ENDBRANCH  21  22
ENDBRANCH  20  21
ENDBRANCH   4  20
TORSDOF 7
ENDMDL
MODEL 2
REMARK VINA RESULT:      -8.0      3.686      8.308
REMARK  7 active torsions:
REMARK  status: ('A' for Active; 'I' for Inactive)
REMARK    1  A    between atoms: C2_2  and  C3_3 
REMARK    2  A    between atoms: C5_7  and  N3_8 
REMARK    3  A    between atoms: N3_8  and  C6_9 
REMARK    4  A    between atoms: C6_9  and  C7_10 
REMARK    5  A    between atoms: C9_13  and  O1_14 
REMARK    6  A    between atoms: O1_14  and  C10_15 
REMARK    7  A    between atoms: C10_15  and  C11_16 
ROOT
HETATM    1  C7  UNL     1      27.123   5.869  48.795  1.00  0.00    -0.021 A 
HETATM    2  C8  UNL     1      26.016   6.525  49.284  1.00  0.00     0.128 A 
HETATM    3  N4  UNL     1      25.072   5.895  49.967  1.00  0.00    -0.235 NA
HETATM    4  C9  UNL     1      25.085   4.600  50.249  1.00  0.00     0.186 A 
HETATM    5  C17 UNL     1      26.178   3.897  49.779  1.00  0.00     0.087 A 
HETATM    6 CL1  UNL     1      26.503   2.167  49.979  1.00  0.00    -0.080 Cl
HETATM    7  C18 UNL     1      27.207   4.508  49.051  1.00  0.00     0.038 A 
ENDROOT
BRANCH   1   8
HETATM    8  C6  UNL     1      28.171   6.599  48.031  1.00  0.00     0.161 C 
BRANCH   8   9
HETATM    9  N3  UNL     1      29.300   6.765  48.925  1.00  0.00    -0.370 N 
HETATM   10  H7  UNL     1      29.229   7.208  49.870  1.00  0.00     0.161 HD
BRANCH   9  11
HETATM   11  C5  UNL     1      30.616   6.328  48.577  1.00  0.00     0.133 A 
HETATM   12  N2  UNL     1      30.739   5.071  48.068  1.00  0.00    -0.224 NA
HETATM   13  C4  UNL     1      31.964   4.596  47.717  1.00  0.00     0.235 A 
HETATM   14  N1  UNL     1      33.042   5.356  47.868  1.00  0.00    -0.246 NA
HETATM   15  C3  UNL     1      33.001   6.608  48.364  1.00  0.00     0.045 A 
HETATM   16  C19 UNL     1      31.751   7.067  48.712  1.00  0.00     0.008 A 
HETATM   17  C20 UNL     1      31.621   8.426  49.262  1.00  0.00     0.054 C 
BRANCH  15  18
HETATM   18  C2  UNL     1      34.181   7.504  48.556  1.00  0.00     0.055 C 
HETATM   19  C1  UNL     1      35.397   6.582  48.592  1.00  0.00     0.011 C 
ENDBRANCH  15  18
ENDBRANCH   9  11
ENDBRANCH   8   9
ENDBRANCH   1   8
BRANCH   4  20
HETATM   20  O1  UNL     1      24.258   3.732  50.917  1.00  0.00    -0.329 OA
BRANCH  20  21
HETATM   21  C10 UNL     1      24.132   3.678  52.300  1.00  0.00     0.216 C 
BRANCH  21  22
HETATM   22  C11 UNL     1      24.340   2.304  52.803  1.00  0.00    -0.031 A 
HETATM   23  C12 UNL     1      23.546   1.182  52.728  1.00  0.00     0.009 A 
HETATM   24  C13 UNL     1      23.967  -0.003  53.293  1.00  0.00     0.004 A 
HETATM   25  C14 UNL     1      25.173  -0.121  53.947  1.00  0.00     0.042 A 
HETATM   26  C15 UNL     1      25.975   0.990  54.030  1.00  0.00     0.117 A 
HETATM   27  F1  UNL     1      27.153   0.834  54.680  1.00  0.00    -0.206 F 
HETATM   28  C16 UNL     1      25.561   2.190  53.463  1.00  0.00     0.051 A 
ENDBRANCH  21  22
ENDBRANCH  20  21
ENDBRANCH   4  20
TORSDOF 7
ENDMDL
MODEL 3
REMARK VINA RESULT:      -7.9      1.464      1.873
REMARK  7 active torsions:
REMARK  status: ('A' for Active; 'I' for Inactive)
REMARK    1  A    between atoms: C2_2  and  C3_3 
REMARK    2  A    between atoms: C5_7  and  N3_8 
REMARK    3  A    between atoms: N3_8  and  C6_9 
REMARK    4  A    between atoms: C6_9  and  C7_10 
REMARK    5  A    between atoms: C9_13  and  O1_14 
REMARK    6  A    between atoms: O1_14  and  C10_15 
REMARK    7  A    between atoms: C10_15  and  C11_16 
ROOT
HETATM    1  C7  UNL     1      24.781   3.981  50.868  1.00  0.00    -0.021 A 
HETATM    2  C8  UNL     1      23.955   5.045  50.584  1.00  0.00     0.128 A 
HETATM    3  N4  UNL     1      24.291   5.979  49.707  1.00  0.00    -0.235 NA
HETATM    4  C9  UNL     1      25.426   5.996  49.024  1.00  0.00     0.186 A 
HETATM    5  C17 UNL     1      26.290   4.946  49.274  1.00  0.00     0.087 A 
HETATM    6 CL1  UNL     1      27.877   4.668  48.537  1.00  0.00    -0.080 Cl
HETATM    7  C18 UNL     1      25.990   3.929  50.189  1.00  0.00     0.038 A 
ENDROOT
BRANCH   1   8
HETATM    8  C6  UNL     1      24.380   2.943  51.857  1.00  0.00     0.161 C 
BRANCH   8   9
HETATM    9  N3  UNL     1      25.451   2.862  52.832  1.00  0.00    -0.370 N 
HETATM   10  H7  UNL     1      25.942   3.698  53.223  1.00  0.00     0.161 HD
BRANCH   9  11
HETATM   11  C5  UNL     1      25.923   1.611  53.339  1.00  0.00     0.133 A 
HETATM   12  N2  UNL     1      24.995   0.636  53.551  1.00  0.00    -0.224 NA
HETATM   13  C4  UNL     1      25.380  -0.576  54.032  1.00  0.00     0.235 A 
HETATM   14  N1  UNL     1      26.660  -0.812  54.296  1.00  0.00    -0.246 NA
HETATM   15  C3  UNL     1      27.634   0.099  54.113  1.00  0.00     0.045 A 
HETATM   16  C19 UNL     1      27.221   1.318  53.625  1.00  0.00     0.008 A 
HETATM   17  C20 UNL     1      28.226   2.370  53.397  1.00  0.00     0.054 C 
BRANCH  15  18
HETATM   18  C2  UNL     1      29.086  -0.113  54.393  1.00  0.00     0.055 C 
HETATM   19  C1  UNL     1      29.531  -1.222  53.442  1.00  0.00     0.011 C 
ENDBRANCH  15  18
ENDBRANCH   9  11
ENDBRANCH   8   9
ENDBRANCH   1   8
BRANCH   4  20
HETATM   20  O1  UNL     1      25.998   6.821  48.088  1.00  0.00    -0.329 OA
BRANCH  20  21
HETATM   21  C10 UNL     1      26.492   8.091  48.360  1.00  0.00     0.216 C 
BRANCH  21  22
HETATM   22  C11 UNL     1      27.932   8.184  48.041  1.00  0.00    -0.031 A 
HETATM   23  C12 UNL     1      28.651   7.734  46.958  1.00  0.00     0.009 A 
HETATM   24  C13 UNL     1      30.012   7.940  46.896  1.00  0.00     0.004 A 
HETATM   25  C14 UNL     1      30.706   8.589  47.892  1.00  0.00     0.042 A 
HETATM   26  C15 UNL     1      30.002   9.043  48.980  1.00  0.00     0.117 A 
HETATM   27  F1  UNL     1      30.719   9.678  49.938  1.00  0.00    -0.206 F 
HETATM   28  C16 UNL     1      28.628   8.842  49.052  1.00  0.00     0.051 A 
ENDBRANCH  21  22
ENDBRANCH  20  21
ENDBRANCH   4  20
TORSDOF 7
ENDMDL
MODEL 4
REMARK VINA RESULT:      -7.9      3.781      8.520
REMARK  7 active torsions:
REMARK  status: ('A' for Active; 'I' for Inactive)
REMARK    1  A    between atoms: C2_2  and  C3_3 
REMARK    2  A    between atoms: C5_7  and  N3_8 
REMARK    3  A    between atoms: N3_8  and  C6_9 
REMARK    4  A    between atoms: C6_9  and  C7_10 
REMARK    5  A    between atoms: C9_13  and  O1_14 
REMARK    6  A    between atoms: O1_14  and  C10_15 
REMARK    7  A    between atoms: C10_15  and  C11_16 
ROOT
HETATM    1  C7  UNL     1      27.061   5.693  48.839  1.00  0.00    -0.021 A 
HETATM    2  C8  UNL     1      27.224   4.333  48.983  1.00  0.00     0.128 A 
HETATM    3  N4  UNL     1      26.380   3.597  49.689  1.00  0.00    -0.235 NA
HETATM    4  C9  UNL     1      25.314   4.070  50.320  1.00  0.00     0.186 A 
HETATM    5  C17 UNL     1      25.108   5.431  50.205  1.00  0.00     0.087 A 
HETATM    6 CL1  UNL     1      23.789   6.376  50.918  1.00  0.00    -0.080 Cl
HETATM    7  C18 UNL     1      25.965   6.261  49.472  1.00  0.00     0.038 A 
ENDROOT
BRANCH   1   8
HETATM    8  C6  UNL     1      28.023   6.500  48.040  1.00  0.00     0.161 C 
BRANCH   8   9
HETATM    9  N3  UNL     1      29.167   6.751  48.895  1.00  0.00    -0.370 N 
HETATM   10  H7  UNL     1      29.104   7.246  49.814  1.00  0.00     0.161 HD
BRANCH   9  11
HETATM   11  C5  UNL     1      30.488   6.335  48.538  1.00  0.00     0.133 A 
HETATM   12  N2  UNL     1      30.624   5.090  48.003  1.00  0.00    -0.224 NA
HETATM   13  C4  UNL     1      31.853   4.635  47.643  1.00  0.00     0.235 A 
HETATM   14  N1  UNL     1      32.924   5.403  47.812  1.00  0.00    -0.246 NA
HETATM   15  C3  UNL     1      32.870   6.643  48.334  1.00  0.00     0.045 A 
HETATM   16  C19 UNL     1      31.615   7.082  48.691  1.00  0.00     0.008 A 
HETATM   17  C20 UNL     1      31.471   8.429  49.268  1.00  0.00     0.054 C 
BRANCH  15  18
HETATM   18  C2  UNL     1      34.040   7.548  48.546  1.00  0.00     0.055 C 
HETATM   19  C1  UNL     1      35.264   6.635  48.581  1.00  0.00     0.011 C 
ENDBRANCH  15  18
ENDBRANCH   9  11
ENDBRANCH   8   9
ENDBRANCH   1   8
BRANCH   4  20
HETATM   20  O1  UNL     1      24.314   3.537  51.094  1.00  0.00    -0.329 OA
BRANCH  20  21
HETATM   21  C10 UNL     1      23.788   2.261  50.926  1.00  0.00     0.216 C 
BRANCH  21  22
HETATM   22  C11 UNL     1      24.403   1.301  51.867  1.00  0.00    -0.031 A 
HETATM   23  C12 UNL     1      25.711   0.911  52.036  1.00  0.00     0.009 A 
HETATM   24  C13 UNL     1      26.036  -0.025  52.995  1.00  0.00     0.004 A 
HETATM   25  C14 UNL     1      25.091  -0.604  53.811  1.00  0.00     0.042 A 
HETATM   26  C15 UNL     1      23.781  -0.225  53.652  1.00  0.00     0.117 A 
HETATM   27  F1  UNL     1      22.880  -0.816  54.473  1.00  0.00    -0.206 F 
HETATM   28  C16 UNL     1      23.442   0.719  52.689  1.00  0.00     0.051 A 
ENDBRANCH  21  22
ENDBRANCH  20  21
ENDBRANCH   4  20
TORSDOF 7
ENDMDL
MODEL 5
REMARK VINA RESULT:      -7.8      2.355      3.221
REMARK  7 active torsions:
REMARK  status: ('A' for Active; 'I' for Inactive)
REMARK    1  A    between atoms: C2_2  and  C3_3 
REMARK    2  A    between atoms: C5_7  and  N3_8 
REMARK    3  A    between atoms: N3_8  and  C6_9 
REMARK    4  A    between atoms: C6_9  and  C7_10 
REMARK    5  A    between atoms: C9_13  and  O1_14 
REMARK    6  A    between atoms: O1_14  and  C10_15 
REMARK    7  A    between atoms: C10_15  and  C11_16 
ROOT
HETATM    1  C7  UNL     1      23.001   2.889  51.946  1.00  0.00    -0.021 A 
HETATM    2  C8  UNL     1      23.446   4.028  52.578  1.00  0.00     0.128 A 
HETATM    3  N4  UNL     1      23.739   5.133  51.909  1.00  0.00    -0.235 NA
HETATM    4  C9  UNL     1      23.641   5.264  50.594  1.00  0.00     0.186 A 
HETATM    5  C17 UNL     1      23.198   4.145  49.914  1.00  0.00     0.087 A 
HETATM    6 CL1  UNL     1      22.956   3.983  48.166  1.00  0.00    -0.080 Cl
HETATM    7  C18 UNL     1      22.872   2.950  50.566  1.00  0.00     0.038 A 
ENDROOT
BRANCH   1   8
HETATM    8  C6  UNL     1      22.677   1.660  52.720  1.00  0.00     0.161 C 
BRANCH   8   9
HETATM    9  N3  UNL     1      23.641   0.651  52.324  1.00  0.00    -0.370 N 
HETATM   10  H7  UNL     1      23.597   0.134  51.416  1.00  0.00     0.161 HD
BRANCH   9  11
HETATM   11  C5  UNL     1      24.742   0.283  53.158  1.00  0.00     0.133 A 
HETATM   12  N2  UNL     1      24.458  -0.431  54.283  1.00  0.00    -0.224 NA
HETATM   13  C4  UNL     1      25.462  -0.813  55.118  1.00  0.00     0.235 A 
HETATM   14  N1  UNL     1      26.720  -0.490  54.839  1.00  0.00    -0.246 NA
HETATM   15  C3  UNL     1      27.079   0.214  53.749  1.00  0.00     0.045 A 
HETATM   16  C19 UNL     1      26.047   0.589  52.918  1.00  0.00     0.008 A 
HETATM   17  C20 UNL     1      26.356   1.361  51.704  1.00  0.00     0.054 C 
BRANCH  15  18
HETATM   18  C2  UNL     1      28.475   0.605  53.388  1.00  0.00     0.055 C 
HETATM   19  C1  UNL     1      29.319  -0.652  53.590  1.00  0.00     0.011 C 
ENDBRANCH  15  18
ENDBRANCH   9  11
ENDBRANCH   8   9
ENDBRANCH   1   8
BRANCH   4  20
HETATM   20  O1  UNL     1      23.876   6.266  49.686  1.00  0.00    -0.329 OA
BRANCH  20  21
HETATM   21  C10 UNL     1      24.960   7.135  49.741  1.00  0.00     0.216 C 
BRANCH  21  22
HETATM   22  C11 UNL     1      26.186   6.492  49.224  1.00  0.00    -0.031 A 
HETATM   23  C12 UNL     1      26.530   5.166  49.099  1.00  0.00     0.009 A 
HETATM   24  C13 UNL     1      27.760   4.815  48.586  1.00  0.00     0.004 A 
HETATM   25  C14 UNL     1      28.686   5.751  48.183  1.00  0.00     0.042 A 
HETATM   26  C15 UNL     1      28.357   7.078  48.303  1.00  0.00     0.117 A 
HETATM   27  F1  UNL     1      29.293   7.969  47.897  1.00  0.00    -0.206 F 
HETATM   28  C16 UNL     1      27.118   7.443  48.819  1.00  0.00     0.051 A 
ENDBRANCH  21  22
ENDBRANCH  20  21
ENDBRANCH   4  20
TORSDOF 7
ENDMDL
MODEL 6
REMARK VINA RESULT:      -7.7      3.563      8.554
REMARK  7 active torsions:
REMARK  status: ('A' for Active; 'I' for Inactive)
REMARK    1  A    between atoms: C2_2  and  C3_3 
REMARK    2  A    between atoms: C5_7  and  N3_8 
REMARK    3  A    between atoms: N3_8  and  C6_9 
REMARK    4  A    between atoms: C6_9  and  C7_10 
REMARK    5  A    between atoms: C9_13  and  O1_14 
REMARK    6  A    between atoms: O1_14  and  C10_15 
REMARK    7  A    between atoms: C10_15  and  C11_16 
ROOT
HETATM    1  C7  UNL     1      25.740   4.505  49.835  1.00  0.00    -0.021 A 
HETATM    2  C8  UNL     1      26.728   3.546  49.846  1.00  0.00     0.128 A 
HETATM    3  N4  UNL     1      26.690   2.508  50.668  1.00  0.00    -0.235 NA
HETATM    4  C9  UNL     1      25.726   2.281  51.549  1.00  0.00     0.186 A 
HETATM    5  C17 UNL     1      24.709   3.218  51.576  1.00  0.00     0.087 A 
HETATM    6 CL1  UNL     1      23.281   3.214  52.624  1.00  0.00    -0.080 Cl
HETATM    7  C18 UNL     1      24.694   4.334  50.731  1.00  0.00     0.038 A 
ENDROOT
BRANCH   1   8
HETATM    8  C6  UNL     1      25.805   5.661  48.901  1.00  0.00     0.161 C 
BRANCH   8   9
HETATM    9  N3  UNL     1      26.813   6.563  49.424  1.00  0.00    -0.370 N 
HETATM   10  H7  UNL     1      27.019   6.670  50.444  1.00  0.00     0.161 HD
BRANCH   9  11
HETATM   11  C5  UNL     1      27.611   7.388  48.572  1.00  0.00     0.133 A 
HETATM   12  N2  UNL     1      27.168   8.655  48.340  1.00  0.00    -0.224 NA
HETATM   13  C4  UNL     1      27.883   9.489  47.539  1.00  0.00     0.235 A 
HETATM   14  N1  UNL     1      29.014   9.071  46.980  1.00  0.00    -0.246 NA
HETATM   15  C3  UNL     1      29.515   7.834  47.161  1.00  0.00     0.045 A 
HETATM   16  C19 UNL     1      28.775   7.008  47.977  1.00  0.00     0.008 A 
HETATM   17  C20 UNL     1      29.256   5.639  48.226  1.00  0.00     0.054 C 
BRANCH  15  18
HETATM   18  C2  UNL     1      30.779   7.313  46.559  1.00  0.00     0.055 C 
HETATM   19  C1  UNL     1      31.862   8.320  46.940  1.00  0.00     0.011 C 
ENDBRANCH  15  18
ENDBRANCH   9  11
ENDBRANCH   8   9
ENDBRANCH   1   8
BRANCH   4  20
HETATM   20  O1  UNL     1      25.459   1.315  52.486  1.00  0.00    -0.329 OA
BRANCH  20  21
HETATM   21  C10 UNL     1      26.079   1.234  53.727  1.00  0.00     0.216 C 
BRANCH  21  22
HETATM   22  C11 UNL     1      27.332   0.455  53.648  1.00  0.00    -0.031 A 
HETATM   23  C12 UNL     1      28.632   0.799  53.938  1.00  0.00     0.009 A 
HETATM   24  C13 UNL     1      29.646  -0.120  53.771  1.00  0.00     0.004 A 
HETATM   25  C14 UNL     1      29.415  -1.399  53.316  1.00  0.00     0.042 A 
HETATM   26  C15 UNL     1      28.122  -1.756  53.023  1.00  0.00     0.117 A 
HETATM   27  F1  UNL     1      27.935  -3.023  52.579  1.00  0.00    -0.206 F 
HETATM   28  C16 UNL     1      27.092  -0.837  53.188  1.00  0.00     0.051 A 
ENDBRANCH  21  22
ENDBRANCH  20  21
ENDBRANCH   4  20
TORSDOF 7
ENDMDL
MODEL 7
REMARK VINA RESULT:      -7.6      2.326      3.501
REMARK  7 active torsions:
REMARK  status: ('A' for Active; 'I' for Inactive)
REMARK    1  A    between atoms: C2_2  and  C3_3 
REMARK    2  A    between atoms: C5_7  and  N3_8 
REMARK    3  A    between atoms: N3_8  and  C6_9 
REMARK    4  A    between atoms: C6_9  and  C7_10 
REMARK    5  A    between atoms: C9_13  and  O1_14 
REMARK    6  A    between atoms: O1_14  and  C10_15 
REMARK    7  A    between atoms: C10_15  and  C11_16 
ROOT
HETATM    1  C7  UNL     1      26.535   4.415  49.486  1.00  0.00    -0.021 A 
HETATM    2  C8  UNL     1      25.593   5.294  49.972  1.00  0.00     0.128 A 
HETATM    3  N4  UNL     1      25.627   6.587  49.688  1.00  0.00    -0.235 NA
HETATM    4  C9  UNL     1      26.545   7.166  48.926  1.00  0.00     0.186 A 
HETATM    5  C17 UNL     1      27.514   6.323  48.414  1.00  0.00     0.087 A 
HETATM    6 CL1  UNL     1      28.873   6.769  47.369  1.00  0.00    -0.080 Cl
HETATM    7  C18 UNL     1      27.529   4.948  48.680  1.00  0.00     0.038 A 
ENDROOT
BRANCH   1   8
HETATM    8  C6  UNL     1      26.475   2.966  49.820  1.00  0.00     0.161 C 
BRANCH   8   9
HETATM    9  N3  UNL     1      26.323   2.876  51.259  1.00  0.00    -0.370 N 
HETATM   10  H7  UNL     1      26.510   3.672  51.912  1.00  0.00     0.161 HD
BRANCH   9  11
HETATM   11  C5  UNL     1      25.900   1.672  51.905  1.00  0.00     0.133 A 
HETATM   12  N2  UNL     1      26.832   0.691  52.063  1.00  0.00    -0.224 NA
HETATM   13  C4  UNL     1      26.494  -0.478  52.670  1.00  0.00     0.235 A 
HETATM   14  N1  UNL     1      25.254  -0.665  53.110  1.00  0.00    -0.246 NA
HETATM   15  C3  UNL     1      24.279   0.255  52.990  1.00  0.00     0.045 A 
HETATM   16  C19 UNL     1      24.645   1.430  52.373  1.00  0.00     0.008 A 
HETATM   17  C20 UNL     1      23.636   2.489  52.204  1.00  0.00     0.054 C 
BRANCH  15  18
HETATM   18  C2  UNL     1      22.871   0.096  53.466  1.00  0.00     0.055 C 
HETATM   19  C1  UNL     1      22.930  -0.942  54.584  1.00  0.00     0.011 C 
ENDBRANCH  15  18
ENDBRANCH   9  11
ENDBRANCH   8   9
ENDBRANCH   1   8
BRANCH   4  20
HETATM   20  O1  UNL     1      26.798   8.442  48.492  1.00  0.00    -0.329 OA
BRANCH  20  21
HETATM   21  C10 UNL     1      26.951   9.540  49.331  1.00  0.00     0.216 C 
BRANCH  21  22
HETATM   22  C11 UNL     1      28.317  10.098  49.238  1.00  0.00    -0.031 A 
HETATM   23  C12 UNL     1      29.545   9.530  49.486  1.00  0.00     0.009 A 
HETATM   24  C13 UNL     1      30.695  10.275  49.332  1.00  0.00     0.004 A 
HETATM   25  C14 UNL     1      30.673  11.593  48.934  1.00  0.00     0.042 A 
HETATM   26  C15 UNL     1      29.454  12.172  48.685  1.00  0.00     0.117 A 
HETATM   27  F1  UNL     1      29.473  13.469  48.295  1.00  0.00    -0.206 F 
HETATM   28  C16 UNL     1      28.288  11.430  48.836  1.00  0.00     0.051 A 
ENDBRANCH  21  22
ENDBRANCH  20  21
ENDBRANCH   4  20
TORSDOF 7
ENDMDL
MODEL 8
REMARK VINA RESULT:      -7.5      2.988      8.576
REMARK  7 active torsions:
REMARK  status: ('A' for Active; 'I' for Inactive)
REMARK    1  A    between atoms: C2_2  and  C3_3 
REMARK    2  A    between atoms: C5_7  and  N3_8 
REMARK    3  A    between atoms: N3_8  and  C6_9 
REMARK    4  A    between atoms: C6_9  and  C7_10 
REMARK    5  A    between atoms: C9_13  and  O1_14 
REMARK    6  A    between atoms: O1_14  and  C10_15 
REMARK    7  A    between atoms: C10_15  and  C11_16 
ROOT
HETATM    1  C7  UNL     1      26.615   5.638  48.998  1.00  0.00    -0.021 A 
HETATM    2  C8  UNL     1      27.310   4.450  49.033  1.00  0.00     0.128 A 
HETATM    3  N4  UNL     1      26.871   3.401  49.712  1.00  0.00    -0.235 NA
HETATM    4  C9  UNL     1      25.747   3.375  50.413  1.00  0.00     0.186 A 
HETATM    5  C17 UNL     1      25.012   4.546  50.408  1.00  0.00     0.087 A 
HETATM    6 CL1  UNL     1      23.475   4.847  51.235  1.00  0.00    -0.080 Cl
HETATM    7  C18 UNL     1      25.425   5.688  49.709  1.00  0.00     0.038 A 
ENDROOT
BRANCH   1   8
HETATM    8  C6  UNL     1      27.129   6.804  48.228  1.00  0.00     0.161 C 
BRANCH   8   9
HETATM    9  N3  UNL     1      28.057   7.500  49.096  1.00  0.00    -0.370 N 
HETATM   10  H7  UNL     1      27.878   7.677  50.111  1.00  0.00     0.161 HD
BRANCH   9  11
HETATM   11  C5  UNL     1      29.308   8.006  48.623  1.00  0.00     0.133 A 
HETATM   12  N2  UNL     1      30.204   7.098  48.144  1.00  0.00    -0.224 NA
HETATM   13  C4  UNL     1      31.412   7.515  47.678  1.00  0.00     0.235 A 
HETATM   14  N1  UNL     1      31.720   8.807  47.688  1.00  0.00    -0.246 NA
HETATM   15  C3  UNL     1      30.889   9.763  48.145  1.00  0.00     0.045 A 
HETATM   16  C19 UNL     1      29.672   9.317  48.611  1.00  0.00     0.008 A 
HETATM   17  C20 UNL     1      28.706  10.300  49.127  1.00  0.00     0.054 C 
BRANCH  15  18
HETATM   18  C2  UNL     1      31.184  11.227  48.179  1.00  0.00     0.055 C 
HETATM   19  C1  UNL     1      32.457  11.409  47.355  1.00  0.00     0.011 C 
ENDBRANCH  15  18
ENDBRANCH   9  11
ENDBRANCH   8   9
ENDBRANCH   1   8
BRANCH   4  20
HETATM   20  O1  UNL     1      25.088   2.447  51.180  1.00  0.00    -0.329 OA
BRANCH  20  21
HETATM   21  C10 UNL     1      25.292   2.270  52.543  1.00  0.00     0.216 C 
BRANCH  21  22
HETATM   22  C11 UNL     1      26.392   1.317  52.801  1.00  0.00    -0.031 A 
HETATM   23  C12 UNL     1      26.524  -0.018  52.496  1.00  0.00     0.009 A 
HETATM   24  C13 UNL     1      27.665  -0.701  52.857  1.00  0.00     0.004 A 
HETATM   25  C14 UNL     1      28.706  -0.097  53.527  1.00  0.00     0.042 A 
HETATM   26  C15 UNL     1      28.588   1.235  53.838  1.00  0.00     0.117 A 
HETATM   27  F1  UNL     1      29.632   1.793  54.496  1.00  0.00    -0.206 F 
HETATM   28  C16 UNL     1      27.441   1.934  53.478  1.00  0.00     0.051 A 
ENDBRANCH  21  22
ENDBRANCH  20  21
ENDBRANCH   4  20
TORSDOF 7
ENDMDL
MODEL 9
REMARK VINA RESULT:      -7.4      3.511      8.185
REMARK  7 active torsions:
REMARK  status: ('A' for Active; 'I' for Inactive)
REMARK    1  A    between atoms: C2_2  and  C3_3 
REMARK    2  A    between atoms: C5_7  and  N3_8 
REMARK    3  A    between atoms: N3_8  and  C6_9 
REMARK    4  A    between atoms: C6_9  and  C7_10 
REMARK    5  A    between atoms: C9_13  and  O1_14 
REMARK    6  A    between atoms: O1_14  and  C10_15 
REMARK    7  A    between atoms: C10_15  and  C11_16 
ROOT
HETATM    1  C7  UNL     1      25.531   6.685  50.022  1.00  0.00    -0.021 A 
HETATM    2  C8  UNL     1      24.454   6.646  50.880  1.00  0.00     0.128 A 
HETATM    3  N4  UNL     1      23.960   5.504  51.334  1.00  0.00    -0.235 NA
HETATM    4  C9  UNL     1      24.431   4.304  51.024  1.00  0.00     0.186 A 
HETATM    5  C17 UNL     1      25.514   4.291  50.165  1.00  0.00     0.087 A 
HETATM    6 CL1  UNL     1      26.378   2.870  49.556  1.00  0.00    -0.080 Cl
HETATM    7  C18 UNL     1      26.080   5.466  49.653  1.00  0.00     0.038 A 
ENDROOT
BRANCH   1   8
HETATM    8  C6  UNL     1      26.069   7.981  49.526  1.00  0.00     0.161 C 
BRANCH   8   9
HETATM    9  N3  UNL     1      27.097   7.661  48.555  1.00  0.00    -0.370 N 
HETATM   10  H7  UNL     1      26.911   7.147  47.664  1.00  0.00     0.161 HD
BRANCH   9  11
HETATM   11  C5  UNL     1      28.465   8.031  48.747  1.00  0.00     0.133 A 
HETATM   12  N2  UNL     1      28.709   9.290  49.208  1.00  0.00    -0.224 NA
HETATM   13  C4  UNL     1      29.988   9.704  49.412  1.00  0.00     0.235 A 
HETATM   14  N1  UNL     1      31.002   8.882  49.163  1.00  0.00    -0.246 NA
HETATM   15  C3  UNL     1      30.841   7.626  48.707  1.00  0.00     0.045 A 
HETATM   16  C19 UNL     1      29.538   7.229  48.508  1.00  0.00     0.008 A 
HETATM   17  C20 UNL     1      29.277   5.869  48.010  1.00  0.00     0.054 C 
BRANCH  15  18
HETATM   18  C2  UNL     1      31.943   6.662  48.410  1.00  0.00     0.055 C 
HETATM   19  C1  UNL     1      32.820   7.349  47.365  1.00  0.00     0.011 C 
ENDBRANCH  15  18
ENDBRANCH   9  11
ENDBRANCH   8   9
ENDBRANCH   1   8
BRANCH   4  20
HETATM   20  O1  UNL     1      24.111   3.010  51.347  1.00  0.00    -0.329 OA
BRANCH  20  21
HETATM   21  C10 UNL     1      24.156   2.490  52.636  1.00  0.00     0.216 C 
BRANCH  21  22
HETATM   22  C11 UNL     1      25.448   1.821  52.897  1.00  0.00    -0.031 A 
HETATM   23  C12 UNL     1      26.563   2.243  53.583  1.00  0.00     0.009 A 
HETATM   24  C13 UNL     1      27.667   1.423  53.681  1.00  0.00     0.004 A 
HETATM   25  C14 UNL     1      27.709   0.170  53.111  1.00  0.00     0.042 A 
HETATM   26  C15 UNL     1      26.603  -0.264  52.424  1.00  0.00     0.117 A 
HETATM   27  F1  UNL     1      26.681  -1.501  51.878  1.00  0.00    -0.206 F 
HETATM   28  C16 UNL     1      25.484   0.555  52.319  1.00  0.00     0.051 A 
ENDBRANCH  21  22
ENDBRANCH  20  21
ENDBRANCH   4  20
TORSDOF 7
ENDMDL
