MODEL 1
REMARK VINA RESULT:      -7.5      0.000      0.000
REMARK  3 active torsions:
REMARK  status: ('A' for Active; 'I' for Inactive)
REMARK    1  A    between atoms: C2_2  and  C3_4 
REMARK    2  A    between atoms: C4_6  and  C5_7 
REMARK    3  A    between atoms: C5_7  and  C6_8 
ROOT
HETATM    1  C6  UNL     1      25.024   1.625  51.891  1.00  0.00    -0.033 C 
HETATM    2  C7  UNL     1      24.127   2.532  51.460  1.00  0.00     0.037 C 
HETATM    3  C8  UNL     1      24.514   3.617  50.551  1.00  0.00     0.225 C 
HETATM    4  O1  UNL     1      24.349   4.896  51.083  1.00  0.00    -0.384 OA
HETATM    5  C9  UNL     1      23.014   5.171  51.361  1.00  0.00     0.187 C 
HETATM    6  C10 UNL     1      22.436   4.140  52.306  1.00  0.00     0.149 C 
HETATM    7  N1  UNL     1      22.720   2.834  51.680  1.00  0.00    -0.380 N 
HETATM    8  C11 UNL     1      21.496   2.025  51.397  1.00  0.00     0.123 C 
HETATM    9  C12 UNL     1      21.888   0.580  51.809  1.00  0.00     0.020 C 
HETATM   10  C13 UNL     1      22.331   0.748  53.258  1.00  0.00     0.002 C 
HETATM   11  O2  UNL     1      23.007  -0.445  53.681  1.00  0.00     0.000 OA
HETATM   12  C14 UNL     1      24.409  -0.502  53.458  1.00  0.00     0.003 C 
HETATM   13  C15 UNL     1      24.891   0.456  52.712  1.00  0.00     0.010 C 
ENDROOT
BRANCH   1  14
HETATM   14  C5  UNL     1      26.436   1.601  51.534  1.00  0.00     0.069 C 
BRANCH  14  15
HETATM   15  C4  UNL     1      27.259   0.800  52.498  1.00  0.00     0.000 C 
HETATM   16  C3  UNL     1      28.236   0.999  53.383  1.00  0.00     0.041 C 
HETATM   17 CL1  UNL     1      28.707   2.695  53.448  1.00  0.00    -0.086 Cl
BRANCH  16  18
HETATM   18  C2  UNL     1      29.049   0.203  54.338  1.00  0.00     0.210 C 
HETATM   19  C1  UNL     1      29.678  -0.994  53.704  1.00  0.00     0.051 C 
HETATM   20  F1  UNL     1      28.231  -0.248  55.371  1.00  0.00    -0.244 F 
ENDBRANCH  16  18
ENDBRANCH  14  15
ENDBRANCH   1  14
TORSDOF 3
ENDMDL
MODEL 2
REMARK VINA RESULT:      -7.3      1.729      2.304
REMARK  3 active torsions:
REMARK  status: ('A' for Active; 'I' for Inactive)
REMARK    1  A    between atoms: C2_2  and  C3_4 
REMARK    2  A    between atoms: C4_6  and  C5_7 
REMARK    3  A    between atoms: C5_7  and  C6_8 
ROOT
HETATM    1  C6  UNL     1      24.057  -0.108  53.409  1.00  0.00    -0.033 C 
HETATM    2  C7  UNL     1      23.913   0.882  52.507  1.00  0.00     0.037 C 
HETATM    3  C8  UNL     1      25.042   1.342  51.690  1.00  0.00     0.225 C 
HETATM    4  O1  UNL     1      25.394   2.675  51.900  1.00  0.00    -0.384 OA
HETATM    5  C9  UNL     1      24.365   3.542  51.544  1.00  0.00     0.187 C 
HETATM    6  C10 UNL     1      23.098   3.218  52.304  1.00  0.00     0.149 C 
HETATM    7  N1  UNL     1      22.857   1.781  52.065  1.00  0.00    -0.380 N 
HETATM    8  C11 UNL     1      21.539   1.493  51.422  1.00  0.00     0.123 C 
HETATM    9  C12 UNL     1      21.009   0.245  52.177  1.00  0.00     0.020 C 
HETATM   10  C13 UNL     1      21.025   0.696  53.634  1.00  0.00     0.002 C 
HETATM   11  O2  UNL     1      20.849  -0.449  54.480  1.00  0.00     0.000 OA
HETATM   12  C14 UNL     1      22.024  -1.140  54.879  1.00  0.00     0.003 C 
HETATM   13  C15 UNL     1      23.119  -0.771  54.268  1.00  0.00     0.010 C 
ENDROOT
BRANCH   1  14
HETATM   14  C5  UNL     1      25.298  -0.819  53.688  1.00  0.00     0.069 C 
BRANCH  14  15
HETATM   15  C4  UNL     1      26.413   0.104  54.078  1.00  0.00     0.000 C 
HETATM   16  C3  UNL     1      27.741   0.170  53.966  1.00  0.00     0.041 C 
HETATM   17 CL1  UNL     1      28.383  -1.231  53.113  1.00  0.00    -0.086 Cl
BRANCH  16  18
HETATM   18  C2  UNL     1      28.844   1.086  54.353  1.00  0.00     0.210 C 
HETATM   19  C1  UNL     1      28.720   2.436  53.727  1.00  0.00     0.051 C 
HETATM   20  F1  UNL     1      30.058   0.541  53.939  1.00  0.00    -0.244 F 
ENDBRANCH  16  18
ENDBRANCH  14  15
ENDBRANCH   1  14
TORSDOF 3
ENDMDL
MODEL 3
REMARK VINA RESULT:      -7.3      1.830      2.300
REMARK  3 active torsions:
REMARK  status: ('A' for Active; 'I' for Inactive)
REMARK    1  A    between atoms: C2_2  and  C3_4 
REMARK    2  A    between atoms: C4_6  and  C5_7 
REMARK    3  A    between atoms: C5_7  and  C6_8 
ROOT
HETATM    1  C6  UNL     1      23.978   0.271  52.928  1.00  0.00    -0.033 C 
HETATM    2  C7  UNL     1      22.763   0.625  52.469  1.00  0.00     0.037 C 
HETATM    3  C8  UNL     1      22.604   1.341  51.198  1.00  0.00     0.225 C 
HETATM    4  O1  UNL     1      22.037   2.610  51.323  1.00  0.00    -0.384 OA
HETATM    5  C9  UNL     1      20.739   2.547  51.821  1.00  0.00     0.187 C 
HETATM    6  C10 UNL     1      20.706   1.833  53.155  1.00  0.00     0.149 C 
HETATM    7  N1  UNL     1      21.382   0.542  52.923  1.00  0.00    -0.380 N 
HETATM    8  C11 UNL     1      20.525  -0.646  53.221  1.00  0.00     0.123 C 
HETATM    9  C12 UNL     1      21.475  -1.629  53.956  1.00  0.00     0.020 C 
HETATM   10  C13 UNL     1      21.993  -0.793  55.123  1.00  0.00     0.002 C 
HETATM   11  O2  UNL     1      23.111  -1.465  55.719  1.00  0.00     0.000 OA
HETATM   12  C14 UNL     1      24.395  -1.172  55.187  1.00  0.00     0.003 C 
HETATM   13  C15 UNL     1      24.391  -0.474  54.082  1.00  0.00     0.010 C 
ENDROOT
BRANCH   1  14
HETATM   14  C5  UNL     1      25.244   0.546  52.260  1.00  0.00     0.069 C 
BRANCH  14  15
HETATM   15  C4  UNL     1      26.429   0.210  53.114  1.00  0.00     0.000 C 
HETATM   16  C3  UNL     1      27.594   0.755  53.464  1.00  0.00     0.041 C 
HETATM   17 CL1  UNL     1      27.819   2.330  52.709  1.00  0.00    -0.086 Cl
BRANCH  16  18
HETATM   18  C2  UNL     1      28.768   0.420  54.311  1.00  0.00     0.210 C 
HETATM   19  C1  UNL     1      29.729  -0.497  53.631  1.00  0.00     0.051 C 
HETATM   20  F1  UNL     1      28.329  -0.215  55.471  1.00  0.00    -0.244 F 
ENDBRANCH  16  18
ENDBRANCH  14  15
ENDBRANCH   1  14
TORSDOF 3
ENDMDL
MODEL 4
REMARK VINA RESULT:      -7.3      1.876      3.846
REMARK  3 active torsions:
REMARK  status: ('A' for Active; 'I' for Inactive)
REMARK    1  A    between atoms: C2_2  and  C3_4 
REMARK    2  A    between atoms: C4_6  and  C5_7 
REMARK    3  A    between atoms: C5_7  and  C6_8 
ROOT
HETATM    1  C6  UNL     1      23.613   0.366  53.136  1.00  0.00    -0.033 C 
HETATM    2  C7  UNL     1      22.295   0.438  53.402  1.00  0.00     0.037 C 
HETATM    3  C8  UNL     1      21.691  -0.340  54.490  1.00  0.00     0.225 C 
HETATM    4  O1  UNL     1      20.736  -1.266  54.069  1.00  0.00    -0.384 OA
HETATM    5  C9  UNL     1      19.643  -0.645  53.473  1.00  0.00     0.187 C 
HETATM    6  C10 UNL     1      20.079   0.213  52.306  1.00  0.00     0.149 C 
HETATM    7  N1  UNL     1      21.125   1.103  52.845  1.00  0.00    -0.380 N 
HETATM    8  C11 UNL     1      20.808   2.557  52.704  1.00  0.00     0.123 C 
HETATM    9  C12 UNL     1      22.151   3.200  52.264  1.00  0.00     0.020 C 
HETATM   10  C13 UNL     1      22.514   2.409  51.012  1.00  0.00     0.002 C 
HETATM   11  O2  UNL     1      23.878   2.684  50.665  1.00  0.00     0.000 OA
HETATM   12  C14 UNL     1      24.871   1.853  51.248  1.00  0.00     0.003 C 
HETATM   13  C15 UNL     1      24.442   1.057  52.191  1.00  0.00     0.010 C 
ENDROOT
BRANCH   1  14
HETATM   14  C5  UNL     1      24.573  -0.462  53.854  1.00  0.00     0.069 C 
BRANCH  14  15
HETATM   15  C4  UNL     1      25.829   0.282  54.197  1.00  0.00     0.000 C 
HETATM   16  C3  UNL     1      27.139   0.191  53.964  1.00  0.00     0.041 C 
HETATM   17 CL1  UNL     1      27.517  -1.208  52.962  1.00  0.00    -0.086 Cl
BRANCH  16  18
HETATM   18  C2  UNL     1      28.382   0.929  54.304  1.00  0.00     0.210 C 
HETATM   19  C1  UNL     1      28.493   2.234  53.586  1.00  0.00     0.051 C 
HETATM   20  F1  UNL     1      29.485   0.158  53.947  1.00  0.00    -0.244 F 
ENDBRANCH  16  18
ENDBRANCH  14  15
ENDBRANCH   1  14
TORSDOF 3
ENDMDL
MODEL 5
REMARK VINA RESULT:      -7.1      1.555      3.391
REMARK  3 active torsions:
REMARK  status: ('A' for Active; 'I' for Inactive)
REMARK    1  A    between atoms: C2_2  and  C3_4 
REMARK    2  A    between atoms: C4_6  and  C5_7 
REMARK    3  A    between atoms: C5_7  and  C6_8 
ROOT
HETATM    1  C6  UNL     1      24.230   1.389  52.214  1.00  0.00    -0.033 C 
HETATM    2  C7  UNL     1      22.954   1.754  52.441  1.00  0.00     0.037 C 
HETATM    3  C8  UNL     1      22.043   0.908  53.221  1.00  0.00     0.225 C 
HETATM    4  O1  UNL     1      20.938   0.447  52.505  1.00  0.00    -0.384 OA
HETATM    5  C9  UNL     1      20.123   1.493  52.084  1.00  0.00     0.187 C 
HETATM    6  C10 UNL     1      20.903   2.481  51.245  1.00  0.00     0.149 C 
HETATM    7  N1  UNL     1      22.073   2.852  52.066  1.00  0.00    -0.380 N 
HETATM    8  C11 UNL     1      22.164   4.315  52.357  1.00  0.00     0.123 C 
HETATM    9  C12 UNL     1      23.670   4.647  52.181  1.00  0.00     0.020 C 
HETATM   10  C13 UNL     1      23.962   4.166  50.764  1.00  0.00     0.002 C 
HETATM   11  O2  UNL     1      25.382   4.129  50.566  1.00  0.00     0.000 OA
HETATM   12  C14 UNL     1      26.048   2.922  50.909  1.00  0.00     0.003 C 
HETATM   13  C15 UNL     1      25.317   2.051  51.553  1.00  0.00     0.010 C 
ENDROOT
BRANCH   1  14
HETATM   14  C5  UNL     1      24.849   0.157  52.685  1.00  0.00     0.069 C 
BRANCH  14  15
HETATM   15  C4  UNL     1      26.222   0.382  53.246  1.00  0.00     0.000 C 
HETATM   16  C3  UNL     1      27.365  -0.289  53.387  1.00  0.00     0.041 C 
HETATM   17 CL1  UNL     1      27.241  -1.916  52.724  1.00  0.00    -0.086 Cl
BRANCH  16  18
HETATM   18  C2  UNL     1      28.725  -0.064  53.942  1.00  0.00     0.210 C 
HETATM   19  C1  UNL     1      29.701  -1.112  53.521  1.00  0.00     0.051 C 
HETATM   20  F1  UNL     1      28.660  -0.083  55.333  1.00  0.00    -0.244 F 
ENDBRANCH  16  18
ENDBRANCH  14  15
ENDBRANCH   1  14
TORSDOF 3
ENDMDL
MODEL 6
REMARK VINA RESULT:      -7.0      3.679      6.392
REMARK  3 active torsions:
REMARK  status: ('A' for Active; 'I' for Inactive)
REMARK    1  A    between atoms: C2_2  and  C3_4 
REMARK    2  A    between atoms: C4_6  and  C5_7 
REMARK    3  A    between atoms: C5_7  and  C6_8 
ROOT
HETATM    1  C6  UNL     1      24.063   1.451  52.383  1.00  0.00    -0.033 C 
HETATM    2  C7  UNL     1      24.086   0.268  53.025  1.00  0.00     0.037 C 
HETATM    3  C8  UNL     1      22.848  -0.443  53.363  1.00  0.00     0.225 C 
HETATM    4  O1  UNL     1      22.644  -0.618  54.732  1.00  0.00    -0.384 OA
HETATM    5  C9  UNL     1      23.635  -1.409  55.304  1.00  0.00     0.187 C 
HETATM    6  C10 UNL     1      25.006  -0.819  55.058  1.00  0.00     0.149 C 
HETATM    7  N1  UNL     1      25.089  -0.619  53.598  1.00  0.00    -0.380 N 
HETATM    8  C11 UNL     1      26.219  -1.355  52.954  1.00  0.00     0.123 C 
HETATM    9  C12 UNL     1      26.804  -0.342  51.934  1.00  0.00     0.020 C 
HETATM   10  C13 UNL     1      27.125   0.869  52.803  1.00  0.00     0.002 C 
HETATM   11  O2  UNL     1      27.391   1.995  51.955  1.00  0.00     0.000 OA
HETATM   12  C14 UNL     1      26.279   2.796  51.582  1.00  0.00     0.003 C 
HETATM   13  C15 UNL     1      25.110   2.300  51.892  1.00  0.00     0.010 C 
ENDROOT
BRANCH   1  14
HETATM   14  C5  UNL     1      22.860   2.158  51.964  1.00  0.00     0.069 C 
BRANCH  14  15
HETATM   15  C4  UNL     1      22.917   2.586  50.528  1.00  0.00     0.000 C 
HETATM   16  C3  UNL     1      22.430   2.196  49.349  1.00  0.00     0.041 C 
HETATM   17 CL1  UNL     1      21.424   0.760  49.514  1.00  0.00    -0.086 Cl
BRANCH  16  18
HETATM   18  C2  UNL     1      22.487   2.622  47.927  1.00  0.00     0.210 C 
HETATM   19  C1  UNL     1      21.163   3.073  47.406  1.00  0.00     0.051 C 
HETATM   20  F1  UNL     1      22.905   1.549  47.144  1.00  0.00    -0.244 F 
ENDBRANCH  16  18
ENDBRANCH  14  15
ENDBRANCH   1  14
TORSDOF 3
ENDMDL
MODEL 7
REMARK VINA RESULT:      -6.7      1.975      2.491
REMARK  3 active torsions:
REMARK  status: ('A' for Active; 'I' for Inactive)
REMARK    1  A    between atoms: C2_2  and  C3_4 
REMARK    2  A    between atoms: C4_6  and  C5_7 
REMARK    3  A    between atoms: C5_7  and  C6_8 
ROOT
HETATM    1  C6  UNL     1      23.275   2.045  52.231  1.00  0.00    -0.033 C 
HETATM    2  C7  UNL     1      23.269   2.708  51.059  1.00  0.00     0.037 C 
HETATM    3  C8  UNL     1      24.390   3.570  50.663  1.00  0.00     0.225 C 
HETATM    4  O1  UNL     1      24.049   4.914  50.505  1.00  0.00    -0.384 OA
HETATM    5  C9  UNL     1      23.126   5.094  49.479  1.00  0.00     0.187 C 
HETATM    6  C10 UNL     1      21.880   4.273  49.723  1.00  0.00     0.149 C 
HETATM    7  N1  UNL     1      22.358   2.893  49.939  1.00  0.00    -0.380 N 
HETATM    8  C11 UNL     1      21.798   1.905  48.968  1.00  0.00     0.123 C 
HETATM    9  C12 UNL     1      21.462   0.662  49.836  1.00  0.00     0.020 C 
HETATM   10  C13 UNL     1      20.540   1.235  50.907  1.00  0.00     0.002 C 
HETATM   11  O2  UNL     1      20.389   0.270  51.958  1.00  0.00     0.000 OA
HETATM   12  C14 UNL     1      21.335   0.319  53.016  1.00  0.00     0.003 C 
HETATM   13  C15 UNL     1      22.355   1.110  52.811  1.00  0.00     0.010 C 
ENDROOT
BRANCH   1  14
HETATM   14  C5  UNL     1      24.343   2.094  53.221  1.00  0.00     0.069 C 
BRANCH  14  15
HETATM   15  C4  UNL     1      25.044   0.778  53.377  1.00  0.00     0.000 C 
HETATM   16  C3  UNL     1      26.053   0.112  52.815  1.00  0.00     0.041 C 
HETATM   17 CL1  UNL     1      26.783   1.037  51.506  1.00  0.00    -0.086 Cl
BRANCH  16  18
HETATM   18  C2  UNL     1      26.747  -1.192  52.970  1.00  0.00     0.210 C 
HETATM   19  C1  UNL     1      28.212  -1.041  53.215  1.00  0.00     0.051 C 
HETATM   20  F1  UNL     1      26.589  -1.937  51.804  1.00  0.00    -0.244 F 
ENDBRANCH  16  18
ENDBRANCH  14  15
ENDBRANCH   1  14
TORSDOF 3
ENDMDL
MODEL 8
REMARK VINA RESULT:      -6.7      3.712      5.096
REMARK  3 active torsions:
REMARK  status: ('A' for Active; 'I' for Inactive)
REMARK    1  A    between atoms: C2_2  and  C3_4 
REMARK    2  A    between atoms: C4_6  and  C5_7 
REMARK    3  A    between atoms: C5_7  and  C6_8 
ROOT
HETATM    1  C6  UNL     1      25.733   2.962  50.631  1.00  0.00    -0.033 C 
HETATM    2  C7  UNL     1      24.392   2.930  50.740  1.00  0.00     0.037 C 
HETATM    3  C8  UNL     1      23.524   3.279  49.610  1.00  0.00     0.225 C 
HETATM    4  O1  UNL     1      22.711   4.391  49.835  1.00  0.00    -0.384 OA
HETATM    5  C9  UNL     1      21.812   4.170  50.874  1.00  0.00     0.187 C 
HETATM    6  C10 UNL     1      22.539   3.796  52.147  1.00  0.00     0.149 C 
HETATM    7  N1  UNL     1      23.409   2.661  51.781  1.00  0.00    -0.380 N 
HETATM    8  C11 UNL     1      23.142   1.420  52.570  1.00  0.00     0.123 C 
HETATM    9  C12 UNL     1      24.553   0.863  52.897  1.00  0.00     0.020 C 
HETATM   10  C13 UNL     1      25.230   2.038  53.595  1.00  0.00     0.002 C 
HETATM   11  O2  UNL     1      26.638   1.779  53.687  1.00  0.00     0.000 OA
HETATM   12  C14 UNL     1      27.443   2.208  52.598  1.00  0.00     0.003 C 
HETATM   13  C15 UNL     1      26.782   2.612  51.546  1.00  0.00     0.010 C 
ENDROOT
BRANCH   1  14
HETATM   14  C5  UNL     1      26.472   3.338  49.432  1.00  0.00     0.069 C 
BRANCH  14  15
HETATM   15  C4  UNL     1      26.412   4.811  49.159  1.00  0.00     0.000 C 
HETATM   16  C3  UNL     1      27.204   5.771  48.682  1.00  0.00     0.041 C 
HETATM   17 CL1  UNL     1      28.787   5.137  48.240  1.00  0.00    -0.086 Cl
BRANCH  16  18
HETATM   18  C2  UNL     1      27.143   7.230  48.412  1.00  0.00     0.210 C 
HETATM   19  C1  UNL     1      26.693   8.019  49.597  1.00  0.00     0.051 C 
HETATM   20  F1  UNL     1      26.237   7.467  47.381  1.00  0.00    -0.244 F 
ENDBRANCH  16  18
ENDBRANCH  14  15
ENDBRANCH   1  14
TORSDOF 3
ENDMDL
MODEL 9
REMARK VINA RESULT:      -6.6      3.372      5.611
REMARK  3 active torsions:
REMARK  status: ('A' for Active; 'I' for Inactive)
REMARK    1  A    between atoms: C2_2  and  C3_4 
REMARK    2  A    between atoms: C4_6  and  C5_7 
REMARK    3  A    between atoms: C5_7  and  C6_8 
ROOT
HETATM    1  C6  UNL     1      23.872   1.790  52.839  1.00  0.00    -0.033 C 
HETATM    2  C7  UNL     1      24.950   1.129  53.302  1.00  0.00     0.037 C 
HETATM    3  C8  UNL     1      26.254   1.791  53.432  1.00  0.00     0.225 C 
HETATM    4  O1  UNL     1      27.258   1.237  52.636  1.00  0.00    -0.384 OA
HETATM    5  C9  UNL     1      27.529  -0.081  52.991  1.00  0.00     0.187 C 
HETATM    6  C10 UNL     1      26.280  -0.930  52.910  1.00  0.00     0.149 C 
HETATM    7  N1  UNL     1      25.274  -0.225  53.729  1.00  0.00    -0.380 N 
HETATM    8  C11 UNL     1      24.738  -1.043  54.858  1.00  0.00     0.123 C 
HETATM    9  C12 UNL     1      23.215  -0.746  54.857  1.00  0.00     0.020 C 
HETATM   10  C13 UNL     1      22.798  -1.106  53.435  1.00  0.00     0.002 C 
HETATM   11  O2  UNL     1      21.479  -0.598  53.192  1.00  0.00     0.000 OA
HETATM   12  C14 UNL     1      21.382   0.724  52.683  1.00  0.00     0.003 C 
HETATM   13  C15 UNL     1      22.501   1.400  52.681  1.00  0.00     0.010 C 
ENDROOT
BRANCH   1  14
HETATM   14  C5  UNL     1      23.855   3.184  52.417  1.00  0.00     0.069 C 
BRANCH  14  15
HETATM   15  C4  UNL     1      23.105   3.387  51.135  1.00  0.00     0.000 C 
HETATM   16  C3  UNL     1      23.369   3.644  49.854  1.00  0.00     0.041 C 
HETATM   17 CL1  UNL     1      25.102   3.788  49.571  1.00  0.00    -0.086 Cl
BRANCH  16  18
HETATM   18  C2  UNL     1      22.624   3.843  48.584  1.00  0.00     0.210 C 
HETATM   19  C1  UNL     1      22.456   2.579  47.808  1.00  0.00     0.051 C 
HETATM   20  F1  UNL     1      23.323   4.741  47.780  1.00  0.00    -0.244 F 
ENDBRANCH  16  18
ENDBRANCH  14  15
ENDBRANCH   1  14
TORSDOF 3
ENDMDL
