MODEL 1
REMARK VINA RESULT:      -8.2      0.000      0.000
REMARK  4 active torsions:
REMARK  status: ('A' for Active; 'I' for Inactive)
REMARK    1  A    between atoms: C2_2  and  C3_3 
REMARK    2  A    between atoms: C2_2  and  C7_9 
REMARK    3  A    between atoms: C9_11  and  N1_12 
REMARK    4  A    between atoms: N1_12  and  C10_13 
ROOT
HETATM    1  C7  UNL     1      26.578   2.158  52.518  1.00  0.00     0.049 A 
HETATM    2  C8  UNL     1      25.209   2.159  52.653  1.00  0.00     0.078 A 
HETATM    3  C9  UNL     1      24.331   2.546  51.676  1.00  0.00     0.131 A 
HETATM    4  N2  UNL     1      24.896   2.943  50.530  1.00  0.00    -0.224 NA
HETATM    5  C16 UNL     1      26.222   2.964  50.340  1.00  0.00     0.235 A 
HETATM    6  N3  UNL     1      27.064   2.571  51.335  1.00  0.00    -0.246 NA
ENDROOT
BRANCH   3   7
HETATM    7  N1  UNL     1      22.937   2.506  51.928  1.00  0.00    -0.341 N 
HETATM    8  H11 UNL     1      22.389   3.389  51.698  1.00  0.00     0.167 HD
BRANCH   7   9
HETATM    9  C10 UNL     1      22.158   1.462  52.444  1.00  0.00     0.035 A 
HETATM   10  C11 UNL     1      20.842   1.245  52.014  1.00  0.00     0.032 A 
HETATM   11  C12 UNL     1      20.060   0.229  52.504  1.00  0.00     0.046 A 
HETATM   12  C13 UNL     1      20.522  -0.633  53.445  1.00  0.00     0.138 A 
HETATM   13  F1  UNL     1      19.668  -1.597  53.858  1.00  0.00    -0.204 F 
HETATM   14  C14 UNL     1      21.809  -0.472  53.908  1.00  0.00     0.074 A 
HETATM   15 CL1  UNL     1      22.403  -1.584  55.119  1.00  0.00    -0.081 Cl
HETATM   16  C15 UNL     1      22.553   0.547  53.397  1.00  0.00     0.056 A 
ENDBRANCH   7   9
ENDBRANCH   3   7
BRANCH   1  17
HETATM   17  C2  UNL     1      27.470   1.724  53.626  1.00  0.00     0.092 C 
HETATM   18  C1  UNL     1      28.768   2.512  53.629  1.00  0.00     0.023 C 
BRANCH  17  19
HETATM   19  C3  UNL     1      27.852   0.288  53.525  1.00  0.00     0.077 C 
HETATM   20  C4  UNL     1      27.130  -0.796  53.291  1.00  0.00     0.167 C 
HETATM   21  O1  UNL     1      27.729  -2.057  53.244  1.00  0.00    -0.358 OA
HETATM   22  C5  UNL     1      29.120  -2.211  53.122  1.00  0.00     0.201 C 
HETATM   23  C6  UNL     1      29.892  -1.100  53.762  1.00  0.00     0.202 C 
HETATM   24  O2  UNL     1      29.238   0.149  53.724  1.00  0.00    -0.351 OA
ENDBRANCH  17  19
ENDBRANCH   1  17
TORSDOF 4
ENDMDL
MODEL 2
REMARK VINA RESULT:      -8.2      4.622      6.488
REMARK  4 active torsions:
REMARK  status: ('A' for Active; 'I' for Inactive)
REMARK    1  A    between atoms: C2_2  and  C3_3 
REMARK    2  A    between atoms: C2_2  and  C7_9 
REMARK    3  A    between atoms: C9_11  and  N1_12 
REMARK    4  A    between atoms: N1_12  and  C10_13 
ROOT
HETATM    1  C7  UNL     1      26.394   2.075  52.839  1.00  0.00     0.049 A 
HETATM    2  C8  UNL     1      26.751   2.505  51.582  1.00  0.00     0.078 A 
HETATM    3  C9  UNL     1      25.872   2.956  50.635  1.00  0.00     0.131 A 
HETATM    4  N2  UNL     1      24.586   2.959  51.009  1.00  0.00    -0.224 NA
HETATM    5  C16 UNL     1      24.179   2.553  52.219  1.00  0.00     0.235 A 
HETATM    6  N3  UNL     1      25.084   2.110  53.135  1.00  0.00    -0.246 NA
ENDROOT
BRANCH   3   7
HETATM    7  N1  UNL     1      26.354   3.374  49.370  1.00  0.00    -0.341 N 
HETATM    8  H11 UNL     1      26.389   2.631  48.608  1.00  0.00     0.167 HD
BRANCH   7   9
HETATM    9  C10 UNL     1      26.801   4.638  48.964  1.00  0.00     0.035 A 
HETATM   10  C11 UNL     1      25.952   5.753  48.966  1.00  0.00     0.032 A 
HETATM   11  C12 UNL     1      26.368   7.002  48.573  1.00  0.00     0.046 A 
HETATM   12  C13 UNL     1      27.638   7.229  48.155  1.00  0.00     0.138 A 
HETATM   13  F1  UNL     1      27.941   8.495  47.791  1.00  0.00    -0.204 F 
HETATM   14  C14 UNL     1      28.521   6.172  48.131  1.00  0.00     0.074 A 
HETATM   15 CL1  UNL     1      30.158   6.467  47.594  1.00  0.00    -0.081 Cl
HETATM   16  C15 UNL     1      28.071   4.950  48.528  1.00  0.00     0.056 A 
ENDBRANCH   7   9
ENDBRANCH   3   7
BRANCH   1  17
HETATM   17  C2  UNL     1      27.408   1.596  53.816  1.00  0.00     0.092 C 
HETATM   18  C1  UNL     1      28.698   2.388  53.705  1.00  0.00     0.023 C 
BRANCH  17  19
HETATM   19  C3  UNL     1      27.774   0.168  53.608  1.00  0.00     0.077 C 
HETATM   20  C4  UNL     1      27.043  -0.886  53.279  1.00  0.00     0.167 C 
HETATM   21  O1  UNL     1      27.628  -2.146  53.141  1.00  0.00    -0.358 OA
HETATM   22  C5  UNL     1      29.019  -2.309  53.027  1.00  0.00     0.201 C 
HETATM   23  C6  UNL     1      29.794  -1.261  53.763  1.00  0.00     0.202 C 
HETATM   24  O2  UNL     1      29.156  -0.004  53.814  1.00  0.00    -0.351 OA
ENDBRANCH  17  19
ENDBRANCH   1  17
TORSDOF 4
ENDMDL
MODEL 3
REMARK VINA RESULT:      -8.2      2.613      3.770
REMARK  4 active torsions:
REMARK  status: ('A' for Active; 'I' for Inactive)
REMARK    1  A    between atoms: C2_2  and  C3_3 
REMARK    2  A    between atoms: C2_2  and  C7_9 
REMARK    3  A    between atoms: C9_11  and  N1_12 
REMARK    4  A    between atoms: N1_12  and  C10_13 
ROOT
HETATM    1  C7  UNL     1      24.886  -0.522  53.488  1.00  0.00     0.049 A 
HETATM    2  C8  UNL     1      23.706   0.078  53.113  1.00  0.00     0.078 A 
HETATM    3  C9  UNL     1      22.546   0.036  53.838  1.00  0.00     0.131 A 
HETATM    4  N2  UNL     1      22.618  -0.650  54.985  1.00  0.00    -0.224 NA
HETATM    5  C16 UNL     1      23.738  -1.255  55.403  1.00  0.00     0.235 A 
HETATM    6  N3  UNL     1      24.874  -1.191  54.654  1.00  0.00    -0.246 NA
ENDROOT
BRANCH   3   7
HETATM    7  N1  UNL     1      21.388   0.691  53.351  1.00  0.00    -0.341 N 
HETATM    8  H11 UNL     1      21.451   1.750  53.249  1.00  0.00     0.167 HD
BRANCH   7   9
HETATM    9  C10 UNL     1      20.152   0.149  52.979  1.00  0.00     0.035 A 
HETATM   10  C11 UNL     1      19.364   0.733  51.978  1.00  0.00     0.032 A 
HETATM   11  C12 UNL     1      18.149   0.219  51.596  1.00  0.00     0.046 A 
HETATM   12  C13 UNL     1      17.636  -0.896  52.173  1.00  0.00     0.138 A 
HETATM   13  F1  UNL     1      16.433  -1.316  51.722  1.00  0.00    -0.204 F 
HETATM   14  C14 UNL     1      18.363  -1.517  53.165  1.00  0.00     0.074 A 
HETATM   15 CL1  UNL     1      17.702  -2.954  53.907  1.00  0.00    -0.081 Cl
HETATM   16  C15 UNL     1      19.563  -0.977  53.515  1.00  0.00     0.056 A 
ENDBRANCH   7   9
ENDBRANCH   3   7
BRANCH   1  17
HETATM   17  C2  UNL     1      26.108  -0.434  52.646  1.00  0.00     0.092 C 
HETATM   18  C1  UNL     1      26.802  -1.780  52.539  1.00  0.00     0.023 C 
BRANCH  17  19
HETATM   19  C3  UNL     1      27.116   0.514  53.196  1.00  0.00     0.077 C 
HETATM   20  C4  UNL     1      27.018   1.782  53.562  1.00  0.00     0.167 C 
HETATM   21  O1  UNL     1      28.127   2.471  54.057  1.00  0.00    -0.358 OA
HETATM   22  C5  UNL     1      29.285   1.800  54.486  1.00  0.00     0.201 C 
HETATM   23  C6  UNL     1      29.534   0.527  53.739  1.00  0.00     0.202 C 
HETATM   24  O2  UNL     1      28.361  -0.131  53.316  1.00  0.00    -0.351 OA
ENDBRANCH  17  19
ENDBRANCH   1  17
TORSDOF 4
ENDMDL
MODEL 4
REMARK VINA RESULT:      -8.1      3.090      4.188
REMARK  4 active torsions:
REMARK  status: ('A' for Active; 'I' for Inactive)
REMARK    1  A    between atoms: C2_2  and  C3_3 
REMARK    2  A    between atoms: C2_2  and  C7_9 
REMARK    3  A    between atoms: C9_11  and  N1_12 
REMARK    4  A    between atoms: N1_12  and  C10_13 
ROOT
HETATM    1  C7  UNL     1      24.922  -0.563  53.764  1.00  0.00     0.049 A 
HETATM    2  C8  UNL     1      23.571  -0.585  53.509  1.00  0.00     0.078 A 
HETATM    3  C9  UNL     1      22.614  -0.956  54.415  1.00  0.00     0.131 A 
HETATM    4  N2  UNL     1      23.079  -1.315  55.617  1.00  0.00    -0.224 NA
HETATM    5  C16 UNL     1      24.383  -1.313  55.924  1.00  0.00     0.235 A 
HETATM    6  N3  UNL     1      25.306  -0.937  54.997  1.00  0.00    -0.246 NA
ENDROOT
BRANCH   3   7
HETATM    7  N1  UNL     1      21.248  -0.941  54.040  1.00  0.00    -0.341 N 
HETATM    8  H11 UNL     1      20.648  -1.744  54.400  1.00  0.00     0.167 HD
BRANCH   7   9
HETATM    9  C10 UNL     1      20.553  -0.013  53.253  1.00  0.00     0.035 A 
HETATM   10  C11 UNL     1      20.782   1.364  53.367  1.00  0.00     0.032 A 
HETATM   11  C12 UNL     1      20.115   2.292  52.605  1.00  0.00     0.046 A 
HETATM   12  C13 UNL     1      19.185   1.923  51.688  1.00  0.00     0.138 A 
HETATM   13  F1  UNL     1      18.589   2.917  50.993  1.00  0.00    -0.204 F 
HETATM   14  C14 UNL     1      18.915   0.582  51.529  1.00  0.00     0.074 A 
HETATM   15 CL1  UNL     1      17.719   0.108  50.347  1.00  0.00    -0.081 Cl
HETATM   16  C15 UNL     1      19.598  -0.307  52.303  1.00  0.00     0.056 A 
ENDBRANCH   7   9
ENDBRANCH   3   7
BRANCH   1  17
HETATM   17  C2  UNL     1      25.904  -0.148  52.728  1.00  0.00     0.092 C 
HETATM   18  C1  UNL     1      26.613  -1.349  52.127  1.00  0.00     0.023 C 
BRANCH  17  19
HETATM   19  C3  UNL     1      26.970   0.739  53.271  1.00  0.00     0.077 C 
HETATM   20  C4  UNL     1      26.956   2.016  53.618  1.00  0.00     0.167 C 
HETATM   21  O1  UNL     1      28.106   2.636  54.111  1.00  0.00    -0.358 OA
HETATM   22  C5  UNL     1      29.213   1.894  54.559  1.00  0.00     0.201 C 
HETATM   23  C6  UNL     1      29.381   0.597  53.832  1.00  0.00     0.202 C 
HETATM   24  O2  UNL     1      28.169   0.013  53.410  1.00  0.00    -0.351 OA
ENDBRANCH  17  19
ENDBRANCH   1  17
TORSDOF 4
ENDMDL
MODEL 5
REMARK VINA RESULT:      -8.0      3.569      4.701
REMARK  4 active torsions:
REMARK  status: ('A' for Active; 'I' for Inactive)
REMARK    1  A    between atoms: C2_2  and  C3_3 
REMARK    2  A    between atoms: C2_2  and  C7_9 
REMARK    3  A    between atoms: C9_11  and  N1_12 
REMARK    4  A    between atoms: N1_12  and  C10_13 
ROOT
HETATM    1  C7  UNL     1      25.042  -0.244  53.025  1.00  0.00     0.049 A 
HETATM    2  C8  UNL     1      24.162   0.582  52.365  1.00  0.00     0.078 A 
HETATM    3  C9  UNL     1      22.854   0.769  52.722  1.00  0.00     0.131 A 
HETATM    4  N2  UNL     1      22.453   0.076  53.794  1.00  0.00    -0.224 NA
HETATM    5  C16 UNL     1      23.263  -0.743  54.477  1.00  0.00     0.235 A 
HETATM    6  N3  UNL     1      24.560  -0.903  54.093  1.00  0.00    -0.246 NA
ENDROOT
BRANCH   3   7
HETATM    7  N1  UNL     1      22.037   1.645  51.965  1.00  0.00    -0.341 N 
HETATM    8  H11 UNL     1      21.238   2.118  52.487  1.00  0.00     0.167 HD
BRANCH   7   9
HETATM    9  C10 UNL     1      22.122   1.990  50.610  1.00  0.00     0.035 A 
HETATM   10  C11 UNL     1      21.664   1.129  49.603  1.00  0.00     0.032 A 
HETATM   11  C12 UNL     1      21.736   1.445  48.268  1.00  0.00     0.046 A 
HETATM   12  C13 UNL     1      22.261   2.622  47.844  1.00  0.00     0.138 A 
HETATM   13  F1  UNL     1      22.283   2.831  46.509  1.00  0.00    -0.204 F 
HETATM   14  C14 UNL     1      22.729   3.511  48.786  1.00  0.00     0.074 A 
HETATM   15 CL1  UNL     1      23.404   5.026  48.238  1.00  0.00    -0.081 Cl
HETATM   16  C15 UNL     1      22.640   3.161  50.099  1.00  0.00     0.056 A 
ENDBRANCH   7   9
ENDBRANCH   3   7
BRANCH   1  17
HETATM   17  C2  UNL     1      26.451  -0.398  52.578  1.00  0.00     0.092 C 
HETATM   18  C1  UNL     1      26.885  -1.852  52.612  1.00  0.00     0.023 C 
BRANCH  17  19
HETATM   19  C3  UNL     1      27.411   0.345  53.441  1.00  0.00     0.077 C 
HETATM   20  C4  UNL     1      27.952   0.044  54.611  1.00  0.00     0.167 C 
HETATM   21  O1  UNL     1      28.842   0.921  55.234  1.00  0.00    -0.358 OA
HETATM   22  C5  UNL     1      29.445   1.983  54.538  1.00  0.00     0.201 C 
HETATM   23  C6  UNL     1      28.583   2.529  53.443  1.00  0.00     0.202 C 
HETATM   24  O2  UNL     1      27.750   1.569  52.833  1.00  0.00    -0.351 OA
ENDBRANCH  17  19
ENDBRANCH   1  17
TORSDOF 4
ENDMDL
MODEL 6
REMARK VINA RESULT:      -8.0      3.734      5.064
REMARK  4 active torsions:
REMARK  status: ('A' for Active; 'I' for Inactive)
REMARK    1  A    between atoms: C2_2  and  C3_3 
REMARK    2  A    between atoms: C2_2  and  C7_9 
REMARK    3  A    between atoms: C9_11  and  N1_12 
REMARK    4  A    between atoms: N1_12  and  C10_13 
ROOT
HETATM    1  C7  UNL     1      25.013   0.026  52.866  1.00  0.00     0.049 A 
HETATM    2  C8  UNL     1      24.330   1.106  52.358  1.00  0.00     0.078 A 
HETATM    3  C9  UNL     1      23.031   1.418  52.660  1.00  0.00     0.131 A 
HETATM    4  N2  UNL     1      22.430   0.581  53.514  1.00  0.00    -0.224 NA
HETATM    5  C16 UNL     1      23.043  -0.486  54.041  1.00  0.00     0.235 A 
HETATM    6  N3  UNL     1      24.337  -0.765  53.718  1.00  0.00    -0.246 NA
ENDROOT
BRANCH   3   7
HETATM    7  N1  UNL     1      22.428   2.558  52.074  1.00  0.00    -0.341 N 
HETATM    8  H11 UNL     1      21.435   2.782  52.386  1.00  0.00     0.167 HD
BRANCH   7   9
HETATM    9  C10 UNL     1      22.949   3.451  51.129  1.00  0.00     0.035 A 
HETATM   10  C11 UNL     1      22.940   3.159  49.758  1.00  0.00     0.032 A 
HETATM   11  C12 UNL     1      23.444   4.019  48.813  1.00  0.00     0.046 A 
HETATM   12  C13 UNL     1      23.986   5.214  49.157  1.00  0.00     0.138 A 
HETATM   13  F1  UNL     1      24.452   5.983  48.148  1.00  0.00    -0.204 F 
HETATM   14  C14 UNL     1      24.024   5.560  50.490  1.00  0.00     0.074 A 
HETATM   15 CL1  UNL     1      24.722   7.100  50.931  1.00  0.00    -0.081 Cl
HETATM   16  C15 UNL     1      23.514   4.680  51.396  1.00  0.00     0.056 A 
ENDBRANCH   7   9
ENDBRANCH   3   7
BRANCH   1  17
HETATM   17  C2  UNL     1      26.424  -0.251  52.491  1.00  0.00     0.092 C 
HETATM   18  C1  UNL     1      26.734  -1.735  52.565  1.00  0.00     0.023 C 
BRANCH  17  19
HETATM   19  C3  UNL     1      27.400   0.426  53.390  1.00  0.00     0.077 C 
HETATM   20  C4  UNL     1      27.914   0.065  54.555  1.00  0.00     0.167 C 
HETATM   21  O1  UNL     1      28.828   0.887  55.218  1.00  0.00    -0.358 OA
HETATM   22  C5  UNL     1      29.478   1.948  54.566  1.00  0.00     0.201 C 
HETATM   23  C6  UNL     1      28.651   2.564  53.481  1.00  0.00     0.202 C 
HETATM   24  O2  UNL     1      27.791   1.656  52.829  1.00  0.00    -0.351 OA
ENDBRANCH  17  19
ENDBRANCH   1  17
TORSDOF 4
ENDMDL
MODEL 7
REMARK VINA RESULT:      -8.0      3.306      6.380
REMARK  4 active torsions:
REMARK  status: ('A' for Active; 'I' for Inactive)
REMARK    1  A    between atoms: C2_2  and  C3_3 
REMARK    2  A    between atoms: C2_2  and  C7_9 
REMARK    3  A    between atoms: C9_11  and  N1_12 
REMARK    4  A    between atoms: N1_12  and  C10_13 
ROOT
HETATM    1  C7  UNL     1      22.655   2.041  51.063  1.00  0.00     0.049 A 
HETATM    2  C8  UNL     1      24.024   1.998  51.185  1.00  0.00     0.078 A 
HETATM    3  C9  UNL     1      24.815   3.081  51.463  1.00  0.00     0.131 A 
HETATM    4  N2  UNL     1      24.159   4.238  51.617  1.00  0.00    -0.224 NA
HETATM    5  C16 UNL     1      22.828   4.341  51.510  1.00  0.00     0.235 A 
HETATM    6  N3  UNL     1      22.075   3.241  51.233  1.00  0.00    -0.246 NA
ENDROOT
BRANCH   3   7
HETATM    7  N1  UNL     1      26.219   2.919  51.565  1.00  0.00    -0.341 N 
HETATM    8  H11 UNL     1      26.817   3.646  51.067  1.00  0.00     0.167 HD
BRANCH   7   9
HETATM    9  C10 UNL     1      26.952   1.929  52.231  1.00  0.00     0.035 A 
HETATM   10  C11 UNL     1      28.009   2.251  53.092  1.00  0.00     0.032 A 
HETATM   11  C12 UNL     1      28.741   1.298  53.757  1.00  0.00     0.046 A 
HETATM   12  C13 UNL     1      28.480  -0.025  53.615  1.00  0.00     0.138 A 
HETATM   13  F1  UNL     1      29.261  -0.878  54.315  1.00  0.00    -0.204 F 
HETATM   14  C14 UNL     1      27.451  -0.407  52.782  1.00  0.00     0.074 A 
HETATM   15 CL1  UNL     1      27.114  -2.112  52.602  1.00  0.00    -0.081 Cl
HETATM   16  C15 UNL     1      26.749   0.568  52.141  1.00  0.00     0.056 A 
ENDBRANCH   7   9
ENDBRANCH   3   7
BRANCH   1  17
HETATM   17  C2  UNL     1      21.862   0.821  50.757  1.00  0.00     0.092 C 
HETATM   18  C1  UNL     1      20.676   1.143  49.866  1.00  0.00     0.023 C 
BRANCH  17  19
HETATM   19  C3  UNL     1      21.304   0.180  51.980  1.00  0.00     0.077 C 
HETATM   20  C4  UNL     1      20.091   0.211  52.511  1.00  0.00     0.167 C 
HETATM   21  O1  UNL     1      19.808  -0.486  53.687  1.00  0.00    -0.358 OA
HETATM   22  C5  UNL     1      20.665  -1.484  54.182  1.00  0.00     0.201 C 
HETATM   23  C6  UNL     1      22.104  -1.237  53.851  1.00  0.00     0.202 C 
HETATM   24  O2  UNL     1      22.305  -0.572  52.624  1.00  0.00    -0.351 OA
ENDBRANCH  17  19
ENDBRANCH   1  17
TORSDOF 4
ENDMDL
MODEL 8
REMARK VINA RESULT:      -8.0      4.714      6.748
REMARK  4 active torsions:
REMARK  status: ('A' for Active; 'I' for Inactive)
REMARK    1  A    between atoms: C2_2  and  C3_3 
REMARK    2  A    between atoms: C2_2  and  C7_9 
REMARK    3  A    between atoms: C9_11  and  N1_12 
REMARK    4  A    between atoms: N1_12  and  C10_13 
ROOT
HETATM    1  C7  UNL     1      24.726   1.962  52.195  1.00  0.00     0.049 A 
HETATM    2  C8  UNL     1      25.077   2.510  50.983  1.00  0.00     0.078 A 
HETATM    3  C9  UNL     1      24.819   3.801  50.609  1.00  0.00     0.131 A 
HETATM    4  N2  UNL     1      24.177   4.539  51.523  1.00  0.00    -0.224 NA
HETATM    5  C16 UNL     1      23.811   4.061  52.719  1.00  0.00     0.235 A 
HETATM    6  N3  UNL     1      24.085   2.771  53.056  1.00  0.00    -0.246 NA
ENDROOT
BRANCH   3   7
HETATM    7  N1  UNL     1      25.227   4.258  49.331  1.00  0.00    -0.341 N 
HETATM    8  H11 UNL     1      24.697   3.865  48.496  1.00  0.00     0.167 HD
BRANCH   7   9
HETATM    9  C10 UNL     1      26.242   5.163  48.995  1.00  0.00     0.035 A 
HETATM   10  C11 UNL     1      26.018   6.546  48.980  1.00  0.00     0.032 A 
HETATM   11  C12 UNL     1      26.997   7.453  48.655  1.00  0.00     0.046 A 
HETATM   12  C13 UNL     1      28.252   7.056  48.326  1.00  0.00     0.138 A 
HETATM   13  F1  UNL     1      29.137   8.031  48.023  1.00  0.00    -0.204 F 
HETATM   14  C14 UNL     1      28.536   5.708  48.323  1.00  0.00     0.074 A 
HETATM   15 CL1  UNL     1      30.153   5.199  47.901  1.00  0.00    -0.081 Cl
HETATM   16  C15 UNL     1      27.538   4.841  48.651  1.00  0.00     0.056 A 
ENDBRANCH   7   9
ENDBRANCH   3   7
BRANCH   1  17
HETATM   17  C2  UNL     1      25.039   0.547  52.531  1.00  0.00     0.092 C 
HETATM   18  C1  UNL     1      23.882  -0.117  53.255  1.00  0.00     0.023 C 
BRANCH  17  19
HETATM   19  C3  UNL     1      26.222   0.420  53.427  1.00  0.00     0.077 C 
HETATM   20  C4  UNL     1      26.364  -0.144  54.616  1.00  0.00     0.167 C 
HETATM   21  O1  UNL     1      27.598  -0.134  55.269  1.00  0.00    -0.358 OA
HETATM   22  C5  UNL     1      28.791   0.176  54.594  1.00  0.00     0.201 C 
HETATM   23  C6  UNL     1      28.593   1.142  53.468  1.00  0.00     0.202 C 
HETATM   24  O2  UNL     1      27.340   1.033  52.830  1.00  0.00    -0.351 OA
ENDBRANCH  17  19
ENDBRANCH   1  17
TORSDOF 4
ENDMDL
MODEL 9
REMARK VINA RESULT:      -7.8      4.579      7.664
REMARK  4 active torsions:
REMARK  status: ('A' for Active; 'I' for Inactive)
REMARK    1  A    between atoms: C2_2  and  C3_3 
REMARK    2  A    between atoms: C2_2  and  C7_9 
REMARK    3  A    between atoms: C9_11  and  N1_12 
REMARK    4  A    between atoms: N1_12  and  C10_13 
ROOT
HETATM    1  C7  UNL     1      21.964   0.034  52.558  1.00  0.00     0.049 A 
HETATM    2  C8  UNL     1      23.258  -0.087  53.006  1.00  0.00     0.078 A 
HETATM    3  C9  UNL     1      23.626  -0.735  54.155  1.00  0.00     0.131 A 
HETATM    4  N2  UNL     1      22.618  -1.270  54.853  1.00  0.00    -0.224 NA
HETATM    5  C16 UNL     1      21.338  -1.185  54.467  1.00  0.00     0.235 A 
HETATM    6  N3  UNL     1      21.010  -0.532  53.318  1.00  0.00    -0.246 NA
ENDROOT
BRANCH   3   7
HETATM    7  N1  UNL     1      24.994  -0.797  54.519  1.00  0.00    -0.341 N 
HETATM    8  H11 UNL     1      25.287  -1.624  55.122  1.00  0.00     0.167 HD
BRANCH   7   9
HETATM    9  C10 UNL     1      26.038   0.083  54.203  1.00  0.00     0.035 A 
HETATM   10  C11 UNL     1      25.818   1.458  54.046  1.00  0.00     0.032 A 
HETATM   11  C12 UNL     1      26.824   2.340  53.737  1.00  0.00     0.046 A 
HETATM   12  C13 UNL     1      28.104   1.925  53.564  1.00  0.00     0.138 A 
HETATM   13  F1  UNL     1      29.016   2.875  53.262  1.00  0.00    -0.204 F 
HETATM   14  C14 UNL     1      28.385   0.583  53.705  1.00  0.00     0.074 A 
HETATM   15 CL1  UNL     1      30.034   0.050  53.482  1.00  0.00    -0.081 Cl
HETATM   16  C15 UNL     1      27.360  -0.259  54.012  1.00  0.00     0.056 A 
ENDBRANCH   7   9
ENDBRANCH   3   7
BRANCH   1  17
HETATM   17  C2  UNL     1      21.639   0.755  51.299  1.00  0.00     0.092 C 
HETATM   18  C1  UNL     1      22.837   1.533  50.784  1.00  0.00     0.023 C 
BRANCH  17  19
HETATM   19  C3  UNL     1      20.541   1.746  51.473  1.00  0.00     0.077 C 
HETATM   20  C4  UNL     1      20.414   2.778  52.292  1.00  0.00     0.167 C 
HETATM   21  O1  UNL     1      19.267   3.574  52.265  1.00  0.00    -0.358 OA
HETATM   22  C5  UNL     1      18.358   3.529  51.194  1.00  0.00     0.201 C 
HETATM   23  C6  UNL     1      18.284   2.182  50.545  1.00  0.00     0.202 C 
HETATM   24  O2  UNL     1      19.497   1.464  50.571  1.00  0.00    -0.351 OA
ENDBRANCH  17  19
ENDBRANCH   1  17
TORSDOF 4
ENDMDL
