MODEL 1
REMARK VINA RESULT:      -7.4      0.000      0.000
REMARK  5 active torsions:
REMARK  status: ('A' for Active; 'I' for Inactive)
REMARK    1  A    between atoms: C2_2  and  C3_3 
REMARK    2  A    between atoms: C2_2  and  N2_9 
REMARK    3  A    between atoms: C3_3  and  C4_4 
REMARK    4  A    between atoms: C4_4  and  N1_5 
REMARK    5  A    between atoms: N1_5  and  C6_7 
ROOT
HETATM    1  N2  UNL     1      23.151   0.075  53.222  1.00  0.00    -0.193 NA
HETATM    2  C7  UNL     1      24.420  -0.643  53.351  1.00  0.00     0.126 C 
HETATM    3  C8  UNL     1      25.374  -0.338  52.220  1.00  0.00     0.057 C 
HETATM    4  C9  UNL     1      26.758  -0.786  52.631  1.00  0.00    -0.034 A 
HETATM    5  C10 UNL     1      27.374  -2.105  52.657  1.00  0.00     0.060 A 
HETATM    6  S1  UNL     1      29.032  -1.640  53.415  1.00  0.00    -0.081 SA
HETATM    7  C11 UNL     1      28.666   0.063  53.556  1.00  0.00     0.113 A 
HETATM    8  N3  UNL     1      29.569   0.935  54.078  1.00  0.00    -0.234 NA
HETATM    9  C12 UNL     1      29.261   2.243  54.174  1.00  0.00     0.236 A 
HETATM   10  N4  UNL     1      28.034   2.455  53.702  1.00  0.00    -0.224 NA
HETATM   11  C13 UNL     1      27.148   1.598  53.190  1.00  0.00     0.138 A 
HETATM   12  C14 UNL     1      27.406   0.298  53.080  1.00  0.00     0.052 A 
HETATM   13  N5  UNL     1      26.034   2.447  52.833  1.00  0.00    -0.372 N 
HETATM   14  C15 UNL     1      24.798   3.164  52.887  1.00  0.00     0.149 C 
HETATM   15  C16 UNL     1      23.607   2.265  52.785  1.00  0.00     0.213 C 
HETATM   16  O2  UNL     1      23.521   1.328  53.757  1.00  0.00    -0.301 OA
HETATM   17  H19 UNL     1      26.409   2.657  51.839  1.00  0.00     0.161 HD
ENDROOT
BRANCH   1  18
HETATM   18  C2  UNL     1      22.208  -0.478  54.244  1.00  0.00     0.083 C 
HETATM   19  C1  UNL     1      22.971  -1.299  55.211  1.00  0.00     0.029 C 
BRANCH  18  20
HETATM   20  C3  UNL     1      21.046  -1.086  53.570  1.00  0.00     0.041 C 
BRANCH  20  21
HETATM   21  C4  UNL     1      19.774  -0.334  53.512  1.00  0.00     0.126 C 
BRANCH  21  22
HETATM   22  N1  UNL     1      19.582   0.612  52.477  1.00  0.00    -0.364 N 
HETATM   23  C5  UNL     1      18.948   0.169  51.228  1.00  0.00     0.152 C 
BRANCH  22  24
HETATM   24  C6  UNL     1      19.943   1.984  52.511  1.00  0.00     0.350 C 
HETATM   25  O1  UNL     1      20.173   3.185  52.766  1.00  0.00    -0.284 OA
ENDBRANCH  22  24
ENDBRANCH  21  22
ENDBRANCH  20  21
ENDBRANCH  18  20
ENDBRANCH   1  18
TORSDOF 5
ENDMDL
MODEL 2
REMARK VINA RESULT:      -7.3      4.185      7.052
REMARK  5 active torsions:
REMARK  status: ('A' for Active; 'I' for Inactive)
REMARK    1  A    between atoms: C2_2  and  C3_3 
REMARK    2  A    between atoms: C2_2  and  N2_9 
REMARK    3  A    between atoms: C3_3  and  C4_4 
REMARK    4  A    between atoms: C4_4  and  N1_5 
REMARK    5  A    between atoms: N1_5  and  C6_7 
ROOT
HETATM    1  N2  UNL     1      24.988   2.007  51.512  1.00  0.00    -0.193 NA
HETATM    2  C7  UNL     1      25.930   2.934  50.882  1.00  0.00     0.126 C 
HETATM    3  C8  UNL     1      25.420   3.468  49.564  1.00  0.00     0.057 C 
HETATM    4  C9  UNL     1      26.241   4.682  49.194  1.00  0.00    -0.034 A 
HETATM    5  C10 UNL     1      27.570   4.806  48.612  1.00  0.00     0.060 A 
HETATM    6  S1  UNL     1      27.735   6.679  48.650  1.00  0.00    -0.081 SA
HETATM    7  C11 UNL     1      26.164   6.959  49.363  1.00  0.00     0.113 A 
HETATM    8  N3  UNL     1      25.729   8.218  49.633  1.00  0.00    -0.234 NA
HETATM    9  C12 UNL     1      24.513   8.405  50.182  1.00  0.00     0.236 A 
HETATM   10  N4  UNL     1      23.916   7.230  50.370  1.00  0.00    -0.224 NA
HETATM   11  C13 UNL     1      24.344   5.994  50.104  1.00  0.00     0.138 A 
HETATM   12  C14 UNL     1      25.538   5.761  49.568  1.00  0.00     0.052 A 
HETATM   13  N5  UNL     1      23.229   5.165  50.502  1.00  0.00    -0.372 N 
HETATM   14  C15 UNL     1      22.361   4.332  51.275  1.00  0.00     0.149 C 
HETATM   15  C16 UNL     1      22.919   2.960  51.486  1.00  0.00     0.213 C 
HETATM   16  O2  UNL     1      24.110   2.927  52.125  1.00  0.00    -0.301 OA
HETATM   17  H19 UNL     1      22.746   5.209  49.534  1.00  0.00     0.161 HD
ENDROOT
BRANCH   1  18
HETATM   18  C2  UNL     1      25.687   1.364  52.669  1.00  0.00     0.083 C 
HETATM   19  C1  UNL     1      25.764   2.331  53.786  1.00  0.00     0.029 C 
BRANCH  18  20
HETATM   20  C3  UNL     1      26.933   0.726  52.204  1.00  0.00     0.041 C 
BRANCH  20  21
HETATM   21  C4  UNL     1      27.567  -0.312  53.045  1.00  0.00     0.126 C 
BRANCH  21  22
HETATM   22  N1  UNL     1      28.812  -0.033  53.657  1.00  0.00    -0.364 N 
HETATM   23  C5  UNL     1      29.860  -1.061  53.620  1.00  0.00     0.152 C 
BRANCH  22  24
HETATM   24  C6  UNL     1      29.174   1.167  54.323  1.00  0.00     0.350 C 
HETATM   25  O1  UNL     1      29.376   2.330  54.729  1.00  0.00    -0.284 OA
ENDBRANCH  22  24
ENDBRANCH  21  22
ENDBRANCH  20  21
ENDBRANCH  18  20
ENDBRANCH   1  18
TORSDOF 5
ENDMDL
MODEL 3
REMARK VINA RESULT:      -7.1      3.989      6.265
REMARK  5 active torsions:
REMARK  status: ('A' for Active; 'I' for Inactive)
REMARK    1  A    between atoms: C2_2  and  C3_3 
REMARK    2  A    between atoms: C2_2  and  N2_9 
REMARK    3  A    between atoms: C3_3  and  C4_4 
REMARK    4  A    between atoms: C4_4  and  N1_5 
REMARK    5  A    between atoms: N1_5  and  C6_7 
ROOT
HETATM    1  N2  UNL     1      25.854   1.912  51.733  1.00  0.00    -0.193 NA
HETATM    2  C7  UNL     1      26.614   2.916  50.986  1.00  0.00     0.126 C 
HETATM    3  C8  UNL     1      25.910   3.350  49.722  1.00  0.00     0.057 C 
HETATM    4  C9  UNL     1      26.546   4.635  49.241  1.00  0.00    -0.034 A 
HETATM    5  C10 UNL     1      27.783   4.883  48.515  1.00  0.00     0.060 A 
HETATM    6  S1  UNL     1      27.742   6.763  48.500  1.00  0.00    -0.081 SA
HETATM    7  C11 UNL     1      26.235   6.894  49.374  1.00  0.00     0.113 A 
HETATM    8  N3  UNL     1      25.694   8.106  49.667  1.00  0.00    -0.234 NA
HETATM    9  C12 UNL     1      24.531   8.177  50.342  1.00  0.00     0.236 A 
HETATM   10  N4  UNL     1      24.091   6.950  50.617  1.00  0.00    -0.224 NA
HETATM   11  C13 UNL     1      24.623   5.760  50.329  1.00  0.00     0.138 A 
HETATM   12  C14 UNL     1      25.771   5.641  49.670  1.00  0.00     0.052 A 
HETATM   13  N5  UNL     1      23.656   4.828  50.863  1.00  0.00    -0.372 N 
HETATM   14  C15 UNL     1      22.974   3.930  51.742  1.00  0.00     0.149 C 
HETATM   15  C16 UNL     1      23.700   2.634  51.917  1.00  0.00     0.213 C 
HETATM   16  O2  UNL     1      24.949   2.750  52.422  1.00  0.00    -0.301 OA
HETATM   17  H19 UNL     1      23.071   4.789  49.953  1.00  0.00     0.161 HD
ENDROOT
BRANCH   1  18
HETATM   18  C2  UNL     1      26.739   1.384  52.819  1.00  0.00     0.083 C 
HETATM   19  C1  UNL     1      27.874   2.315  53.012  1.00  0.00     0.029 C 
BRANCH  18  20
HETATM   20  C3  UNL     1      27.032  -0.040  52.572  1.00  0.00     0.041 C 
BRANCH  20  21
HETATM   21  C4  UNL     1      25.961  -1.040  52.768  1.00  0.00     0.126 C 
BRANCH  21  22
HETATM   22  N1  UNL     1      24.989  -0.816  53.772  1.00  0.00    -0.364 N 
HETATM   23  C5  UNL     1      23.609  -0.526  53.362  1.00  0.00     0.152 C 
BRANCH  22  24
HETATM   24  C6  UNL     1      25.203  -0.843  55.175  1.00  0.00     0.350 C 
HETATM   25  O1  UNL     1      25.496  -1.079  56.366  1.00  0.00    -0.284 OA
ENDBRANCH  22  24
ENDBRANCH  21  22
ENDBRANCH  20  21
ENDBRANCH  18  20
ENDBRANCH   1  18
TORSDOF 5
ENDMDL
MODEL 4
REMARK VINA RESULT:      -7.1      2.097      3.080
REMARK  5 active torsions:
REMARK  status: ('A' for Active; 'I' for Inactive)
REMARK    1  A    between atoms: C2_2  and  C3_3 
REMARK    2  A    between atoms: C2_2  and  N2_9 
REMARK    3  A    between atoms: C3_3  and  C4_4 
REMARK    4  A    between atoms: C4_4  and  N1_5 
REMARK    5  A    between atoms: N1_5  and  C6_7 
ROOT
HETATM    1  N2  UNL     1      22.891   2.978  51.125  1.00  0.00    -0.193 NA
HETATM    2  C7  UNL     1      23.357   2.163  52.247  1.00  0.00     0.126 C 
HETATM    3  C8  UNL     1      24.303   1.068  51.813  1.00  0.00     0.057 C 
HETATM    4  C9  UNL     1      25.027   0.552  53.036  1.00  0.00    -0.034 A 
HETATM    5  C10 UNL     1      24.608  -0.368  54.085  1.00  0.00     0.060 A 
HETATM    6  S1  UNL     1      26.133  -0.275  55.181  1.00  0.00    -0.081 SA
HETATM    7  C11 UNL     1      26.989   0.858  54.164  1.00  0.00     0.113 A 
HETATM    8  N3  UNL     1      28.228   1.306  54.497  1.00  0.00    -0.234 NA
HETATM    9  C12 UNL     1      28.865   2.180  53.693  1.00  0.00     0.236 A 
HETATM   10  N4  UNL     1      28.103   2.462  52.638  1.00  0.00    -0.224 NA
HETATM   11  C13 UNL     1      26.887   2.022  52.311  1.00  0.00     0.138 A 
HETATM   12  C14 UNL     1      26.218   1.164  53.076  1.00  0.00     0.052 A 
HETATM   13  N5  UNL     1      26.631   2.668  51.044  1.00  0.00    -0.372 N 
HETATM   14  C15 UNL     1      26.183   3.604  50.061  1.00  0.00     0.149 C 
HETATM   15  C16 UNL     1      24.699   3.578  49.875  1.00  0.00     0.213 C 
HETATM   16  O2  UNL     1      23.985   3.859  50.989  1.00  0.00    -0.301 OA
HETATM   17  H19 UNL     1      27.077   1.875  50.458  1.00  0.00     0.161 HD
ENDROOT
BRANCH   1  18
HETATM   18  C2  UNL     1      21.791   3.860  51.627  1.00  0.00     0.083 C 
HETATM   19  C1  UNL     1      22.383   5.042  52.292  1.00  0.00     0.029 C 
BRANCH  18  20
HETATM   20  C3  UNL     1      20.809   3.052  52.375  1.00  0.00     0.041 C 
BRANCH  20  21
HETATM   21  C4  UNL     1      20.028   2.022  51.657  1.00  0.00     0.126 C 
BRANCH  21  22
HETATM   22  N1  UNL     1      19.732   0.804  52.313  1.00  0.00    -0.364 N 
HETATM   23  C5  UNL     1      18.700  -0.071  51.741  1.00  0.00     0.152 C 
BRANCH  22  24
HETATM   24  C6  UNL     1      20.340   0.315  53.499  1.00  0.00     0.350 C 
HETATM   25  O1  UNL     1      20.919   0.117  54.587  1.00  0.00    -0.284 OA
ENDBRANCH  22  24
ENDBRANCH  21  22
ENDBRANCH  20  21
ENDBRANCH  18  20
ENDBRANCH   1  18
TORSDOF 5
ENDMDL
MODEL 5
REMARK VINA RESULT:      -7.1      3.734      6.752
REMARK  5 active torsions:
REMARK  status: ('A' for Active; 'I' for Inactive)
REMARK    1  A    between atoms: C2_2  and  C3_3 
REMARK    2  A    between atoms: C2_2  and  N2_9 
REMARK    3  A    between atoms: C3_3  and  C4_4 
REMARK    4  A    between atoms: C4_4  and  N1_5 
REMARK    5  A    between atoms: N1_5  and  C6_7 
ROOT
HETATM    1  N2  UNL     1      23.931   3.517  51.387  1.00  0.00    -0.193 NA
HETATM    2  C7  UNL     1      22.720   2.787  51.764  1.00  0.00     0.126 C 
HETATM    3  C8  UNL     1      22.748   1.346  51.308  1.00  0.00     0.057 C 
HETATM    4  C9  UNL     1      21.682   0.587  52.064  1.00  0.00    -0.034 A 
HETATM    5  C10 UNL     1      20.240   0.510  51.877  1.00  0.00     0.060 A 
HETATM    6  S1  UNL     1      19.808  -0.567  53.357  1.00  0.00    -0.081 SA
HETATM    7  C11 UNL     1      21.454  -0.721  53.923  1.00  0.00     0.113 A 
HETATM    8  N3  UNL     1      21.750  -1.441  55.037  1.00  0.00    -0.234 NA
HETATM    9  C12 UNL     1      23.028  -1.544  55.450  1.00  0.00     0.236 A 
HETATM   10  N4  UNL     1      23.827  -0.870  54.624  1.00  0.00    -0.224 NA
HETATM   11  C13 UNL     1      23.535  -0.163  53.530  1.00  0.00     0.138 A 
HETATM   12  C14 UNL     1      22.288  -0.030  53.088  1.00  0.00     0.052 A 
HETATM   13  N5  UNL     1      24.830   0.285  53.071  1.00  0.00    -0.372 N 
HETATM   14  C15 UNL     1      25.998   1.083  52.861  1.00  0.00     0.149 C 
HETATM   15  C16 UNL     1      25.739   2.258  51.972  1.00  0.00     0.213 C 
HETATM   16  O2  UNL     1      24.796   3.114  52.428  1.00  0.00    -0.301 OA
HETATM   17  H19 UNL     1      25.007  -0.592  52.460  1.00  0.00     0.161 HD
ENDROOT
BRANCH   1  18
HETATM   18  C2  UNL     1      23.695   4.968  51.668  1.00  0.00     0.083 C 
HETATM   19  C1  UNL     1      22.243   5.196  51.844  1.00  0.00     0.029 C 
BRANCH  18  20
HETATM   20  C3  UNL     1      24.421   5.789  50.682  1.00  0.00     0.041 C 
BRANCH  20  21
HETATM   21  C4  UNL     1      25.259   5.120  49.664  1.00  0.00     0.126 C 
BRANCH  21  22
HETATM   22  N1  UNL     1      26.390   5.798  49.151  1.00  0.00    -0.364 N 
HETATM   23  C5  UNL     1      26.394   7.266  49.162  1.00  0.00     0.152 C 
BRANCH  22  24
HETATM   24  C6  UNL     1      27.560   5.201  48.613  1.00  0.00     0.350 C 
HETATM   25  O1  UNL     1      28.697   4.767  48.335  1.00  0.00    -0.284 OA
ENDBRANCH  22  24
ENDBRANCH  21  22
ENDBRANCH  20  21
ENDBRANCH  18  20
ENDBRANCH   1  18
TORSDOF 5
ENDMDL
MODEL 6
REMARK VINA RESULT:      -7.0      3.740      7.041
REMARK  5 active torsions:
REMARK  status: ('A' for Active; 'I' for Inactive)
REMARK    1  A    between atoms: C2_2  and  C3_3 
REMARK    2  A    between atoms: C2_2  and  N2_9 
REMARK    3  A    between atoms: C3_3  and  C4_4 
REMARK    4  A    between atoms: C4_4  and  N1_5 
REMARK    5  A    between atoms: N1_5  and  C6_7 
ROOT
HETATM    1  N2  UNL     1      25.065   1.380  52.826  1.00  0.00    -0.193 NA
HETATM    2  C7  UNL     1      23.687   1.793  52.555  1.00  0.00     0.126 C 
HETATM    3  C8  UNL     1      23.526   3.295  52.535  1.00  0.00     0.057 C 
HETATM    4  C9  UNL     1      22.209   3.624  51.870  1.00  0.00    -0.034 A 
HETATM    5  C10 UNL     1      20.842   3.588  52.372  1.00  0.00     0.060 A 
HETATM    6  S1  UNL     1      19.936   4.047  50.789  1.00  0.00    -0.081 SA
HETATM    7  C11 UNL     1      21.382   4.195  49.819  1.00  0.00     0.113 A 
HETATM    8  N3  UNL     1      21.315   4.528  48.503  1.00  0.00    -0.234 NA
HETATM    9  C12 UNL     1      22.446   4.637  47.780  1.00  0.00     0.236 A 
HETATM   10  N4  UNL     1      23.502   4.379  48.549  1.00  0.00    -0.224 NA
HETATM   11  C13 UNL     1      23.567   4.052  49.841  1.00  0.00     0.138 A 
HETATM   12  C14 UNL     1      22.478   3.928  50.593  1.00  0.00     0.052 A 
HETATM   13  N5  UNL     1      24.988   3.941  50.083  1.00  0.00    -0.372 N 
HETATM   14  C15 UNL     1      26.304   3.403  50.231  1.00  0.00     0.149 C 
HETATM   15  C16 UNL     1      26.451   2.573  51.467  1.00  0.00     0.213 C 
HETATM   16  O2  UNL     1      25.619   1.509  51.535  1.00  0.00    -0.301 OA
HETATM   17  H19 UNL     1      25.108   4.986  50.339  1.00  0.00     0.161 HD
ENDROOT
BRANCH   1  18
HETATM   18  C2  UNL     1      25.060  -0.098  53.061  1.00  0.00     0.083 C 
HETATM   19  C1  UNL     1      23.710  -0.513  53.504  1.00  0.00     0.029 C 
BRANCH  18  20
HETATM   20  C3  UNL     1      26.219  -0.472  53.894  1.00  0.00     0.041 C 
BRANCH  20  21
HETATM   21  C4  UNL     1      27.509  -0.773  53.238  1.00  0.00     0.126 C 
BRANCH  21  22
HETATM   22  N1  UNL     1      28.665  -0.060  53.637  1.00  0.00    -0.364 N 
HETATM   23  C5  UNL     1      29.963  -0.744  53.593  1.00  0.00     0.152 C 
BRANCH  22  24
HETATM   24  C6  UNL     1      28.712   1.285  54.086  1.00  0.00     0.350 C 
HETATM   25  O1  UNL     1      28.754   2.523  54.247  1.00  0.00    -0.284 OA
ENDBRANCH  22  24
ENDBRANCH  21  22
ENDBRANCH  20  21
ENDBRANCH  18  20
ENDBRANCH   1  18
TORSDOF 5
ENDMDL
MODEL 7
REMARK VINA RESULT:      -7.0      3.616      4.856
REMARK  5 active torsions:
REMARK  status: ('A' for Active; 'I' for Inactive)
REMARK    1  A    between atoms: C2_2  and  C3_3 
REMARK    2  A    between atoms: C2_2  and  N2_9 
REMARK    3  A    between atoms: C3_3  and  C4_4 
REMARK    4  A    between atoms: C4_4  and  N1_5 
REMARK    5  A    between atoms: N1_5  and  C6_7 
ROOT
HETATM    1  N2  UNL     1      22.945   3.516  51.044  1.00  0.00    -0.193 NA
HETATM    2  C7  UNL     1      23.311   2.577  52.106  1.00  0.00     0.126 C 
HETATM    3  C8  UNL     1      24.180   1.448  51.603  1.00  0.00     0.057 C 
HETATM    4  C9  UNL     1      24.823   0.776  52.795  1.00  0.00    -0.034 A 
HETATM    5  C10 UNL     1      24.302  -0.189  53.754  1.00  0.00     0.060 A 
HETATM    6  S1  UNL     1      25.795  -0.311  54.890  1.00  0.00    -0.081 SA
HETATM    7  C11 UNL     1      26.769   0.828  53.990  1.00  0.00     0.113 A 
HETATM    8  N3  UNL     1      28.029   1.144  54.389  1.00  0.00    -0.234 NA
HETATM    9  C12 UNL     1      28.757   2.025  53.676  1.00  0.00     0.236 A 
HETATM   10  N4  UNL     1      28.053   2.454  52.631  1.00  0.00    -0.224 NA
HETATM   11  C13 UNL     1      26.815   2.143  52.240  1.00  0.00     0.138 A 
HETATM   12  C14 UNL     1      26.058   1.284  52.915  1.00  0.00     0.052 A 
HETATM   13  N5  UNL     1      26.649   2.909  51.026  1.00  0.00    -0.372 N 
HETATM   14  C15 UNL     1      26.307   3.956  50.114  1.00  0.00     0.149 C 
HETATM   15  C16 UNL     1      24.833   4.066  49.892  1.00  0.00     0.213 C 
HETATM   16  O2  UNL     1      24.110   4.313  51.008  1.00  0.00    -0.301 OA
HETATM   17  H19 UNL     1      27.049   2.133  50.386  1.00  0.00     0.161 HD
ENDROOT
BRANCH   1  18
HETATM   18  C2  UNL     1      21.904   4.441  51.593  1.00  0.00     0.083 C 
HETATM   19  C1  UNL     1      20.787   3.640  52.142  1.00  0.00     0.029 C 
BRANCH  18  20
HETATM   20  C3  UNL     1      21.597   5.488  50.600  1.00  0.00     0.041 C 
BRANCH  20  21
HETATM   21  C4  UNL     1      21.710   6.908  50.994  1.00  0.00     0.126 C 
BRANCH  21  22
HETATM   22  N1  UNL     1      22.631   7.738  50.312  1.00  0.00    -0.364 N 
HETATM   23  C5  UNL     1      22.115   8.714  49.343  1.00  0.00     0.152 C 
BRANCH  22  24
HETATM   24  C6  UNL     1      24.042   7.735  50.465  1.00  0.00     0.350 C 
HETATM   25  O1  UNL     1      25.254   7.500  50.653  1.00  0.00    -0.284 OA
ENDBRANCH  22  24
ENDBRANCH  21  22
ENDBRANCH  20  21
ENDBRANCH  18  20
ENDBRANCH   1  18
TORSDOF 5
ENDMDL
MODEL 8
REMARK VINA RESULT:      -6.7      3.442      4.435
REMARK  5 active torsions:
REMARK  status: ('A' for Active; 'I' for Inactive)
REMARK    1  A    between atoms: C2_2  and  C3_3 
REMARK    2  A    between atoms: C2_2  and  N2_9 
REMARK    3  A    between atoms: C3_3  and  C4_4 
REMARK    4  A    between atoms: C4_4  and  N1_5 
REMARK    5  A    between atoms: N1_5  and  C6_7 
ROOT
HETATM    1  N2  UNL     1      23.013   3.523  51.100  1.00  0.00    -0.193 NA
HETATM    2  C7  UNL     1      23.378   2.584  52.162  1.00  0.00     0.126 C 
HETATM    3  C8  UNL     1      24.242   1.451  51.660  1.00  0.00     0.057 C 
HETATM    4  C9  UNL     1      24.885   0.778  52.851  1.00  0.00    -0.034 A 
HETATM    5  C10 UNL     1      24.362  -0.183  53.812  1.00  0.00     0.060 A 
HETATM    6  S1  UNL     1      25.858  -0.309  54.945  1.00  0.00    -0.081 SA
HETATM    7  C11 UNL     1      26.834   0.825  54.042  1.00  0.00     0.113 A 
HETATM    8  N3  UNL     1      28.096   1.138  54.437  1.00  0.00    -0.234 NA
HETATM    9  C12 UNL     1      28.826   2.015  53.721  1.00  0.00     0.236 A 
HETATM   10  N4  UNL     1      28.120   2.445  52.676  1.00  0.00    -0.224 NA
HETATM   11  C13 UNL     1      26.881   2.137  52.289  1.00  0.00     0.138 A 
HETATM   12  C14 UNL     1      26.122   1.282  52.967  1.00  0.00     0.052 A 
HETATM   13  N5  UNL     1      26.715   2.902  51.074  1.00  0.00    -0.372 N 
HETATM   14  C15 UNL     1      26.375   3.949  50.161  1.00  0.00     0.149 C 
HETATM   15  C16 UNL     1      24.900   4.064  49.943  1.00  0.00     0.213 C 
HETATM   16  O2  UNL     1      24.181   4.315  51.060  1.00  0.00    -0.301 OA
HETATM   17  H19 UNL     1      27.110   2.123  50.434  1.00  0.00     0.161 HD
ENDROOT
BRANCH   1  18
HETATM   18  C2  UNL     1      21.977   4.452  51.650  1.00  0.00     0.083 C 
HETATM   19  C1  UNL     1      20.764   3.676  51.994  1.00  0.00     0.029 C 
BRANCH  18  20
HETATM   20  C3  UNL     1      21.834   5.619  50.760  1.00  0.00     0.041 C 
BRANCH  20  21
HETATM   21  C4  UNL     1      21.104   5.467  49.483  1.00  0.00     0.126 C 
BRANCH  21  22
HETATM   22  N1  UNL     1      21.830   5.150  48.311  1.00  0.00    -0.364 N 
HETATM   23  C5  UNL     1      22.638   6.200  47.678  1.00  0.00     0.152 C 
BRANCH  22  24
HETATM   24  C6  UNL     1      21.869   3.890  47.657  1.00  0.00     0.350 C 
HETATM   25  O1  UNL     1      22.122   2.764  47.182  1.00  0.00    -0.284 OA
ENDBRANCH  22  24
ENDBRANCH  21  22
ENDBRANCH  20  21
ENDBRANCH  18  20
ENDBRANCH   1  18
TORSDOF 5
ENDMDL
MODEL 9
REMARK VINA RESULT:      -6.6      2.360      4.046
REMARK  5 active torsions:
REMARK  status: ('A' for Active; 'I' for Inactive)
REMARK    1  A    between atoms: C2_2  and  C3_3 
REMARK    2  A    between atoms: C2_2  and  N2_9 
REMARK    3  A    between atoms: C3_3  and  C4_4 
REMARK    4  A    between atoms: C4_4  and  N1_5 
REMARK    5  A    between atoms: N1_5  and  C6_7 
ROOT
HETATM    1  N2  UNL     1      24.326   2.764  51.961  1.00  0.00    -0.193 NA
HETATM    2  C7  UNL     1      25.755   2.562  52.203  1.00  0.00     0.126 C 
HETATM    3  C8  UNL     1      26.038   2.049  53.595  1.00  0.00     0.057 C 
HETATM    4  C9  UNL     1      27.447   1.502  53.623  1.00  0.00    -0.034 A 
HETATM    5  C10 UNL     1      28.738   2.170  53.719  1.00  0.00     0.060 A 
HETATM    6  S1  UNL     1      29.859   0.669  53.558  1.00  0.00    -0.081 SA
HETATM    7  C11 UNL     1      28.555  -0.484  53.406  1.00  0.00     0.113 A 
HETATM    8  N3  UNL     1      28.804  -1.811  53.251  1.00  0.00    -0.234 NA
HETATM    9  C12 UNL     1      27.780  -2.678  53.137  1.00  0.00     0.236 A 
HETATM   10  N4  UNL     1      26.622  -2.022  53.204  1.00  0.00    -0.224 NA
HETATM   11  C13 UNL     1      26.378  -0.719  53.356  1.00  0.00     0.138 A 
HETATM   12  C14 UNL     1      27.357   0.173  53.467  1.00  0.00     0.052 A 
HETATM   13  N5  UNL     1      24.935  -0.654  53.387  1.00  0.00    -0.372 N 
HETATM   14  C15 UNL     1      23.571  -0.515  52.982  1.00  0.00     0.149 C 
HETATM   15  C16 UNL     1      23.212   0.898  52.646  1.00  0.00     0.213 C 
HETATM   16  O2  UNL     1      23.940   1.443  51.645  1.00  0.00    -0.301 OA
HETATM   17  H19 UNL     1      24.871  -0.793  54.458  1.00  0.00     0.161 HD
ENDROOT
BRANCH   1  18
HETATM   18  C2  UNL     1      24.182   3.492  50.661  1.00  0.00     0.083 C 
HETATM   19  C1  UNL     1      25.526   3.852  50.157  1.00  0.00     0.029 C 
BRANCH  18  20
HETATM   20  C3  UNL     1      23.174   4.559  50.799  1.00  0.00     0.041 C 
BRANCH  20  21
HETATM   21  C4  UNL     1      21.978   4.537  49.930  1.00  0.00     0.126 C 
BRANCH  21  22
HETATM   22  N1  UNL     1      20.695   4.525  50.527  1.00  0.00    -0.364 N 
HETATM   23  C5  UNL     1      19.606   5.258  49.871  1.00  0.00     0.152 C 
BRANCH  22  24
HETATM   24  C6  UNL     1      20.330   3.860  51.727  1.00  0.00     0.350 C 
HETATM   25  O1  UNL     1      20.196   3.132  52.733  1.00  0.00    -0.284 OA
ENDBRANCH  22  24
ENDBRANCH  21  22
ENDBRANCH  20  21
ENDBRANCH  18  20
ENDBRANCH   1  18
TORSDOF 5
ENDMDL
