MODEL 1
REMARK VINA RESULT:      -6.8      0.000      0.000
REMARK  10 active torsions:
REMARK  status: ('A' for Active; 'I' for Inactive)
REMARK    1  A    between atoms: C4_6  and  N3_7 
REMARK    2  A    between atoms: N3_7  and  C5_8 
REMARK    3  A    between atoms: C7_10  and  O1_11 
REMARK    4  A    between atoms: O1_11  and  C8_12 
REMARK    5  A    between atoms: C8_12  and  C9_13 
REMARK    6  A    between atoms: C9_13  and  C10_14 
REMARK    7  A    between atoms: C10_14  and  C11_15 
REMARK    8  A    between atoms: C11_15  and  C12_16 
REMARK    9  A    between atoms: C12_16  and  C13_17 
REMARK   10  A    between atoms: C13_17  and  C14_18 
ROOT
HETATM    1  C5  UNL     1      24.702   2.008  52.865  1.00  0.00     0.034 A 
HETATM    2  C6  UNL     1      24.280   1.663  51.642  1.00  0.00     0.040 A 
HETATM    3  C7  UNL     1      23.587   2.770  50.893  1.00  0.00     0.191 A 
HETATM    4  C15 UNL     1      23.682   3.853  51.929  1.00  0.00     0.046 A 
HETATM    5 CL1  UNL     1      23.075   5.487  51.774  1.00  0.00    -0.086 Cl
HETATM    6  C16 UNL     1      24.302   3.418  53.017  1.00  0.00     0.051 A 
ENDROOT
BRANCH   1   7
HETATM    7  N3  UNL     1      25.393   1.220  53.851  1.00  0.00    -0.341 N 
HETATM    8  H5  UNL     1      24.800   0.800  54.577  1.00  0.00     0.167 HD
BRANCH   7   9
HETATM    9  C4  UNL     1      26.806   1.046  53.806  1.00  0.00     0.137 A 
HETATM   10  N2  UNL     1      27.500   2.188  54.048  1.00  0.00    -0.224 NA
HETATM   11  C3  UNL     1      28.856   2.143  54.031  1.00  0.00     0.235 A 
HETATM   12  N1  UNL     1      29.498   0.995  53.781  1.00  0.00    -0.246 NA
HETATM   13  C2  UNL     1      28.854  -0.173  53.533  1.00  0.00     0.041 A 
HETATM   14  C1  UNL     1      29.564  -1.446  53.254  1.00  0.00     0.071 C 
HETATM   15  C17 UNL     1      27.479  -0.137  53.547  1.00  0.00     0.008 A 
HETATM   16  C18 UNL     1      26.642  -1.330  53.295  1.00  0.00     0.054 C 
ENDBRANCH   7   9
ENDBRANCH   1   7
BRANCH   3  17
HETATM   17  O1  UNL     1      22.265   2.430  50.801  1.00  0.00    -0.373 OA
BRANCH  17  18
HETATM   18  C8  UNL     1      21.990   1.313  50.028  1.00  0.00     0.196 C 
BRANCH  18  19
HETATM   19  C9  UNL     1      21.054   0.406  50.717  1.00  0.00    -0.004 C 
BRANCH  19  20
HETATM   20  C10 UNL     1      19.773   0.424  51.129  1.00  0.00    -0.023 C 
BRANCH  20  21
HETATM   21  C11 UNL     1      20.028   0.258  52.541  1.00  0.00     0.020 C 
BRANCH  21  22
HETATM   22  C12 UNL     1      20.786   0.130  53.586  1.00  0.00     0.001 C 
BRANCH  22  23
HETATM   23  C13 UNL     1      21.465  -0.351  54.817  1.00  0.00     0.037 C 
BRANCH  23  24
HETATM   24  C14 UNL     1      22.757  -1.034  54.460  1.00  0.00     0.222 C 
HETATM   25  F1  UNL     1      22.911  -1.065  53.093  1.00  0.00    -0.255 F 
ENDBRANCH  23  24
ENDBRANCH  22  23
ENDBRANCH  21  22
ENDBRANCH  20  21
ENDBRANCH  19  20
ENDBRANCH  18  19
ENDBRANCH  17  18
ENDBRANCH   3  17
TORSDOF 10
ENDMDL
MODEL 2
REMARK VINA RESULT:      -6.5      3.944      5.948
REMARK  10 active torsions:
REMARK  status: ('A' for Active; 'I' for Inactive)
REMARK    1  A    between atoms: C4_6  and  N3_7 
REMARK    2  A    between atoms: N3_7  and  C5_8 
REMARK    3  A    between atoms: C7_10  and  O1_11 
REMARK    4  A    between atoms: O1_11  and  C8_12 
REMARK    5  A    between atoms: C8_12  and  C9_13 
REMARK    6  A    between atoms: C9_13  and  C10_14 
REMARK    7  A    between atoms: C10_14  and  C11_15 
REMARK    8  A    between atoms: C11_15  and  C12_16 
REMARK    9  A    between atoms: C12_16  and  C13_17 
REMARK   10  A    between atoms: C13_17  and  C14_18 
ROOT
HETATM    1  C5  UNL     1      24.378   1.959  52.774  1.00  0.00     0.034 A 
HETATM    2  C6  UNL     1      24.219   3.183  52.253  1.00  0.00     0.040 A 
HETATM    3  C7  UNL     1      23.296   3.232  51.064  1.00  0.00     0.191 A 
HETATM    4  C15 UNL     1      22.937   1.776  50.982  1.00  0.00     0.046 A 
HETATM    5 CL1  UNL     1      21.867   1.040  49.808  1.00  0.00    -0.086 Cl
HETATM    6  C16 UNL     1      23.543   1.081  51.935  1.00  0.00     0.051 A 
ENDROOT
BRANCH   1   7
HETATM    7  N3  UNL     1      25.174   1.540  53.896  1.00  0.00    -0.341 N 
HETATM    8  H5  UNL     1      24.667   1.435  54.783  1.00  0.00     0.167 HD
BRANCH   7   9
HETATM    9  C4  UNL     1      26.571   1.291  53.767  1.00  0.00     0.137 A 
HETATM   10  N2  UNL     1      27.330   2.413  53.861  1.00  0.00    -0.224 NA
HETATM   11  C3  UNL     1      28.678   2.298  53.752  1.00  0.00     0.235 A 
HETATM   12  N1  UNL     1      29.249   1.102  53.556  1.00  0.00    -0.246 NA
HETATM   13  C2  UNL     1      28.536  -0.048  53.454  1.00  0.00     0.041 A 
HETATM   14  C1  UNL     1      29.166  -1.373  53.235  1.00  0.00     0.071 C 
HETATM   15  C17 UNL     1      27.170   0.059  53.563  1.00  0.00     0.008 A 
HETATM   16  C18 UNL     1      26.264  -1.107  53.472  1.00  0.00     0.054 C 
ENDBRANCH   7   9
ENDBRANCH   1   7
BRANCH   3  17
HETATM   17  O1  UNL     1      24.065   3.509  49.967  1.00  0.00    -0.373 OA
BRANCH  17  18
HETATM   18  C8  UNL     1      24.485   4.825  49.851  1.00  0.00     0.196 C 
BRANCH  18  19
HETATM   19  C9  UNL     1      25.881   4.898  49.384  1.00  0.00    -0.004 C 
BRANCH  19  20
HETATM   20  C10 UNL     1      26.949   4.082  49.307  1.00  0.00    -0.023 C 
BRANCH  20  21
HETATM   21  C11 UNL     1      27.783   4.940  48.499  1.00  0.00     0.020 C 
BRANCH  21  22
HETATM   22  C12 UNL     1      28.850   5.634  48.245  1.00  0.00     0.001 C 
BRANCH  22  23
HETATM   23  C13 UNL     1      30.128   6.385  48.332  1.00  0.00     0.037 C 
BRANCH  23  24
HETATM   24  C14 UNL     1      31.288   5.426  48.368  1.00  0.00     0.222 C 
HETATM   25  F1  UNL     1      31.189   4.530  47.327  1.00  0.00    -0.255 F 
ENDBRANCH  23  24
ENDBRANCH  22  23
ENDBRANCH  21  22
ENDBRANCH  20  21
ENDBRANCH  19  20
ENDBRANCH  18  19
ENDBRANCH  17  18
ENDBRANCH   3  17
TORSDOF 10
ENDMDL
MODEL 3
REMARK VINA RESULT:      -6.5      1.230      1.855
REMARK  10 active torsions:
REMARK  status: ('A' for Active; 'I' for Inactive)
REMARK    1  A    between atoms: C4_6  and  N3_7 
REMARK    2  A    between atoms: N3_7  and  C5_8 
REMARK    3  A    between atoms: C7_10  and  O1_11 
REMARK    4  A    between atoms: O1_11  and  C8_12 
REMARK    5  A    between atoms: C8_12  and  C9_13 
REMARK    6  A    between atoms: C9_13  and  C10_14 
REMARK    7  A    between atoms: C10_14  and  C11_15 
REMARK    8  A    between atoms: C11_15  and  C12_16 
REMARK    9  A    between atoms: C12_16  and  C13_17 
REMARK   10  A    between atoms: C13_17  and  C14_18 
ROOT
HETATM    1  C5  UNL     1      24.750   2.803  52.532  1.00  0.00     0.034 A 
HETATM    2  C6  UNL     1      24.715   2.606  51.208  1.00  0.00     0.040 A 
HETATM    3  C7  UNL     1      23.410   2.988  50.562  1.00  0.00     0.191 A 
HETATM    4  C15 UNL     1      22.669   3.455  51.783  1.00  0.00     0.046 A 
HETATM    5 CL1  UNL     1      21.030   4.070  51.824  1.00  0.00    -0.086 Cl
HETATM    6  C16 UNL     1      23.422   3.348  52.868  1.00  0.00     0.051 A 
ENDROOT
BRANCH   1   7
HETATM    7  N3  UNL     1      25.816   2.555  53.466  1.00  0.00    -0.341 N 
HETATM    8  H5  UNL     1      26.031   3.328  54.108  1.00  0.00     0.167 HD
BRANCH   7   9
HETATM    9  C4  UNL     1      26.516   1.315  53.483  1.00  0.00     0.137 A 
HETATM   10  N2  UNL     1      25.698   0.232  53.441  1.00  0.00    -0.224 NA
HETATM   11  C3  UNL     1      26.254  -1.006  53.452  1.00  0.00     0.235 A 
HETATM   12  N1  UNL     1      27.584  -1.158  53.503  1.00  0.00    -0.246 NA
HETATM   13  C2  UNL     1      28.445  -0.110  53.547  1.00  0.00     0.041 A 
HETATM   14  C1  UNL     1      29.918  -0.276  53.605  1.00  0.00     0.071 C 
HETATM   15  C17 UNL     1      27.891   1.148  53.536  1.00  0.00     0.008 A 
HETATM   16  C18 UNL     1      28.702   2.383  53.580  1.00  0.00     0.054 C 
ENDBRANCH   7   9
ENDBRANCH   1   7
BRANCH   3  17
HETATM   17  O1  UNL     1      22.805   1.830  50.156  1.00  0.00    -0.373 OA
BRANCH  17  18
HETATM   18  C8  UNL     1      21.759   1.988  49.260  1.00  0.00     0.196 C 
BRANCH  18  19
HETATM   19  C9  UNL     1      20.666   1.040  49.546  1.00  0.00    -0.004 C 
BRANCH  19  20
HETATM   20  C10 UNL     1      19.373   1.095  49.916  1.00  0.00    -0.023 C 
BRANCH  20  21
HETATM   21  C11 UNL     1      19.575   0.877  51.329  1.00  0.00     0.020 C 
BRANCH  21  22
HETATM   22  C12 UNL     1      20.213   0.426  52.365  1.00  0.00     0.001 C 
BRANCH  22  23
HETATM   23  C13 UNL     1      20.692   0.130  53.740  1.00  0.00     0.037 C 
BRANCH  23  24
HETATM   24  C14 UNL     1      22.184  -0.070  53.734  1.00  0.00     0.222 C 
HETATM   25  F1  UNL     1      22.645  -0.133  52.439  1.00  0.00    -0.255 F 
ENDBRANCH  23  24
ENDBRANCH  22  23
ENDBRANCH  21  22
ENDBRANCH  20  21
ENDBRANCH  19  20
ENDBRANCH  18  19
ENDBRANCH  17  18
ENDBRANCH   3  17
TORSDOF 10
ENDMDL
MODEL 4
REMARK VINA RESULT:      -6.5      2.208      2.984
REMARK  10 active torsions:
REMARK  status: ('A' for Active; 'I' for Inactive)
REMARK    1  A    between atoms: C4_6  and  N3_7 
REMARK    2  A    between atoms: N3_7  and  C5_8 
REMARK    3  A    between atoms: C7_10  and  O1_11 
REMARK    4  A    between atoms: O1_11  and  C8_12 
REMARK    5  A    between atoms: C8_12  and  C9_13 
REMARK    6  A    between atoms: C9_13  and  C10_14 
REMARK    7  A    between atoms: C10_14  and  C11_15 
REMARK    8  A    between atoms: C11_15  and  C12_16 
REMARK    9  A    between atoms: C12_16  and  C13_17 
REMARK   10  A    between atoms: C13_17  and  C14_18 
ROOT
HETATM    1  C5  UNL     1      25.654   2.095  52.001  1.00  0.00     0.034 A 
HETATM    2  C6  UNL     1      24.525   2.151  51.282  1.00  0.00     0.040 A 
HETATM    3  C7  UNL     1      24.643   2.946  50.009  1.00  0.00     0.191 A 
HETATM    4  C15 UNL     1      26.084   3.357  50.119  1.00  0.00     0.046 A 
HETATM    5 CL1  UNL     1      26.970   4.334  48.967  1.00  0.00    -0.086 Cl
HETATM    6  C16 UNL     1      26.633   2.879  51.226  1.00  0.00     0.051 A 
ENDROOT
BRANCH   1   7
HETATM    7  N3  UNL     1      25.909   1.435  53.253  1.00  0.00    -0.341 N 
HETATM    8  H5  UNL     1      25.126   1.430  53.918  1.00  0.00     0.167 HD
BRANCH   7   9
HETATM    9  C4  UNL     1      27.169   0.834  53.534  1.00  0.00     0.137 A 
HETATM   10  N2  UNL     1      28.030   1.660  54.183  1.00  0.00    -0.224 NA
HETATM   11  C3  UNL     1      29.264   1.194  54.503  1.00  0.00     0.235 A 
HETATM   12  N1  UNL     1      29.627  -0.055  54.186  1.00  0.00    -0.246 NA
HETATM   13  C2  UNL     1      28.806  -0.920  53.538  1.00  0.00     0.041 A 
HETATM   14  C1  UNL     1      29.207  -2.304  53.185  1.00  0.00     0.071 C 
HETATM   15  C17 UNL     1      27.554  -0.457  53.209  1.00  0.00     0.008 A 
HETATM   16  C18 UNL     1      26.552  -1.284  52.502  1.00  0.00     0.054 C 
ENDBRANCH   7   9
ENDBRANCH   1   7
BRANCH   3  17
HETATM   17  O1  UNL     1      23.898   4.083  50.171  1.00  0.00    -0.373 OA
BRANCH  17  18
HETATM   18  C8  UNL     1      23.138   4.458  49.074  1.00  0.00     0.196 C 
BRANCH  18  19
HETATM   19  C9  UNL     1      22.810   3.295  48.231  1.00  0.00    -0.004 C 
BRANCH  19  20
HETATM   20  C10 UNL     1      21.730   2.794  47.603  1.00  0.00    -0.023 C 
BRANCH  20  21
HETATM   21  C11 UNL     1      21.616   1.576  48.371  1.00  0.00     0.020 C 
BRANCH  21  22
HETATM   22  C12 UNL     1      21.376   0.887  49.444  1.00  0.00     0.001 C 
BRANCH  22  23
HETATM   23  C13 UNL     1      21.256   0.405  50.844  1.00  0.00     0.037 C 
BRANCH  23  24
HETATM   24  C14 UNL     1      19.823   0.486  51.296  1.00  0.00     0.222 C 
HETATM   25  F1  UNL     1      18.985   0.494  50.204  1.00  0.00    -0.255 F 
ENDBRANCH  23  24
ENDBRANCH  22  23
ENDBRANCH  21  22
ENDBRANCH  20  21
ENDBRANCH  19  20
ENDBRANCH  18  19
ENDBRANCH  17  18
ENDBRANCH   3  17
TORSDOF 10
ENDMDL
MODEL 5
REMARK VINA RESULT:      -6.2      2.023      2.529
REMARK  10 active torsions:
REMARK  status: ('A' for Active; 'I' for Inactive)
REMARK    1  A    between atoms: C4_6  and  N3_7 
REMARK    2  A    between atoms: N3_7  and  C5_8 
REMARK    3  A    between atoms: C7_10  and  O1_11 
REMARK    4  A    between atoms: O1_11  and  C8_12 
REMARK    5  A    between atoms: C8_12  and  C9_13 
REMARK    6  A    between atoms: C9_13  and  C10_14 
REMARK    7  A    between atoms: C10_14  and  C11_15 
REMARK    8  A    between atoms: C11_15  and  C12_16 
REMARK    9  A    between atoms: C12_16  and  C13_17 
REMARK   10  A    between atoms: C13_17  and  C14_18 
ROOT
HETATM    1  C5  UNL     1      25.638   2.113  51.925  1.00  0.00     0.034 A 
HETATM    2  C6  UNL     1      24.497   2.338  51.261  1.00  0.00     0.040 A 
HETATM    3  C7  UNL     1      24.659   3.174  50.019  1.00  0.00     0.191 A 
HETATM    4  C15 UNL     1      26.142   3.404  50.081  1.00  0.00     0.046 A 
HETATM    5 CL1  UNL     1      27.094   4.322  48.934  1.00  0.00    -0.086 Cl
HETATM    6  C16 UNL     1      26.673   2.810  51.141  1.00  0.00     0.051 A 
ENDROOT
BRANCH   1   7
HETATM    7  N3  UNL     1      25.861   1.367  53.134  1.00  0.00    -0.341 N 
HETATM    8  H5  UNL     1      25.046   1.275  53.754  1.00  0.00     0.167 HD
BRANCH   7   9
HETATM    9  C4  UNL     1      27.133   0.802  53.436  1.00  0.00     0.137 A 
HETATM   10  N2  UNL     1      27.977   1.669  54.053  1.00  0.00    -0.224 NA
HETATM   11  C3  UNL     1      29.220   1.240  54.389  1.00  0.00     0.235 A 
HETATM   12  N1  UNL     1      29.608  -0.013  54.119  1.00  0.00    -0.246 NA
HETATM   13  C2  UNL     1      28.804  -0.918  53.504  1.00  0.00     0.041 A 
HETATM   14  C1  UNL     1      29.232  -2.306  53.202  1.00  0.00     0.071 C 
HETATM   15  C17 UNL     1      27.543  -0.492  53.160  1.00  0.00     0.008 A 
HETATM   16  C18 UNL     1      26.558  -1.365  52.486  1.00  0.00     0.054 C 
ENDBRANCH   7   9
ENDBRANCH   1   7
BRANCH   3  17
HETATM   17  O1  UNL     1      24.065   4.382  50.265  1.00  0.00    -0.373 OA
BRANCH  17  18
HETATM   18  C8  UNL     1      22.859   4.595  49.614  1.00  0.00     0.196 C 
BRANCH  18  19
HETATM   19  C9  UNL     1      21.746   4.690  50.576  1.00  0.00    -0.004 C 
BRANCH  19  20
HETATM   20  C10 UNL     1      21.587   4.895  51.896  1.00  0.00    -0.023 C 
BRANCH  20  21
HETATM   21  C11 UNL     1      20.986   3.620  52.212  1.00  0.00     0.020 C 
BRANCH  21  22
HETATM   22  C12 UNL     1      20.986   2.332  52.364  1.00  0.00     0.001 C 
BRANCH  22  23
HETATM   23  C13 UNL     1      20.717   0.937  52.800  1.00  0.00     0.037 C 
BRANCH  23  24
HETATM   24  C14 UNL     1      21.825   0.456  53.699  1.00  0.00     0.222 C 
HETATM   25  F1  UNL     1      21.341   0.248  54.970  1.00  0.00    -0.255 F 
ENDBRANCH  23  24
ENDBRANCH  22  23
ENDBRANCH  21  22
ENDBRANCH  20  21
ENDBRANCH  19  20
ENDBRANCH  18  19
ENDBRANCH  17  18
ENDBRANCH   3  17
TORSDOF 10
ENDMDL
MODEL 6
REMARK VINA RESULT:      -6.2      2.938      5.578
REMARK  10 active torsions:
REMARK  status: ('A' for Active; 'I' for Inactive)
REMARK    1  A    between atoms: C4_6  and  N3_7 
REMARK    2  A    between atoms: N3_7  and  C5_8 
REMARK    3  A    between atoms: C7_10  and  O1_11 
REMARK    4  A    between atoms: O1_11  and  C8_12 
REMARK    5  A    between atoms: C8_12  and  C9_13 
REMARK    6  A    between atoms: C9_13  and  C10_14 
REMARK    7  A    between atoms: C10_14  and  C11_15 
REMARK    8  A    between atoms: C11_15  and  C12_16 
REMARK    9  A    between atoms: C12_16  and  C13_17 
REMARK   10  A    between atoms: C13_17  and  C14_18 
ROOT
HETATM    1  C5  UNL     1      25.668   1.933  52.326  1.00  0.00     0.034 A 
HETATM    2  C6  UNL     1      25.061   1.543  53.454  1.00  0.00     0.040 A 
HETATM    3  C7  UNL     1      25.296   0.100  53.815  1.00  0.00     0.191 A 
HETATM    4  C15 UNL     1      26.175  -0.292  52.661  1.00  0.00     0.046 A 
HETATM    5 CL1  UNL     1      26.871  -1.874  52.384  1.00  0.00    -0.086 Cl
HETATM    6  C16 UNL     1      26.373   0.733  51.843  1.00  0.00     0.051 A 
ENDROOT
BRANCH   1   7
HETATM    7  N3  UNL     1      25.666   3.221  51.684  1.00  0.00    -0.341 N 
HETATM    8  H5  UNL     1      26.513   3.785  51.823  1.00  0.00     0.167 HD
BRANCH   7   9
HETATM    9  C4  UNL     1      24.554   3.665  50.913  1.00  0.00     0.137 A 
HETATM   10  N2  UNL     1      24.628   3.310  49.604  1.00  0.00    -0.224 NA
HETATM   11  C3  UNL     1      23.622   3.680  48.771  1.00  0.00     0.235 A 
HETATM   12  N1  UNL     1      22.577   4.380  49.230  1.00  0.00    -0.246 NA
HETATM   13  C2  UNL     1      22.455   4.761  50.527  1.00  0.00     0.041 A 
HETATM   14  C1  UNL     1      21.299   5.538  51.036  1.00  0.00     0.071 C 
HETATM   15  C17 UNL     1      23.470   4.391  51.378  1.00  0.00     0.008 A 
HETATM   16  C18 UNL     1      23.475   4.733  52.817  1.00  0.00     0.054 C 
ENDBRANCH   7   9
ENDBRANCH   1   7
BRANCH   3  17
HETATM   17  O1  UNL     1      24.109  -0.559  53.645  1.00  0.00    -0.373 OA
BRANCH  17  18
HETATM   18  C8  UNL     1      23.546  -1.079  54.800  1.00  0.00     0.196 C 
BRANCH  18  19
HETATM   19  C9  UNL     1      22.089  -0.860  54.828  1.00  0.00    -0.004 C 
BRANCH  19  20
HETATM   20  C10 UNL     1      20.980  -1.491  54.400  1.00  0.00    -0.023 C 
BRANCH  20  21
HETATM   21  C11 UNL     1      20.546  -0.488  53.456  1.00  0.00     0.020 C 
BRANCH  21  22
HETATM   22  C12 UNL     1      20.533   0.106  52.303  1.00  0.00     0.001 C 
BRANCH  22  23
HETATM   23  C13 UNL     1      20.433   1.094  51.197  1.00  0.00     0.037 C 
BRANCH  23  24
HETATM   24  C14 UNL     1      21.659   1.019  50.327  1.00  0.00     0.222 C 
HETATM   25  F1  UNL     1      22.785   0.908  51.111  1.00  0.00    -0.255 F 
ENDBRANCH  23  24
ENDBRANCH  22  23
ENDBRANCH  21  22
ENDBRANCH  20  21
ENDBRANCH  19  20
ENDBRANCH  18  19
ENDBRANCH  17  18
ENDBRANCH   3  17
TORSDOF 10
ENDMDL
MODEL 7
REMARK VINA RESULT:      -6.2      3.678      5.615
REMARK  10 active torsions:
REMARK  status: ('A' for Active; 'I' for Inactive)
REMARK    1  A    between atoms: C4_6  and  N3_7 
REMARK    2  A    between atoms: N3_7  and  C5_8 
REMARK    3  A    between atoms: C7_10  and  O1_11 
REMARK    4  A    between atoms: O1_11  and  C8_12 
REMARK    5  A    between atoms: C8_12  and  C9_13 
REMARK    6  A    between atoms: C9_13  and  C10_14 
REMARK    7  A    between atoms: C10_14  and  C11_15 
REMARK    8  A    between atoms: C11_15  and  C12_16 
REMARK    9  A    between atoms: C12_16  and  C13_17 
REMARK   10  A    between atoms: C13_17  and  C14_18 
ROOT
HETATM    1  C5  UNL     1      24.727   3.199  52.736  1.00  0.00     0.034 A 
HETATM    2  C6  UNL     1      23.739   4.102  52.780  1.00  0.00     0.040 A 
HETATM    3  C7  UNL     1      23.056   4.335  51.458  1.00  0.00     0.191 A 
HETATM    4  C15 UNL     1      23.848   3.379  50.611  1.00  0.00     0.046 A 
HETATM    5 CL1  UNL     1      23.624   3.087  48.900  1.00  0.00    -0.086 Cl
HETATM    6  C16 UNL     1      24.770   2.756  51.331  1.00  0.00     0.051 A 
ENDROOT
BRANCH   1   7
HETATM    7  N3  UNL     1      25.585   2.731  53.791  1.00  0.00    -0.341 N 
HETATM    8  H5  UNL     1      25.724   3.385  54.571  1.00  0.00     0.167 HD
BRANCH   7   9
HETATM    9  C4  UNL     1      26.192   1.443  53.739  1.00  0.00     0.137 A 
HETATM   10  N2  UNL     1      25.300   0.422  53.798  1.00  0.00    -0.224 NA
HETATM   11  C3  UNL     1      25.765  -0.853  53.757  1.00  0.00     0.235 A 
HETATM   12  N1  UNL     1      27.077  -1.099  53.660  1.00  0.00    -0.246 NA
HETATM   13  C2  UNL     1      28.010  -0.116  53.598  1.00  0.00     0.041 A 
HETATM   14  C1  UNL     1      29.465  -0.386  53.493  1.00  0.00     0.071 C 
HETATM   15  C17 UNL     1      27.549   1.179  53.640  1.00  0.00     0.008 A 
HETATM   16  C18 UNL     1      28.446   2.353  53.583  1.00  0.00     0.054 C 
ENDBRANCH   7   9
ENDBRANCH   1   7
BRANCH   3  17
HETATM   17  O1  UNL     1      23.393   5.595  51.045  1.00  0.00    -0.373 OA
BRANCH  17  18
HETATM   18  C8  UNL     1      22.664   6.084  49.971  1.00  0.00     0.196 C 
BRANCH  18  19
HETATM   19  C9  UNL     1      23.413   7.131  49.253  1.00  0.00    -0.004 C 
BRANCH  19  20
HETATM   20  C10 UNL     1      24.210   7.219  48.171  1.00  0.00    -0.023 C 
BRANCH  20  21
HETATM   21  C11 UNL     1      25.168   6.212  48.563  1.00  0.00     0.020 C 
BRANCH  21  22
HETATM   22  C12 UNL     1      26.360   5.711  48.677  1.00  0.00     0.001 C 
BRANCH  22  23
HETATM   23  C13 UNL     1      27.538   4.809  48.741  1.00  0.00     0.037 C 
BRANCH  23  24
HETATM   24  C14 UNL     1      28.780   5.552  48.327  1.00  0.00     0.222 C 
HETATM   25  F1  UNL     1      28.467   6.498  47.378  1.00  0.00    -0.255 F 
ENDBRANCH  23  24
ENDBRANCH  22  23
ENDBRANCH  21  22
ENDBRANCH  20  21
ENDBRANCH  19  20
ENDBRANCH  18  19
ENDBRANCH  17  18
ENDBRANCH   3  17
TORSDOF 10
ENDMDL
MODEL 8
REMARK VINA RESULT:      -6.2      3.064      5.571
REMARK  10 active torsions:
REMARK  status: ('A' for Active; 'I' for Inactive)
REMARK    1  A    between atoms: C4_6  and  N3_7 
REMARK    2  A    between atoms: N3_7  and  C5_8 
REMARK    3  A    between atoms: C7_10  and  O1_11 
REMARK    4  A    between atoms: O1_11  and  C8_12 
REMARK    5  A    between atoms: C8_12  and  C9_13 
REMARK    6  A    between atoms: C9_13  and  C10_14 
REMARK    7  A    between atoms: C10_14  and  C11_15 
REMARK    8  A    between atoms: C11_15  and  C12_16 
REMARK    9  A    between atoms: C12_16  and  C13_17 
REMARK   10  A    between atoms: C13_17  and  C14_18 
ROOT
HETATM    1  C5  UNL     1      27.187   1.542  52.505  1.00  0.00     0.034 A 
HETATM    2  C6  UNL     1      27.865   1.212  53.611  1.00  0.00     0.040 A 
HETATM    3  C7  UNL     1      27.972  -0.270  53.851  1.00  0.00     0.191 A 
HETATM    4  C15 UNL     1      27.210  -0.759  52.651  1.00  0.00     0.046 A 
HETATM    5 CL1  UNL     1      26.903  -2.431  52.234  1.00  0.00    -0.086 Cl
HETATM    6  C16 UNL     1      26.781   0.255  51.913  1.00  0.00     0.051 A 
ENDROOT
BRANCH   1   7
HETATM    7  N3  UNL     1      26.890   2.844  51.968  1.00  0.00    -0.341 N 
HETATM    8  H5  UNL     1      27.685   3.493  51.918  1.00  0.00     0.167 HD
BRANCH   7   9
HETATM    9  C4  UNL     1      25.576   3.190  51.540  1.00  0.00     0.137 A 
HETATM   10  N2  UNL     1      24.623   2.955  52.478  1.00  0.00    -0.224 NA
HETATM   11  C3  UNL     1      23.331   3.247  52.181  1.00  0.00     0.235 A 
HETATM   12  N1  UNL     1      23.002   3.757  50.987  1.00  0.00    -0.246 NA
HETATM   13  C2  UNL     1      23.916   4.010  50.016  1.00  0.00     0.041 A 
HETATM   14  C1  UNL     1      23.553   4.573  48.692  1.00  0.00     0.071 C 
HETATM   15  C17 UNL     1      25.227   3.716  50.307  1.00  0.00     0.008 A 
HETATM   16  C18 UNL     1      26.331   3.938  49.348  1.00  0.00     0.054 C 
ENDBRANCH   7   9
ENDBRANCH   1   7
BRANCH   3  17
HETATM   17  O1  UNL     1      27.204  -0.560  54.946  1.00  0.00    -0.373 OA
BRANCH  17  18
HETATM   18  C8  UNL     1      25.949   0.031  54.966  1.00  0.00     0.196 C 
BRANCH  18  19
HETATM   19  C9  UNL     1      24.884  -0.986  55.026  1.00  0.00    -0.004 C 
BRANCH  19  20
HETATM   20  C10 UNL     1      23.542  -1.016  55.116  1.00  0.00    -0.023 C 
BRANCH  20  21
HETATM   21  C11 UNL     1      23.256  -0.675  53.742  1.00  0.00     0.020 C 
BRANCH  21  22
HETATM   22  C12 UNL     1      22.478  -0.368  52.749  1.00  0.00     0.001 C 
BRANCH  22  23
HETATM   23  C13 UNL     1      21.378   0.144  51.892  1.00  0.00     0.037 C 
BRANCH  23  24
HETATM   24  C14 UNL     1      20.186   0.497  52.740  1.00  0.00     0.222 C 
HETATM   25  F1  UNL     1      20.475   1.589  53.527  1.00  0.00    -0.255 F 
ENDBRANCH  23  24
ENDBRANCH  22  23
ENDBRANCH  21  22
ENDBRANCH  20  21
ENDBRANCH  19  20
ENDBRANCH  18  19
ENDBRANCH  17  18
ENDBRANCH   3  17
TORSDOF 10
ENDMDL
MODEL 9
REMARK VINA RESULT:      -6.1      1.720      2.230
REMARK  10 active torsions:
REMARK  status: ('A' for Active; 'I' for Inactive)
REMARK    1  A    between atoms: C4_6  and  N3_7 
REMARK    2  A    between atoms: N3_7  and  C5_8 
REMARK    3  A    between atoms: C7_10  and  O1_11 
REMARK    4  A    between atoms: O1_11  and  C8_12 
REMARK    5  A    between atoms: C8_12  and  C9_13 
REMARK    6  A    between atoms: C9_13  and  C10_14 
REMARK    7  A    between atoms: C10_14  and  C11_15 
REMARK    8  A    between atoms: C11_15  and  C12_16 
REMARK    9  A    between atoms: C12_16  and  C13_17 
REMARK   10  A    between atoms: C13_17  and  C14_18 
ROOT
HETATM    1  C5  UNL     1      25.122   1.736  52.138  1.00  0.00     0.034 A 
HETATM    2  C6  UNL     1      23.956   1.553  51.506  1.00  0.00     0.040 A 
HETATM    3  C7  UNL     1      23.763   2.432  50.299  1.00  0.00     0.191 A 
HETATM    4  C15 UNL     1      25.063   3.184  50.344  1.00  0.00     0.046 A 
HETATM    5 CL1  UNL     1      25.579   4.423  49.221  1.00  0.00    -0.086 Cl
HETATM    6  C16 UNL     1      25.807   2.788  51.368  1.00  0.00     0.051 A 
ENDROOT
BRANCH   1   7
HETATM    7  N3  UNL     1      25.639   1.082  53.310  1.00  0.00    -0.341 N 
HETATM    8  H5  UNL     1      25.276   1.428  54.207  1.00  0.00     0.167 HD
BRANCH   7   9
HETATM    9  C4  UNL     1      26.591   0.026  53.214  1.00  0.00     0.137 A 
HETATM   10  N2  UNL     1      26.053  -1.151  52.801  1.00  0.00    -0.224 NA
HETATM   11  C3  UNL     1      26.867  -2.229  52.672  1.00  0.00     0.235 A 
HETATM   12  N1  UNL     1      28.174  -2.136  52.946  1.00  0.00    -0.246 NA
HETATM   13  C2  UNL     1      28.761  -0.985  53.362  1.00  0.00     0.041 A 
HETATM   14  C1  UNL     1      30.209  -0.880  53.668  1.00  0.00     0.071 C 
HETATM   15  C17 UNL     1      27.944   0.113  53.496  1.00  0.00     0.008 A 
HETATM   16  C18 UNL     1      28.441   1.433  53.940  1.00  0.00     0.054 C 
ENDBRANCH   7   9
ENDBRANCH   1   7
BRANCH   3  17
HETATM   17  O1  UNL     1      22.780   3.333  50.607  1.00  0.00    -0.373 OA
BRANCH  17  18
HETATM   18  C8  UNL     1      21.535   3.066  50.057  1.00  0.00     0.196 C 
BRANCH  18  19
HETATM   19  C9  UNL     1      20.489   3.041  51.095  1.00  0.00    -0.004 C 
BRANCH  19  20
HETATM   20  C10 UNL     1      20.415   3.149  52.435  1.00  0.00    -0.023 C 
BRANCH  20  21
HETATM   21  C11 UNL     1      20.683   1.765  52.748  1.00  0.00     0.020 C 
BRANCH  21  22
HETATM   22  C12 UNL     1      20.898   0.766  53.549  1.00  0.00     0.001 C 
BRANCH  22  23
HETATM   23  C13 UNL     1      21.148  -0.099  54.730  1.00  0.00     0.037 C 
BRANCH  23  24
HETATM   24  C14 UNL     1      21.636  -1.452  54.285  1.00  0.00     0.222 C 
HETATM   25  F1  UNL     1      22.145  -1.371  53.008  1.00  0.00    -0.255 F 
ENDBRANCH  23  24
ENDBRANCH  22  23
ENDBRANCH  21  22
ENDBRANCH  20  21
ENDBRANCH  19  20
ENDBRANCH  18  19
ENDBRANCH  17  18
ENDBRANCH   3  17
TORSDOF 10
ENDMDL
