MODEL 1
REMARK VINA RESULT:      -8.5      0.000      0.000
REMARK  4 active torsions:
REMARK  status: ('A' for Active; 'I' for Inactive)
REMARK    1  A    between atoms: C3_3  and  N1_4 
REMARK    2  A    between atoms: N2_10  and  C9_11 
REMARK    3  A    between atoms: C12_18  and  N7_19 
REMARK    4  A    between atoms: N7_19  and  C13_20 
ROOT
HETATM    1  C9  UNL     1      24.719   3.619  51.332  1.00  0.00     0.272 C 
HETATM    2  N3  UNL     1      24.334   4.651  52.253  1.00  0.00    -0.258 N 
HETATM    3  N4  UNL     1      23.923   5.742  51.457  1.00  0.00    -0.171 NA
HETATM    4  C10 UNL     1      24.308   5.586  50.231  1.00  0.00     0.232 C 
HETATM    5  N5  UNL     1      25.026   4.348  50.087  1.00  0.00    -0.304 N 
HETATM    6  C11 UNL     1      25.898   3.410  49.387  1.00  0.00     0.281 C 
HETATM    7  N6  UNL     1      26.708   2.901  50.505  1.00  0.00    -0.251 NA
HETATM    8  C12 UNL     1      26.045   3.018  51.603  1.00  0.00     0.175 C 
HETATM    9  H12 UNL     1      24.268   4.832  53.271  1.00  0.00     0.187 HD
ENDROOT
BRANCH   1  10
HETATM   10  N2  UNL     1      23.694   2.655  51.039  1.00  0.00    -0.306 N 
HETATM   11  C2  UNL     1      23.080   1.675  51.899  1.00  0.00     0.043 A 
HETATM   12  C1  UNL     1      23.554   1.693  53.127  1.00  0.00     0.066 C 
HETATM   13  C3  UNL     1      22.049   0.799  51.357  1.00  0.00     0.052 A 
HETATM   14  C6  UNL     1      21.657   0.876  50.099  1.00  0.00     0.033 A 
HETATM   15  C7  UNL     1      22.290   1.879  49.234  1.00  0.00     0.020 A 
HETATM   16  C8  UNL     1      23.230   2.695  49.680  1.00  0.00     0.096 A 
BRANCH  13  17
HETATM   17  N1  UNL     1      21.556  -0.109  52.363  1.00  0.00    -0.388 N 
HETATM   18  C4  UNL     1      20.160   0.235  52.575  1.00  0.00     0.149 C 
HETATM   19  C5  UNL     1      22.099  -1.204  53.147  1.00  0.00     0.149 C 
ENDBRANCH  13  17
ENDBRANCH   1  10
BRANCH   8  20
HETATM   20  N7  UNL     1      26.541   2.624  52.851  1.00  0.00    -0.339 N 
HETATM   21  H16 UNL     1      26.281   3.176  53.720  1.00  0.00     0.167 HD
BRANCH  20  22
HETATM   22  C13 UNL     1      27.396   1.508  53.054  1.00  0.00     0.035 A 
HETATM   23  C14 UNL     1      28.673   1.561  53.552  1.00  0.00     0.029 A 
HETATM   24  C15 UNL     1      29.490   0.467  53.740  1.00  0.00     0.004 A 
HETATM   25  C16 UNL     1      29.018  -0.786  53.415  1.00  0.00     0.024 A 
HETATM   26  C17 UNL     1      27.755  -0.915  52.914  1.00  0.00     0.036 A 
HETATM   27 CL1  UNL     1      27.076  -2.478  52.473  1.00  0.00    -0.084 Cl
HETATM   28  C18 UNL     1      26.987   0.219  52.750  1.00  0.00     0.053 A 
ENDBRANCH  20  22
ENDBRANCH   8  20
TORSDOF 4
ENDMDL
MODEL 2
REMARK VINA RESULT:      -8.3      2.849      5.262
REMARK  4 active torsions:
REMARK  status: ('A' for Active; 'I' for Inactive)
REMARK    1  A    between atoms: C3_3  and  N1_4 
REMARK    2  A    between atoms: N2_10  and  C9_11 
REMARK    3  A    between atoms: C12_18  and  N7_19 
REMARK    4  A    between atoms: N7_19  and  C13_20 
ROOT
HETATM    1  C9  UNL     1      24.130   3.335  51.266  1.00  0.00     0.272 C 
HETATM    2  N3  UNL     1      24.538   4.514  51.977  1.00  0.00    -0.258 N 
HETATM    3  N4  UNL     1      23.355   5.064  52.515  1.00  0.00    -0.171 NA
HETATM    4  C10 UNL     1      22.310   4.541  51.960  1.00  0.00     0.232 C 
HETATM    5  N5  UNL     1      22.704   3.568  50.975  1.00  0.00    -0.304 N 
HETATM    6  C11 UNL     1      22.470   2.680  49.841  1.00  0.00     0.281 C 
HETATM    7  N6  UNL     1      23.716   2.871  49.082  1.00  0.00    -0.251 NA
HETATM    8  C12 UNL     1      24.654   3.240  49.884  1.00  0.00     0.175 C 
HETATM    9  H12 UNL     1      25.390   5.057  52.204  1.00  0.00     0.187 HD
ENDROOT
BRANCH   1  10
HETATM   10  N2  UNL     1      24.237   2.111  52.012  1.00  0.00    -0.306 N 
HETATM   11  C2  UNL     1      25.406   1.450  52.534  1.00  0.00     0.043 A 
HETATM   12  C1  UNL     1      26.525   2.091  52.270  1.00  0.00     0.066 C 
HETATM   13  C3  UNL     1      25.249   0.199  53.266  1.00  0.00     0.052 A 
HETATM   14  C6  UNL     1      24.066  -0.349  53.467  1.00  0.00     0.033 A 
HETATM   15  C7  UNL     1      22.883   0.334  52.929  1.00  0.00     0.020 A 
HETATM   16  C8  UNL     1      22.975   1.469  52.259  1.00  0.00     0.096 A 
BRANCH  13  17
HETATM   17  N1  UNL     1      26.524  -0.307  53.710  1.00  0.00    -0.388 N 
HETATM   18  C4  UNL     1      26.843  -1.428  52.842  1.00  0.00     0.149 C 
HETATM   19  C5  UNL     1      27.485   0.026  54.746  1.00  0.00     0.149 C 
ENDBRANCH  13  17
ENDBRANCH   1  10
BRANCH   8  20
HETATM   20  N7  UNL     1      25.965   3.505  49.470  1.00  0.00    -0.339 N 
HETATM   21  H16 UNL     1      26.697   2.738  49.518  1.00  0.00     0.167 HD
BRANCH  20  22
HETATM   22  C13 UNL     1      26.408   4.762  48.979  1.00  0.00     0.035 A 
HETATM   23  C14 UNL     1      25.621   5.872  48.802  1.00  0.00     0.029 A 
HETATM   24  C15 UNL     1      26.068   7.084  48.322  1.00  0.00     0.004 A 
HETATM   25  C16 UNL     1      27.397   7.224  47.987  1.00  0.00     0.024 A 
HETATM   26  C17 UNL     1      28.239   6.161  48.138  1.00  0.00     0.036 A 
HETATM   27 CL1  UNL     1      29.950   6.255  47.733  1.00  0.00    -0.084 Cl
HETATM   28  C18 UNL     1      27.730   4.974  48.624  1.00  0.00     0.053 A 
ENDBRANCH  20  22
ENDBRANCH   8  20
TORSDOF 4
ENDMDL
MODEL 3
REMARK VINA RESULT:      -7.8      2.072      5.173
REMARK  4 active torsions:
REMARK  status: ('A' for Active; 'I' for Inactive)
REMARK    1  A    between atoms: C3_3  and  N1_4 
REMARK    2  A    between atoms: N2_10  and  C9_11 
REMARK    3  A    between atoms: C12_18  and  N7_19 
REMARK    4  A    between atoms: N7_19  and  C13_20 
ROOT
HETATM    1  C9  UNL     1      24.266   3.886  50.402  1.00  0.00     0.272 C 
HETATM    2  N3  UNL     1      24.340   3.182  49.153  1.00  0.00    -0.258 N 
HETATM    3  N4  UNL     1      23.004   2.940  48.770  1.00  0.00    -0.171 NA
HETATM    4  C10 UNL     1      22.198   3.133  49.764  1.00  0.00     0.232 C 
HETATM    5  N5  UNL     1      22.936   3.534  50.933  1.00  0.00    -0.304 N 
HETATM    6  C11 UNL     1      23.096   3.783  52.361  1.00  0.00     0.281 C 
HETATM    7  N6  UNL     1      24.458   3.269  52.578  1.00  0.00    -0.251 NA
HETATM    8  C12 UNL     1      25.119   3.325  51.475  1.00  0.00     0.175 C 
HETATM    9  H12 UNL     1      25.038   2.815  48.481  1.00  0.00     0.187 HD
ENDROOT
BRANCH   1  10
HETATM   10  N2  UNL     1      24.335   5.318  50.295  1.00  0.00    -0.306 N 
HETATM   11  C2  UNL     1      25.348   6.148  49.695  1.00  0.00     0.043 A 
HETATM   12  C1  UNL     1      26.344   5.459  49.178  1.00  0.00     0.066 C 
HETATM   13  C3  UNL     1      25.186   7.597  49.716  1.00  0.00     0.052 A 
HETATM   14  C6  UNL     1      24.137   8.175  50.269  1.00  0.00     0.033 A 
HETATM   15  C7  UNL     1      23.111   7.317  50.877  1.00  0.00     0.020 A 
HETATM   16  C8  UNL     1      23.215   5.999  50.883  1.00  0.00     0.096 A 
BRANCH  13  17
HETATM   17  N1  UNL     1      26.295   8.254  49.070  1.00  0.00    -0.388 N 
HETATM   18  C4  UNL     1      27.066   8.888  50.125  1.00  0.00     0.149 C 
HETATM   19  C5  UNL     1      26.776   8.410  47.708  1.00  0.00     0.149 C 
ENDBRANCH  13  17
ENDBRANCH   1  10
BRANCH   8  20
HETATM   20  N7  UNL     1      26.449   2.907  51.347  1.00  0.00    -0.339 N 
HETATM   21  H16 UNL     1      27.070   3.345  50.605  1.00  0.00     0.167 HD
BRANCH  20  22
HETATM   22  C13 UNL     1      27.052   1.908  52.157  1.00  0.00     0.035 A 
HETATM   23  C14 UNL     1      27.962   2.135  53.159  1.00  0.00     0.029 A 
HETATM   24  C15 UNL     1      28.539   1.153  53.934  1.00  0.00     0.004 A 
HETATM   25  C16 UNL     1      28.199  -0.163  53.712  1.00  0.00     0.024 A 
HETATM   26  C17 UNL     1      27.299  -0.464  52.731  1.00  0.00     0.036 A 
HETATM   27 CL1  UNL     1      26.810  -2.118  52.382  1.00  0.00    -0.084 Cl
HETATM   28  C18 UNL     1      26.756   0.566  51.990  1.00  0.00     0.053 A 
ENDBRANCH  20  22
ENDBRANCH   8  20
TORSDOF 4
ENDMDL
MODEL 4
REMARK VINA RESULT:      -7.5      2.221      5.371
REMARK  4 active torsions:
REMARK  status: ('A' for Active; 'I' for Inactive)
REMARK    1  A    between atoms: C3_3  and  N1_4 
REMARK    2  A    between atoms: N2_10  and  C9_11 
REMARK    3  A    between atoms: C12_18  and  N7_19 
REMARK    4  A    between atoms: N7_19  and  C13_20 
ROOT
HETATM    1  C9  UNL     1      24.282   3.999  50.528  1.00  0.00     0.272 C 
HETATM    2  N3  UNL     1      24.412   3.169  49.363  1.00  0.00    -0.258 N 
HETATM    3  N4  UNL     1      23.103   3.009  48.859  1.00  0.00    -0.171 NA
HETATM    4  C10 UNL     1      22.224   3.371  49.738  1.00  0.00     0.232 C 
HETATM    5  N5  UNL     1      22.877   3.820  50.939  1.00  0.00    -0.304 N 
HETATM    6  C11 UNL     1      22.917   4.196  52.348  1.00  0.00     0.281 C 
HETATM    7  N6  UNL     1      24.192   3.588  52.759  1.00  0.00    -0.251 NA
HETATM    8  C12 UNL     1      24.963   3.476  51.734  1.00  0.00     0.175 C 
HETATM    9  H12 UNL     1      25.135   2.678  48.808  1.00  0.00     0.187 HD
ENDROOT
BRANCH   1  10
HETATM   10  N2  UNL     1      24.501   5.402  50.300  1.00  0.00    -0.306 N 
HETATM   11  C2  UNL     1      25.558   6.062  49.578  1.00  0.00     0.043 A 
HETATM   12  C1  UNL     1      26.437   5.227  49.064  1.00  0.00     0.066 C 
HETATM   13  C3  UNL     1      25.559   7.517  49.489  1.00  0.00     0.052 A 
HETATM   14  C6  UNL     1      24.617   8.252  50.051  1.00  0.00     0.033 A 
HETATM   15  C7  UNL     1      23.546   7.566  50.784  1.00  0.00     0.020 A 
HETATM   16  C8  UNL     1      23.503   6.249  50.892  1.00  0.00     0.096 A 
BRANCH  13  17
HETATM   17  N1  UNL     1      26.689   7.992  48.730  1.00  0.00    -0.388 N 
HETATM   18  C4  UNL     1      26.213   8.195  47.373  1.00  0.00     0.149 C 
HETATM   19  C5  UNL     1      28.085   8.290  48.998  1.00  0.00     0.149 C 
ENDBRANCH  13  17
ENDBRANCH   1  10
BRANCH   8  20
HETATM   20  N7  UNL     1      26.252   2.932  51.791  1.00  0.00    -0.339 N 
HETATM   21  H16 UNL     1      27.086   3.521  51.499  1.00  0.00     0.167 HD
BRANCH  20  22
HETATM   22  C13 UNL     1      26.541   1.609  52.220  1.00  0.00     0.035 A 
HETATM   23  C14 UNL     1      25.671   0.549  52.181  1.00  0.00     0.029 A 
HETATM   24  C15 UNL     1      25.969  -0.728  52.603  1.00  0.00     0.004 A 
HETATM   25  C16 UNL     1      27.223  -0.993  53.107  1.00  0.00     0.024 A 
HETATM   26  C17 UNL     1      28.142   0.014  53.176  1.00  0.00     0.036 A 
HETATM   27 CL1  UNL     1      29.765  -0.239  53.806  1.00  0.00    -0.084 Cl
HETATM   28  C18 UNL     1      27.782   1.271  52.736  1.00  0.00     0.053 A 
ENDBRANCH  20  22
ENDBRANCH   8  20
TORSDOF 4
ENDMDL
MODEL 5
REMARK VINA RESULT:      -7.5      2.697      6.323
REMARK  4 active torsions:
REMARK  status: ('A' for Active; 'I' for Inactive)
REMARK    1  A    between atoms: C3_3  and  N1_4 
REMARK    2  A    between atoms: N2_10  and  C9_11 
REMARK    3  A    between atoms: C12_18  and  N7_19 
REMARK    4  A    between atoms: N7_19  and  C13_20 
ROOT
HETATM    1  C9  UNL     1      22.389   1.991  50.948  1.00  0.00     0.272 C 
HETATM    2  N3  UNL     1      21.918   0.937  50.093  1.00  0.00    -0.258 N 
HETATM    3  N4  UNL     1      21.985   1.450  48.781  1.00  0.00    -0.171 NA
HETATM    4  C10 UNL     1      22.134   2.736  48.797  1.00  0.00     0.232 C 
HETATM    5  N5  UNL     1      22.183   3.215  50.153  1.00  0.00    -0.304 N 
HETATM    6  C11 UNL     1      22.140   4.249  51.181  1.00  0.00     0.281 C 
HETATM    7  N6  UNL     1      21.366   3.563  52.228  1.00  0.00    -0.251 NA
HETATM    8  C12 UNL     1      21.504   2.289  52.098  1.00  0.00     0.175 C 
HETATM    9  H12 UNL     1      21.563  -0.035  50.142  1.00  0.00     0.187 HD
ENDROOT
BRANCH   1  10
HETATM   10  N2  UNL     1      23.782   1.915  51.293  1.00  0.00    -0.306 N 
HETATM   11  C2  UNL     1      24.456   1.036  52.215  1.00  0.00     0.043 A 
HETATM   12  C1  UNL     1      23.643   0.191  52.814  1.00  0.00     0.066 C 
HETATM   13  C3  UNL     1      25.897   1.160  52.392  1.00  0.00     0.052 A 
HETATM   14  C6  UNL     1      26.609   2.053  51.730  1.00  0.00     0.033 A 
HETATM   15  C7  UNL     1      25.910   2.942  50.794  1.00  0.00     0.020 A 
HETATM   16  C8  UNL     1      24.604   2.869  50.601  1.00  0.00     0.096 A 
BRANCH  13  17
HETATM   17  N1  UNL     1      26.389   0.200  53.349  1.00  0.00    -0.388 N 
HETATM   18  C4  UNL     1      26.901  -0.920  52.579  1.00  0.00     0.149 C 
HETATM   19  C5  UNL     1      26.479   0.110  54.796  1.00  0.00     0.149 C 
ENDBRANCH  13  17
ENDBRANCH   1  10
BRANCH   8  20
HETATM   20  N7  UNL     1      20.892   1.354  52.941  1.00  0.00    -0.339 N 
HETATM   21  H16 UNL     1      21.332   1.122  53.879  1.00  0.00     0.167 HD
BRANCH  20  22
HETATM   22  C13 UNL     1      19.689   0.667  52.629  1.00  0.00     0.035 A 
HETATM   23  C14 UNL     1      18.753   1.072  51.711  1.00  0.00     0.029 A 
HETATM   24  C15 UNL     1      17.589   0.392  51.422  1.00  0.00     0.004 A 
HETATM   25  C16 UNL     1      17.317  -0.784  52.086  1.00  0.00     0.024 A 
HETATM   26  C17 UNL     1      18.204  -1.248  53.013  1.00  0.00     0.036 A 
HETATM   27 CL1  UNL     1      17.932  -2.741  53.906  1.00  0.00    -0.084 Cl
HETATM   28  C18 UNL     1      19.351  -0.521  53.257  1.00  0.00     0.053 A 
ENDBRANCH  20  22
ENDBRANCH   8  20
TORSDOF 4
ENDMDL
MODEL 6
REMARK VINA RESULT:      -7.3      2.084      2.653
REMARK  4 active torsions:
REMARK  status: ('A' for Active; 'I' for Inactive)
REMARK    1  A    between atoms: C3_3  and  N1_4 
REMARK    2  A    between atoms: N2_10  and  C9_11 
REMARK    3  A    between atoms: C12_18  and  N7_19 
REMARK    4  A    between atoms: N7_19  and  C13_20 
ROOT
HETATM    1  C9  UNL     1      22.924   4.376  51.008  1.00  0.00     0.272 C 
HETATM    2  N3  UNL     1      22.162   5.252  51.854  1.00  0.00    -0.258 N 
HETATM    3  N4  UNL     1      21.716   6.298  51.020  1.00  0.00    -0.171 NA
HETATM    4  C10 UNL     1      22.365   6.303  49.900  1.00  0.00     0.232 C 
HETATM    5  N5  UNL     1      23.329   5.234  49.879  1.00  0.00    -0.304 N 
HETATM    6  C11 UNL     1      24.492   4.527  49.355  1.00  0.00     0.281 C 
HETATM    7  N6  UNL     1      25.141   4.102  50.606  1.00  0.00    -0.251 NA
HETATM    8  C12 UNL     1      24.259   4.017  51.539  1.00  0.00     0.175 C 
HETATM    9  H12 UNL     1      21.856   5.345  52.839  1.00  0.00     0.187 HD
ENDROOT
BRANCH   1  10
HETATM   10  N2  UNL     1      22.191   3.260  50.476  1.00  0.00    -0.306 N 
HETATM   11  C2  UNL     1      21.070   2.545  51.032  1.00  0.00     0.043 A 
HETATM   12  C1  UNL     1      20.687   3.011  52.202  1.00  0.00     0.066 C 
HETATM   13  C3  UNL     1      20.497   1.431  50.288  1.00  0.00     0.052 A 
HETATM   14  C6  UNL     1      20.972   1.055  49.115  1.00  0.00     0.033 A 
HETATM   15  C7  UNL     1      22.115   1.791  48.560  1.00  0.00     0.020 A 
HETATM   16  C8  UNL     1      22.669   2.807  49.198  1.00  0.00     0.096 A 
BRANCH  13  17
HETATM   17  N1  UNL     1      19.388   0.845  51.000  1.00  0.00    -0.388 N 
HETATM   18  C4  UNL     1      18.185   1.267  50.303  1.00  0.00     0.149 C 
HETATM   19  C5  UNL     1      19.219  -0.006  52.165  1.00  0.00     0.149 C 
ENDBRANCH  13  17
ENDBRANCH   1  10
BRANCH   8  20
HETATM   20  N7  UNL     1      24.557   3.637  52.853  1.00  0.00    -0.339 N 
HETATM   21  H16 UNL     1      24.621   4.375  53.613  1.00  0.00     0.167 HD
BRANCH  20  22
HETATM   22  C13 UNL     1      24.790   2.297  53.262  1.00  0.00     0.035 A 
HETATM   23  C14 UNL     1      25.929   1.835  53.873  1.00  0.00     0.029 A 
HETATM   24  C15 UNL     1      26.139   0.530  54.262  1.00  0.00     0.004 A 
HETATM   25  C16 UNL     1      25.153  -0.404  54.036  1.00  0.00     0.024 A 
HETATM   26  C17 UNL     1      23.991  -0.017  53.432  1.00  0.00     0.036 A 
HETATM   27 CL1  UNL     1      22.682  -1.147  53.107  1.00  0.00    -0.084 Cl
HETATM   28  C18 UNL     1      23.842   1.305  53.067  1.00  0.00     0.053 A 
ENDBRANCH  20  22
ENDBRANCH   8  20
TORSDOF 4
ENDMDL
MODEL 7
REMARK VINA RESULT:      -7.1      2.855      5.896
REMARK  4 active torsions:
REMARK  status: ('A' for Active; 'I' for Inactive)
REMARK    1  A    between atoms: C3_3  and  N1_4 
REMARK    2  A    between atoms: N2_10  and  C9_11 
REMARK    3  A    between atoms: C12_18  and  N7_19 
REMARK    4  A    between atoms: N7_19  and  C13_20 
ROOT
HETATM    1  C9  UNL     1      21.949   2.088  51.509  1.00  0.00     0.272 C 
HETATM    2  N3  UNL     1      22.088   3.453  51.934  1.00  0.00    -0.258 N 
HETATM    3  N4  UNL     1      20.881   3.774  52.591  1.00  0.00    -0.171 NA
HETATM    4  C10 UNL     1      19.968   2.894  52.333  1.00  0.00     0.232 C 
HETATM    5  N5  UNL     1      20.490   1.876  51.460  1.00  0.00    -0.304 N 
HETATM    6  C11 UNL     1      20.372   0.745  50.546  1.00  0.00     0.281 C 
HETATM    7  N6  UNL     1      21.393   1.094  49.545  1.00  0.00    -0.251 NA
HETATM    8  C12 UNL     1      22.283   1.851  50.086  1.00  0.00     0.175 C 
HETATM    9  H12 UNL     1      22.768   4.234  51.907  1.00  0.00     0.187 HD
ENDROOT
BRANCH   1  10
HETATM   10  N2  UNL     1      22.508   1.114  52.406  1.00  0.00    -0.306 N 
HETATM   11  C2  UNL     1      23.883   0.738  52.615  1.00  0.00     0.043 A 
HETATM   12  C1  UNL     1      24.725   1.405  51.854  1.00  0.00     0.066 C 
HETATM   13  C3  UNL     1      24.197  -0.293  53.596  1.00  0.00     0.052 A 
HETATM   14  C6  UNL     1      23.259  -0.895  54.303  1.00  0.00     0.033 A 
HETATM   15  C7  UNL     1      21.862  -0.502  54.081  1.00  0.00     0.020 A 
HETATM   16  C8  UNL     1      21.528   0.427  53.202  1.00  0.00     0.096 A 
BRANCH  13  17
HETATM   17  N1  UNL     1      25.618  -0.531  53.664  1.00  0.00    -0.388 N 
HETATM   18  C4  UNL     1      26.085   0.125  54.874  1.00  0.00     0.149 C 
HETATM   19  C5  UNL     1      26.607  -1.225  52.859  1.00  0.00     0.149 C 
ENDBRANCH  13  17
ENDBRANCH   1  10
BRANCH   8  20
HETATM   20  N7  UNL     1      23.391   2.358  49.396  1.00  0.00    -0.339 N 
HETATM   21  H16 UNL     1      24.221   1.726  49.197  1.00  0.00     0.167 HD
BRANCH  20  22
HETATM   22  C13 UNL     1      23.496   3.695  48.929  1.00  0.00     0.035 A 
HETATM   23  C14 UNL     1      22.591   4.331  48.117  1.00  0.00     0.029 A 
HETATM   24  C15 UNL     1      22.710   5.629  47.671  1.00  0.00     0.004 A 
HETATM   25  C16 UNL     1      23.808   6.370  48.050  1.00  0.00     0.024 A 
HETATM   26  C17 UNL     1      24.751   5.802  48.858  1.00  0.00     0.036 A 
HETATM   27 CL1  UNL     1      26.182   6.679  49.389  1.00  0.00    -0.084 Cl
HETATM   28  C18 UNL     1      24.572   4.498  49.271  1.00  0.00     0.053 A 
ENDBRANCH  20  22
ENDBRANCH   8  20
TORSDOF 4
ENDMDL
MODEL 8
REMARK VINA RESULT:      -6.9      2.629      5.760
REMARK  4 active torsions:
REMARK  status: ('A' for Active; 'I' for Inactive)
REMARK    1  A    between atoms: C3_3  and  N1_4 
REMARK    2  A    between atoms: N2_10  and  C9_11 
REMARK    3  A    between atoms: C12_18  and  N7_19 
REMARK    4  A    between atoms: N7_19  and  C13_20 
ROOT
HETATM    1  C9  UNL     1      20.416   2.761  50.083  1.00  0.00     0.272 C 
HETATM    2  N3  UNL     1      20.432   2.227  48.750  1.00  0.00    -0.258 N 
HETATM    3  N4  UNL     1      19.625   3.093  47.981  1.00  0.00    -0.171 NA
HETATM    4  C10 UNL     1      18.914   3.858  48.744  1.00  0.00     0.232 C 
HETATM    5  N5  UNL     1      19.185   3.571  50.128  1.00  0.00    -0.304 N 
HETATM    6  C11 UNL     1      18.911   3.639  51.560  1.00  0.00     0.281 C 
HETATM    7  N6  UNL     1      19.253   2.267  51.969  1.00  0.00    -0.251 NA
HETATM    8  C12 UNL     1      20.101   1.770  51.137  1.00  0.00     0.175 C 
HETATM    9  H12 UNL     1      20.833   1.441  48.207  1.00  0.00     0.187 HD
ENDROOT
BRANCH   1  10
HETATM   10  N2  UNL     1      21.523   3.620  50.405  1.00  0.00    -0.306 N 
HETATM   11  C2  UNL     1      22.936   3.407  50.219  1.00  0.00     0.043 A 
HETATM   12  C1  UNL     1      23.218   2.244  49.670  1.00  0.00     0.066 C 
HETATM   13  C3  UNL     1      23.872   4.444  50.635  1.00  0.00     0.052 A 
HETATM   14  C6  UNL     1      23.465   5.576  51.177  1.00  0.00     0.033 A 
HETATM   15  C7  UNL     1      22.023   5.780  51.362  1.00  0.00     0.020 A 
HETATM   16  C8  UNL     1      21.136   4.868  51.001  1.00  0.00     0.096 A 
BRANCH  13  17
HETATM   17  N1  UNL     1      25.234   4.053  50.368  1.00  0.00    -0.388 N 
HETATM   18  C4  UNL     1      25.700   4.904  49.287  1.00  0.00     0.149 C 
HETATM   19  C5  UNL     1      26.170   3.077  50.898  1.00  0.00     0.149 C 
ENDBRANCH  13  17
ENDBRANCH   1  10
BRANCH   8  20
HETATM   20  N7  UNL     1      20.626   0.477  51.247  1.00  0.00    -0.339 N 
HETATM   21  H16 UNL     1      20.556  -0.191  50.426  1.00  0.00     0.167 HD
BRANCH  20  22
HETATM   22  C13 UNL     1      21.263  -0.029  52.412  1.00  0.00     0.035 A 
HETATM   23  C14 UNL     1      20.635  -0.668  53.451  1.00  0.00     0.029 A 
HETATM   24  C15 UNL     1      21.269  -1.151  54.575  1.00  0.00     0.004 A 
HETATM   25  C16 UNL     1      22.633  -0.997  54.694  1.00  0.00     0.024 A 
HETATM   26  C17 UNL     1      23.324  -0.370  53.698  1.00  0.00     0.036 A 
HETATM   27 CL1  UNL     1      25.066  -0.132  53.772  1.00  0.00    -0.084 Cl
HETATM   28  C18 UNL     1      22.630   0.090  52.598  1.00  0.00     0.053 A 
ENDBRANCH  20  22
ENDBRANCH   8  20
TORSDOF 4
ENDMDL
MODEL 9
REMARK VINA RESULT:      -6.8      2.861      4.772
REMARK  4 active torsions:
REMARK  status: ('A' for Active; 'I' for Inactive)
REMARK    1  A    between atoms: C3_3  and  N1_4 
REMARK    2  A    between atoms: N2_10  and  C9_11 
REMARK    3  A    between atoms: C12_18  and  N7_19 
REMARK    4  A    between atoms: N7_19  and  C13_20 
ROOT
HETATM    1  C9  UNL     1      24.898   5.573  49.555  1.00  0.00     0.272 C 
HETATM    2  N3  UNL     1      24.237   5.616  50.830  1.00  0.00    -0.258 N 
HETATM    3  N4  UNL     1      24.425   6.928  51.314  1.00  0.00    -0.171 NA
HETATM    4  C10 UNL     1      25.349   7.538  50.644  1.00  0.00     0.232 C 
HETATM    5  N5  UNL     1      25.878   6.672  49.623  1.00  0.00    -0.304 N 
HETATM    6  C11 UNL     1      26.856   6.278  48.614  1.00  0.00     0.281 C 
HETATM    7  N6  UNL     1      26.922   4.827  48.849  1.00  0.00    -0.251 NA
HETATM    8  C12 UNL     1      25.819   4.427  49.380  1.00  0.00     0.175 C 
HETATM    9  H12 UNL     1      23.693   5.010  51.470  1.00  0.00     0.187 HD
ENDROOT
BRANCH   1  10
HETATM   10  N2  UNL     1      24.045   5.810  48.423  1.00  0.00    -0.306 N 
HETATM   11  C2  UNL     1      22.948   5.025  47.916  1.00  0.00     0.043 A 
HETATM   12  C1  UNL     1      22.722   3.935  48.619  1.00  0.00     0.066 C 
HETATM   13  C3  UNL     1      22.230   5.484  46.734  1.00  0.00     0.052 A 
HETATM   14  C6  UNL     1      22.552   6.602  46.110  1.00  0.00     0.033 A 
HETATM   15  C7  UNL     1      23.672   7.392  46.637  1.00  0.00     0.020 A 
HETATM   16  C8  UNL     1      24.353   7.016  47.705  1.00  0.00     0.096 A 
BRANCH  13  17
HETATM   17  N1  UNL     1      21.170   4.571  46.381  1.00  0.00    -0.388 N 
HETATM   18  C4  UNL     1      21.630   3.845  45.210  1.00  0.00     0.149 C 
HETATM   19  C5  UNL     1      19.852   4.242  46.894  1.00  0.00     0.149 C 
ENDBRANCH  13  17
ENDBRANCH   1  10
BRANCH   8  20
HETATM   20  N7  UNL     1      25.566   3.095  49.727  1.00  0.00    -0.339 N 
HETATM   21  H16 UNL     1      25.251   2.407  48.982  1.00  0.00     0.167 HD
BRANCH  20  22
HETATM   22  C13 UNL     1      25.697   2.574  51.042  1.00  0.00     0.035 A 
HETATM   23  C14 UNL     1      24.693   1.995  51.775  1.00  0.00     0.029 A 
HETATM   24  C15 UNL     1      24.838   1.496  53.051  1.00  0.00     0.004 A 
HETATM   25  C16 UNL     1      26.069   1.570  53.664  1.00  0.00     0.024 A 
HETATM   26  C17 UNL     1      27.117   2.134  52.994  1.00  0.00     0.036 A 
HETATM   27 CL1  UNL     1      28.722   2.266  53.704  1.00  0.00    -0.084 Cl
HETATM   28  C18 UNL     1      26.906   2.614  51.718  1.00  0.00     0.053 A 
ENDBRANCH  20  22
ENDBRANCH   8  20
TORSDOF 4
ENDMDL
