MODEL 1
REMARK VINA RESULT:      -9.9      0.000      0.000
REMARK  4 active torsions:
REMARK  status: ('A' for Active; 'I' for Inactive)
REMARK    1  A    between atoms: O1_1  and  C1_2 
REMARK    2  A    between atoms: C4_5  and  C5_6 
REMARK    3  A    between atoms: C5_6  and  N1_7 
REMARK    4  A    between atoms: N1_7  and  C6_8 
ROOT
HETATM    1  C6  UNL     1      23.785   3.104  52.305  1.00  0.00     0.009 C 
HETATM    2  C7  UNL     1      22.458   2.711  52.159  1.00  0.00     0.027 C 
HETATM    3  C8  UNL     1      21.850   1.476  52.731  1.00  0.00     0.032 C 
HETATM    4  C9  UNL     1      22.032   0.368  53.469  1.00  0.00     0.063 A 
HETATM    5  N2  UNL     1      20.799  -0.367  53.534  1.00  0.00    -0.244 NA
HETATM    6  C10 UNL     1      20.578  -1.435  54.151  1.00  0.00     0.232 A 
HETATM    7  N3  UNL     1      21.663  -1.997  54.874  1.00  0.00    -0.256 NA
HETATM    8  C11 UNL     1      22.809  -1.387  54.861  1.00  0.00     0.122 A 
HETATM    9  C12 UNL     1      23.205  -0.127  54.179  1.00  0.00     0.174 A 
HETATM   10  N4  UNL     1      24.403  -0.453  53.441  1.00  0.00    -0.375 N 
HETATM   11  C13 UNL     1      25.751   0.096  53.375  1.00  0.00     0.036 A 
HETATM   12  C14 UNL     1      26.906  -0.561  53.511  1.00  0.00     0.048 A 
HETATM   13  C15 UNL     1      28.087   0.133  53.403  1.00  0.00     0.013 A 
HETATM   14 BR1  UNL     1      29.695  -0.854  53.603  1.00  0.00    -0.051 Br
HETATM   15  C16 UNL     1      28.195   1.479  53.161  1.00  0.00     0.020 A 
HETATM   16  C17 UNL     1      26.997   2.168  53.020  1.00  0.00     0.011 A 
HETATM   17  C18 UNL     1      25.813   1.513  53.121  1.00  0.00    -0.026 A 
HETATM   18  C19 UNL     1      24.628   2.254  52.976  1.00  0.00     0.097 C 
HETATM   19  H12 UNL     1      24.451  -1.245  52.762  1.00  0.00     0.160 HD
ENDROOT
BRANCH   1  20
HETATM   20  N1  UNL     1      24.323   4.290  51.751  1.00  0.00    -0.389 N 
HETATM   21  H6  UNL     1      24.960   4.717  52.460  1.00  0.00     0.159 HD
BRANCH  20  22
HETATM   22  C5  UNL     1      24.096   4.878  50.460  1.00  0.00     0.158 C 
BRANCH  22  23
HETATM   23  C4  UNL     1      25.391   5.147  49.757  1.00  0.00    -0.040 A 
HETATM   24  C3  UNL     1      26.327   4.135  49.559  1.00  0.00     0.011 A 
HETATM   25  C2  UNL     1      27.515   4.382  48.916  1.00  0.00     0.037 A 
HETATM   26  C1  UNL     1      27.837   5.648  48.433  1.00  0.00     0.065 A 
HETATM   27  C21 UNL     1      26.891   6.660  48.635  1.00  0.00     0.037 A 
HETATM   28  C20 UNL     1      25.708   6.414  49.277  1.00  0.00     0.011 A 
BRANCH  26  29
HETATM   29  O1  UNL     1      29.064   5.711  47.817  1.00  0.00    -0.361 OA
HETATM   30  H1  UNL     1      29.311   5.054  47.085  1.00  0.00     0.217 HD
ENDBRANCH  26  29
ENDBRANCH  22  23
ENDBRANCH  20  22
ENDBRANCH   1  20
TORSDOF 4
ENDMDL
MODEL 2
REMARK VINA RESULT:      -9.7      3.515      6.461
REMARK  4 active torsions:
REMARK  status: ('A' for Active; 'I' for Inactive)
REMARK    1  A    between atoms: O1_1  and  C1_2 
REMARK    2  A    between atoms: C4_5  and  C5_6 
REMARK    3  A    between atoms: C5_6  and  N1_7 
REMARK    4  A    between atoms: N1_7  and  C6_8 
ROOT
HETATM    1  C6  UNL     1      25.933   2.717  51.080  1.00  0.00     0.009 C 
HETATM    2  C7  UNL     1      25.819   3.518  49.948  1.00  0.00     0.027 C 
HETATM    3  C8  UNL     1      24.547   4.074  49.402  1.00  0.00     0.032 C 
HETATM    4  C9  UNL     1      23.214   4.178  49.536  1.00  0.00     0.063 A 
HETATM    5  N2  UNL     1      22.690   4.974  48.460  1.00  0.00    -0.244 NA
HETATM    6  C10 UNL     1      21.497   5.307  48.267  1.00  0.00     0.232 A 
HETATM    7  N3  UNL     1      20.541   4.852  49.212  1.00  0.00    -0.256 NA
HETATM    8  C11 UNL     1      20.941   4.128  50.212  1.00  0.00     0.122 A 
HETATM    9  C12 UNL     1      22.311   3.665  50.558  1.00  0.00     0.174 A 
HETATM   10  N4  UNL     1      22.193   2.239  50.757  1.00  0.00    -0.375 N 
HETATM   11  C13 UNL     1      22.537   1.319  51.833  1.00  0.00     0.036 A 
HETATM   12  C14 UNL     1      21.745   0.416  52.417  1.00  0.00     0.048 A 
HETATM   13  C15 UNL     1      22.258  -0.377  53.415  1.00  0.00     0.013 A 
HETATM   14 BR1  UNL     1      21.086  -1.643  54.206  1.00  0.00    -0.051 Br
HETATM   15  C16 UNL     1      23.547  -0.328  53.882  1.00  0.00     0.020 A 
HETATM   16  C17 UNL     1      24.375   0.610  53.280  1.00  0.00     0.011 A 
HETATM   17  C18 UNL     1      23.900   1.409  52.291  1.00  0.00    -0.026 A 
HETATM   18  C19 UNL     1      24.774   2.347  51.715  1.00  0.00     0.097 C 
HETATM   19  H12 UNL     1      21.781   1.600  50.041  1.00  0.00     0.160 HD
ENDROOT
BRANCH   1  20
HETATM   20  N1  UNL     1      27.162   2.216  51.570  1.00  0.00    -0.389 N 
HETATM   21  H6  UNL     1      27.792   2.051  50.753  1.00  0.00     0.159 HD
BRANCH  20  22
HETATM   22  C5  UNL     1      27.564   1.950  52.924  1.00  0.00     0.158 C 
BRANCH  22  23
HETATM   23  C4  UNL     1      27.998   0.526  53.086  1.00  0.00    -0.040 A 
HETATM   24  C3  UNL     1      27.198  -0.526  52.645  1.00  0.00     0.011 A 
HETATM   25  C2  UNL     1      27.594  -1.831  52.795  1.00  0.00     0.037 A 
HETATM   26  C1  UNL     1      28.808  -2.164  53.391  1.00  0.00     0.065 A 
HETATM   27  C21 UNL     1      29.607  -1.102  53.833  1.00  0.00     0.037 A 
HETATM   28  C20 UNL     1      29.211   0.199  53.683  1.00  0.00     0.011 A 
BRANCH  26  29
HETATM   29  O1  UNL     1      29.041  -3.517  53.457  1.00  0.00    -0.361 OA
HETATM   30  H1  UNL     1      28.284  -4.180  53.332  1.00  0.00     0.217 HD
ENDBRANCH  26  29
ENDBRANCH  22  23
ENDBRANCH  20  22
ENDBRANCH   1  20
TORSDOF 4
ENDMDL
MODEL 3
REMARK VINA RESULT:      -9.5      3.468      5.613
REMARK  4 active torsions:
REMARK  status: ('A' for Active; 'I' for Inactive)
REMARK    1  A    between atoms: O1_1  and  C1_2 
REMARK    2  A    between atoms: C4_5  and  C5_6 
REMARK    3  A    between atoms: C5_6  and  N1_7 
REMARK    4  A    between atoms: N1_7  and  C6_8 
ROOT
HETATM    1  C6  UNL     1      23.017  -0.565  54.024  1.00  0.00     0.009 C 
HETATM    2  C7  UNL     1      22.077  -1.460  54.525  1.00  0.00     0.027 C 
HETATM    3  C8  UNL     1      20.638  -1.517  54.135  1.00  0.00     0.032 C 
HETATM    4  C9  UNL     1      19.657  -1.007  53.372  1.00  0.00     0.063 A 
HETATM    5  N2  UNL     1      18.432  -1.710  53.643  1.00  0.00    -0.244 NA
HETATM    6  C10 UNL     1      17.315  -1.530  53.105  1.00  0.00     0.232 A 
HETATM    7  N3  UNL     1      17.232  -0.519  52.113  1.00  0.00    -0.256 NA
HETATM    8  C11 UNL     1      18.300   0.158  51.815  1.00  0.00     0.122 A 
HETATM    9  C12 UNL     1      19.675   0.049  52.368  1.00  0.00     0.174 A 
HETATM   10  N4  UNL     1      20.040   1.393  52.752  1.00  0.00    -0.375 N 
HETATM   11  C13 UNL     1      21.154   2.281  52.450  1.00  0.00     0.036 A 
HETATM   12  C14 UNL     1      21.096   3.539  52.003  1.00  0.00     0.048 A 
HETATM   13  C15 UNL     1      22.266   4.227  51.787  1.00  0.00     0.013 A 
HETATM   14 BR1  UNL     1      22.120   6.009  51.154  1.00  0.00    -0.051 Br
HETATM   15  C16 UNL     1      23.527   3.729  51.995  1.00  0.00     0.020 A 
HETATM   16  C17 UNL     1      23.594   2.422  52.459  1.00  0.00     0.011 A 
HETATM   17  C18 UNL     1      22.458   1.714  52.682  1.00  0.00    -0.026 A 
HETATM   18  C19 UNL     1      22.576   0.392  53.146  1.00  0.00     0.097 C 
HETATM   19  H12 UNL     1      19.454   1.978  53.388  1.00  0.00     0.160 HD
ENDROOT
BRANCH   1  20
HETATM   20  N1  UNL     1      24.377  -0.549  54.415  1.00  0.00    -0.389 N 
HETATM   21  H6  UNL     1      24.437  -0.092  55.353  1.00  0.00     0.159 HD
BRANCH  20  22
HETATM   22  C5  UNL     1      25.533  -1.046  53.721  1.00  0.00     0.158 C 
BRANCH  22  23
HETATM   23  C4  UNL     1      26.579   0.017  53.589  1.00  0.00    -0.040 A 
HETATM   24  C3  UNL     1      26.498   0.989  52.595  1.00  0.00     0.011 A 
HETATM   25  C2  UNL     1      27.457   1.963  52.473  1.00  0.00     0.037 A 
HETATM   26  C1  UNL     1      28.551   2.026  53.334  1.00  0.00     0.065 A 
HETATM   27  C21 UNL     1      28.626   1.046  54.331  1.00  0.00     0.037 A 
HETATM   28  C20 UNL     1      27.669   0.075  54.452  1.00  0.00     0.011 A 
BRANCH  26  29
HETATM   29  O1  UNL     1      29.410   3.065  53.066  1.00  0.00    -0.361 OA
HETATM   30  H1  UNL     1      29.838   3.591  53.820  1.00  0.00     0.217 HD
ENDBRANCH  26  29
ENDBRANCH  22  23
ENDBRANCH  20  22
ENDBRANCH   1  20
TORSDOF 4
ENDMDL
MODEL 4
REMARK VINA RESULT:      -9.4      2.455      4.533
REMARK  4 active torsions:
REMARK  status: ('A' for Active; 'I' for Inactive)
REMARK    1  A    between atoms: O1_1  and  C1_2 
REMARK    2  A    between atoms: C4_5  and  C5_6 
REMARK    3  A    between atoms: C5_6  and  N1_7 
REMARK    4  A    between atoms: N1_7  and  C6_8 
ROOT
HETATM    1  C6  UNL     1      25.806   2.666  51.912  1.00  0.00     0.009 C 
HETATM    2  C7  UNL     1      27.161   2.532  52.197  1.00  0.00     0.027 C 
HETATM    3  C8  UNL     1      27.853   1.258  52.549  1.00  0.00     0.032 C 
HETATM    4  C9  UNL     1      27.743  -0.067  52.744  1.00  0.00     0.063 A 
HETATM    5  N2  UNL     1      29.028  -0.601  53.103  1.00  0.00    -0.244 NA
HETATM    6  C10 UNL     1      29.319  -1.798  53.335  1.00  0.00     0.232 A 
HETATM    7  N3  UNL     1      28.269  -2.747  53.237  1.00  0.00    -0.256 NA
HETATM    8  C11 UNL     1      27.080  -2.337  52.915  1.00  0.00     0.122 A 
HETATM    9  C12 UNL     1      26.600  -0.962  52.615  1.00  0.00     0.174 A 
HETATM   10  N4  UNL     1      25.443  -0.769  53.458  1.00  0.00    -0.375 N 
HETATM   11  C13 UNL     1      24.059  -0.379  53.229  1.00  0.00     0.036 A 
HETATM   12  C14 UNL     1      22.955  -1.012  53.635  1.00  0.00     0.048 A 
HETATM   13  C15 UNL     1      21.726  -0.477  53.331  1.00  0.00     0.013 A 
HETATM   14 BR1  UNL     1      20.196  -1.420  53.937  1.00  0.00    -0.051 Br
HETATM   15  C16 UNL     1      21.520   0.682  52.628  1.00  0.00     0.020 A 
HETATM   16  C17 UNL     1      22.663   1.345  52.201  1.00  0.00     0.011 A 
HETATM   17  C18 UNL     1      23.892   0.844  52.485  1.00  0.00    -0.026 A 
HETATM   18  C19 UNL     1      25.020   1.547  52.027  1.00  0.00     0.097 C 
HETATM   19  H12 UNL     1      25.467  -0.911  54.492  1.00  0.00     0.160 HD
ENDROOT
BRANCH   1  20
HETATM   20  N1  UNL     1      25.189   3.894  51.575  1.00  0.00    -0.389 N 
HETATM   21  H6  UNL     1      25.075   4.449  52.453  1.00  0.00     0.159 HD
BRANCH  20  22
HETATM   22  C5  UNL     1      24.761   4.379  50.292  1.00  0.00     0.158 C 
BRANCH  22  23
HETATM   23  C4  UNL     1      25.876   5.085  49.586  1.00  0.00    -0.040 A 
HETATM   24  C3  UNL     1      26.991   4.391  49.121  1.00  0.00     0.011 A 
HETATM   25  C2  UNL     1      28.014   5.039  48.475  1.00  0.00     0.037 A 
HETATM   26  C1  UNL     1      27.985   6.414  48.253  1.00  0.00     0.065 A 
HETATM   27  C21 UNL     1      26.863   7.106  48.723  1.00  0.00     0.037 A 
HETATM   28  C20 UNL     1      25.843   6.459  49.368  1.00  0.00     0.011 A 
BRANCH  26  29
HETATM   29  O1  UNL     1      29.092   6.892  47.592  1.00  0.00    -0.361 OA
HETATM   30  H1  UNL     1      29.914   7.189  48.107  1.00  0.00     0.217 HD
ENDBRANCH  26  29
ENDBRANCH  22  23
ENDBRANCH  20  22
ENDBRANCH   1  20
TORSDOF 4
ENDMDL
MODEL 5
REMARK VINA RESULT:      -9.4      3.896      6.237
REMARK  4 active torsions:
REMARK  status: ('A' for Active; 'I' for Inactive)
REMARK    1  A    between atoms: O1_1  and  C1_2 
REMARK    2  A    between atoms: C4_5  and  C5_6 
REMARK    3  A    between atoms: C5_6  and  N1_7 
REMARK    4  A    between atoms: N1_7  and  C6_8 
ROOT
HETATM    1  C6  UNL     1      23.972   1.270  53.078  1.00  0.00     0.009 C 
HETATM    2  C7  UNL     1      23.312   0.216  53.700  1.00  0.00     0.027 C 
HETATM    3  C8  UNL     1      21.872  -0.132  53.525  1.00  0.00     0.032 C 
HETATM    4  C9  UNL     1      20.708   0.160  52.919  1.00  0.00     0.063 A 
HETATM    5  N2  UNL     1      19.700  -0.767  53.358  1.00  0.00    -0.244 NA
HETATM    6  C10 UNL     1      18.503  -0.822  52.991  1.00  0.00     0.232 A 
HETATM    7  N3  UNL     1      18.078   0.136  52.034  1.00  0.00    -0.256 NA
HETATM    8  C11 UNL     1      18.935   1.005  51.591  1.00  0.00     0.122 A 
HETATM    9  C12 UNL     1      20.370   1.181  51.936  1.00  0.00     0.174 A 
HETATM   10  N4  UNL     1      20.512   2.577  52.277  1.00  0.00    -0.375 N 
HETATM   11  C13 UNL     1      21.371   3.663  51.826  1.00  0.00     0.036 A 
HETATM   12  C14 UNL     1      21.001   4.876  51.407  1.00  0.00     0.048 A 
HETATM   13  C15 UNL     1      21.966   5.778  51.031  1.00  0.00     0.013 A 
HETATM   14 BR1  UNL     1      21.379   7.485  50.447  1.00  0.00    -0.051 Br
HETATM   15  C16 UNL     1      23.318   5.544  51.047  1.00  0.00     0.020 A 
HETATM   16  C17 UNL     1      23.710   4.284  51.480  1.00  0.00     0.011 A 
HETATM   17  C18 UNL     1      22.782   3.370  51.859  1.00  0.00    -0.026 A 
HETATM   18  C19 UNL     1      23.227   2.106  52.285  1.00  0.00     0.097 C 
HETATM   19  H12 UNL     1      19.921   3.045  53.000  1.00  0.00     0.160 HD
ENDROOT
BRANCH   1  20
HETATM   20  N1  UNL     1      25.344   1.563  53.267  1.00  0.00    -0.389 N 
HETATM   21  H6  UNL     1      25.459   1.968  54.223  1.00  0.00     0.159 HD
BRANCH  20  22
HETATM   22  C5  UNL     1      26.449   1.372  52.369  1.00  0.00     0.158 C 
BRANCH  22  23
HETATM   23  C4  UNL     1      27.161   0.087  52.658  1.00  0.00    -0.040 A 
HETATM   24  C3  UNL     1      26.589  -1.142  52.336  1.00  0.00     0.011 A 
HETATM   25  C2  UNL     1      27.241  -2.321  52.602  1.00  0.00     0.037 A 
HETATM   26  C1  UNL     1      28.498  -2.343  53.202  1.00  0.00     0.065 A 
HETATM   27  C21 UNL     1      29.067  -1.105  53.523  1.00  0.00     0.037 A 
HETATM   28  C20 UNL     1      28.416   0.070  53.258  1.00  0.00     0.011 A 
BRANCH  26  29
HETATM   29  O1  UNL     1      28.999  -3.609  53.392  1.00  0.00    -0.361 OA
HETATM   30  H1  UNL     1      29.526  -3.837  54.228  1.00  0.00     0.217 HD
ENDBRANCH  26  29
ENDBRANCH  22  23
ENDBRANCH  20  22
ENDBRANCH   1  20
TORSDOF 4
ENDMDL
MODEL 6
REMARK VINA RESULT:      -9.3      3.421      6.349
REMARK  4 active torsions:
REMARK  status: ('A' for Active; 'I' for Inactive)
REMARK    1  A    between atoms: O1_1  and  C1_2 
REMARK    2  A    between atoms: C4_5  and  C5_6 
REMARK    3  A    between atoms: C5_6  and  N1_7 
REMARK    4  A    between atoms: N1_7  and  C6_8 
ROOT
HETATM    1  C6  UNL     1      23.203   0.542  53.506  1.00  0.00     0.009 C 
HETATM    2  C7  UNL     1      23.977  -0.521  53.961  1.00  0.00     0.027 C 
HETATM    3  C8  UNL     1      25.467  -0.555  54.004  1.00  0.00     0.032 C 
HETATM    4  C9  UNL     1      26.617   0.100  53.766  1.00  0.00     0.063 A 
HETATM    5  N2  UNL     1      27.725  -0.744  54.117  1.00  0.00    -0.244 NA
HETATM    6  C10 UNL     1      28.946  -0.467  54.056  1.00  0.00     0.232 A 
HETATM    7  N3  UNL     1      29.289   0.828  53.586  1.00  0.00    -0.256 NA
HETATM    8  C11 UNL     1      28.339   1.647  53.251  1.00  0.00     0.122 A 
HETATM    9  C12 UNL     1      26.866   1.450  53.276  1.00  0.00     0.174 A 
HETATM   10  N4  UNL     1      26.408   1.827  51.958  1.00  0.00    -0.375 N 
HETATM   11  C13 UNL     1      25.414   2.758  51.442  1.00  0.00     0.036 A 
HETATM   12  C14 UNL     1      25.587   3.705  50.517  1.00  0.00     0.048 A 
HETATM   13  C15 UNL     1      24.516   4.483  50.148  1.00  0.00     0.013 A 
HETATM   14 BR1  UNL     1      24.823   5.811  48.827  1.00  0.00    -0.051 Br
HETATM   15  C16 UNL     1      23.247   4.375  50.656  1.00  0.00     0.020 A 
HETATM   16  C17 UNL     1      23.061   3.393  51.619  1.00  0.00     0.011 A 
HETATM   17  C18 UNL     1      24.097   2.607  52.006  1.00  0.00    -0.026 A 
HETATM   18  C19 UNL     1      23.861   1.630  52.989  1.00  0.00     0.097 C 
HETATM   19  H12 UNL     1      26.801   1.412  51.083  1.00  0.00     0.160 HD
ENDROOT
BRANCH   1  20
HETATM   20  N1  UNL     1      21.788   0.537  53.489  1.00  0.00    -0.389 N 
HETATM   21  H6  UNL     1      21.455   1.206  54.219  1.00  0.00     0.159 HD
BRANCH  20  22
HETATM   22  C5  UNL     1      20.888  -0.212  52.657  1.00  0.00     0.158 C 
BRANCH  22  23
HETATM   23  C4  UNL     1      20.658   0.483  51.351  1.00  0.00    -0.040 A 
HETATM   24  C3  UNL     1      19.521   1.259  51.138  1.00  0.00     0.011 A 
HETATM   25  C2  UNL     1      19.310   1.895  49.940  1.00  0.00     0.037 A 
HETATM   26  C1  UNL     1      20.217   1.796  48.888  1.00  0.00     0.065 A 
HETATM   27  C21 UNL     1      21.357   1.014  49.109  1.00  0.00     0.037 A 
HETATM   28  C20 UNL     1      21.568   0.380  50.303  1.00  0.00     0.011 A 
BRANCH  26  29
HETATM   29  O1  UNL     1      19.844   2.497  47.765  1.00  0.00    -0.361 OA
HETATM   30  H1  UNL     1      20.427   2.494  46.936  1.00  0.00     0.217 HD
ENDBRANCH  26  29
ENDBRANCH  22  23
ENDBRANCH  20  22
ENDBRANCH   1  20
TORSDOF 4
ENDMDL
MODEL 7
REMARK VINA RESULT:      -9.3      3.904      7.400
REMARK  4 active torsions:
REMARK  status: ('A' for Active; 'I' for Inactive)
REMARK    1  A    between atoms: O1_1  and  C1_2 
REMARK    2  A    between atoms: C4_5  and  C5_6 
REMARK    3  A    between atoms: C5_6  and  N1_7 
REMARK    4  A    between atoms: N1_7  and  C6_8 
ROOT
HETATM    1  C6  UNL     1      26.054   3.160  50.660  1.00  0.00     0.009 C 
HETATM    2  C7  UNL     1      26.485   4.106  49.736  1.00  0.00     0.027 C 
HETATM    3  C8  UNL     1      25.620   5.115  49.058  1.00  0.00     0.032 C 
HETATM    4  C9  UNL     1      24.385   5.626  48.916  1.00  0.00     0.063 A 
HETATM    5  N2  UNL     1      24.422   6.692  47.952  1.00  0.00    -0.244 NA
HETATM    6  C10 UNL     1      23.470   7.418  47.580  1.00  0.00     0.232 A 
HETATM    7  N3  UNL     1      22.203   7.169  48.168  1.00  0.00    -0.256 NA
HETATM    8  C11 UNL     1      22.094   6.221  49.048  1.00  0.00     0.122 A 
HETATM    9  C12 UNL     1      23.129   5.295  49.577  1.00  0.00     0.174 A 
HETATM   10  N4  UNL     1      22.570   3.971  49.427  1.00  0.00    -0.375 N 
HETATM   11  C13 UNL     1      22.333   2.848  50.323  1.00  0.00     0.036 A 
HETATM   12  C14 UNL     1      21.193   2.178  50.507  1.00  0.00     0.048 A 
HETATM   13  C15 UNL     1      21.168   1.129  51.394  1.00  0.00     0.013 A 
HETATM   14 BR1  UNL     1      19.521   0.213  51.610  1.00  0.00    -0.051 Br
HETATM   15  C16 UNL     1      22.239   0.691  52.132  1.00  0.00     0.020 A 
HETATM   16  C17 UNL     1      23.427   1.385  51.946  1.00  0.00     0.011 A 
HETATM   17  C18 UNL     1      23.486   2.426  51.078  1.00  0.00    -0.026 A 
HETATM   18  C19 UNL     1      24.710   3.101  50.928  1.00  0.00     0.097 C 
HETATM   19  H12 UNL     1      22.212   3.609  48.515  1.00  0.00     0.160 HD
ENDROOT
BRANCH   1  20
HETATM   20  N1  UNL     1      26.910   2.223  51.287  1.00  0.00    -0.389 N 
HETATM   21  H6  UNL     1      27.523   1.804  50.551  1.00  0.00     0.159 HD
BRANCH  20  22
HETATM   22  C5  UNL     1      26.997   1.850  52.671  1.00  0.00     0.158 C 
BRANCH  22  23
HETATM   23  C4  UNL     1      27.398   0.414  52.816  1.00  0.00    -0.040 A 
HETATM   24  C3  UNL     1      28.628   0.061  53.367  1.00  0.00     0.011 A 
HETATM   25  C2  UNL     1      28.997  -1.254  53.499  1.00  0.00     0.037 A 
HETATM   26  C1  UNL     1      28.163  -2.293  53.091  1.00  0.00     0.065 A 
HETATM   27  C21 UNL     1      26.928  -1.931  52.538  1.00  0.00     0.037 A 
HETATM   28  C20 UNL     1      26.562  -0.619  52.406  1.00  0.00     0.011 A 
BRANCH  26  29
HETATM   29  O1  UNL     1      28.693  -3.544  53.298  1.00  0.00    -0.361 OA
HETATM   30  H1  UNL     1      28.377  -4.337  52.750  1.00  0.00     0.217 HD
ENDBRANCH  26  29
ENDBRANCH  22  23
ENDBRANCH  20  22
ENDBRANCH   1  20
TORSDOF 4
ENDMDL
MODEL 8
REMARK VINA RESULT:      -9.3      3.513      7.274
REMARK  4 active torsions:
REMARK  status: ('A' for Active; 'I' for Inactive)
REMARK    1  A    between atoms: O1_1  and  C1_2 
REMARK    2  A    between atoms: C4_5  and  C5_6 
REMARK    3  A    between atoms: C5_6  and  N1_7 
REMARK    4  A    between atoms: N1_7  and  C6_8 
ROOT
HETATM    1  C6  UNL     1      22.765   4.267  51.582  1.00  0.00     0.009 C 
HETATM    2  C7  UNL     1      23.035   5.567  51.168  1.00  0.00     0.027 C 
HETATM    3  C8  UNL     1      24.244   6.004  50.411  1.00  0.00     0.032 C 
HETATM    4  C9  UNL     1      25.402   5.644  49.833  1.00  0.00     0.063 A 
HETATM    5  N2  UNL     1      26.033   6.807  49.270  1.00  0.00    -0.244 NA
HETATM    6  C10 UNL     1      27.110   6.857  48.633  1.00  0.00     0.232 A 
HETATM    7  N3  UNL     1      27.800   5.633  48.437  1.00  0.00    -0.256 NA
HETATM    8  C11 UNL     1      27.290   4.540  48.917  1.00  0.00     0.122 A 
HETATM    9  C12 UNL     1      26.033   4.339  49.683  1.00  0.00     0.174 A 
HETATM   10  N4  UNL     1      26.417   3.592  50.858  1.00  0.00    -0.375 N 
HETATM   11  C13 UNL     1      25.982   2.345  51.472  1.00  0.00     0.036 A 
HETATM   12  C14 UNL     1      26.740   1.308  51.839  1.00  0.00     0.048 A 
HETATM   13  C15 UNL     1      26.144   0.215  52.419  1.00  0.00     0.013 A 
HETATM   14 BR1  UNL     1      27.272  -1.225  52.922  1.00  0.00    -0.051 Br
HETATM   15  C16 UNL     1      24.800   0.083  52.665  1.00  0.00     0.020 A 
HETATM   16  C17 UNL     1      24.006   1.157  52.284  1.00  0.00     0.011 A 
HETATM   17  C18 UNL     1      24.563   2.252  51.709  1.00  0.00    -0.026 A 
HETATM   18  C19 UNL     1      23.718   3.311  51.335  1.00  0.00     0.097 C 
HETATM   19  H12 UNL     1      27.173   3.907  51.507  1.00  0.00     0.160 HD
ENDROOT
BRANCH   1  20
HETATM   20  N1  UNL     1      21.600   3.891  52.293  1.00  0.00    -0.389 N 
HETATM   21  H6  UNL     1      21.768   4.075  53.307  1.00  0.00     0.159 HD
BRANCH  20  22
HETATM   22  C5  UNL     1      20.364   3.350  51.799  1.00  0.00     0.158 C 
BRANCH  22  23
HETATM   23  C4  UNL     1      20.111   1.986  52.364  1.00  0.00    -0.040 A 
HETATM   24  C3  UNL     1      20.800   1.531  53.486  1.00  0.00     0.011 A 
HETATM   25  C2  UNL     1      20.569   0.281  54.002  1.00  0.00     0.037 A 
HETATM   26  C1  UNL     1      19.639  -0.587  53.433  1.00  0.00     0.065 A 
HETATM   27  C21 UNL     1      18.951  -0.123  52.306  1.00  0.00     0.037 A 
HETATM   28  C20 UNL     1      19.182   1.124  51.791  1.00  0.00     0.011 A 
BRANCH  26  29
HETATM   29  O1  UNL     1      19.539  -1.795  54.081  1.00  0.00    -0.361 OA
HETATM   30  H1  UNL     1      20.354  -2.385  54.206  1.00  0.00     0.217 HD
ENDBRANCH  26  29
ENDBRANCH  22  23
ENDBRANCH  20  22
ENDBRANCH   1  20
TORSDOF 4
ENDMDL
MODEL 9
REMARK VINA RESULT:      -9.1      3.610      6.231
REMARK  4 active torsions:
REMARK  status: ('A' for Active; 'I' for Inactive)
REMARK    1  A    between atoms: O1_1  and  C1_2 
REMARK    2  A    between atoms: C4_5  and  C5_6 
REMARK    3  A    between atoms: C5_6  and  N1_7 
REMARK    4  A    between atoms: N1_7  and  C6_8 
ROOT
HETATM    1  C6  UNL     1      24.605   1.946  52.447  1.00  0.00     0.009 C 
HETATM    2  C7  UNL     1      23.614   1.211  53.089  1.00  0.00     0.027 C 
HETATM    3  C8  UNL     1      22.249   0.938  52.553  1.00  0.00     0.032 C 
HETATM    4  C9  UNL     1      21.383   1.104  51.539  1.00  0.00     0.063 A 
HETATM    5  N2  UNL     1      20.142   0.456  51.864  1.00  0.00    -0.244 NA
HETATM    6  C10 UNL     1      19.113   0.377  51.153  1.00  0.00     0.232 A 
HETATM    7  N3  UNL     1      19.163   0.996  49.877  1.00  0.00    -0.256 NA
HETATM    8  C11 UNL     1      20.253   1.600  49.514  1.00  0.00     0.122 A 
HETATM    9  C12 UNL     1      21.534   1.767  50.250  1.00  0.00     0.174 A 
HETATM   10  N4  UNL     1      21.820   3.182  50.203  1.00  0.00    -0.375 N 
HETATM   11  C13 UNL     1      22.953   3.988  49.771  1.00  0.00     0.036 A 
HETATM   12  C14 UNL     1      22.945   5.020  48.923  1.00  0.00     0.048 A 
HETATM   13  C15 UNL     1      24.123   5.670  48.647  1.00  0.00     0.013 A 
HETATM   14 BR1  UNL     1      24.047   7.129  47.437  1.00  0.00    -0.051 Br
HETATM   15  C16 UNL     1      25.347   5.348  49.177  1.00  0.00     0.020 A 
HETATM   16  C17 UNL     1      25.363   4.276  50.059  1.00  0.00     0.011 A 
HETATM   17  C18 UNL     1      24.217   3.612  50.353  1.00  0.00    -0.026 A 
HETATM   18  C19 UNL     1      24.285   2.529  51.247  1.00  0.00     0.097 C 
HETATM   19  H12 UNL     1      21.139   3.907  50.521  1.00  0.00     0.160 HD
ENDROOT
BRANCH   1  20
HETATM   20  N1  UNL     1      25.892   2.176  52.988  1.00  0.00    -0.389 N 
HETATM   21  H6  UNL     1      25.773   2.602  53.934  1.00  0.00     0.159 HD
BRANCH  20  22
HETATM   22  C5  UNL     1      27.183   1.906  52.418  1.00  0.00     0.158 C 
BRANCH  22  23
HETATM   23  C4  UNL     1      27.605   0.495  52.688  1.00  0.00    -0.040 A 
HETATM   24  C3  UNL     1      26.813  -0.583  52.298  1.00  0.00     0.011 A 
HETATM   25  C2  UNL     1      27.200  -1.876  52.547  1.00  0.00     0.037 A 
HETATM   26  C1  UNL     1      28.396  -2.171  53.198  1.00  0.00     0.065 A 
HETATM   27  C21 UNL     1      29.187  -1.083  53.587  1.00  0.00     0.037 A 
HETATM   28  C20 UNL     1      28.801   0.206  53.339  1.00  0.00     0.011 A 
BRANCH  26  29
HETATM   29  O1  UNL     1      28.621  -3.517  53.362  1.00  0.00    -0.361 OA
HETATM   30  H1  UNL     1      28.807  -4.112  52.562  1.00  0.00     0.217 HD
ENDBRANCH  26  29
ENDBRANCH  22  23
ENDBRANCH  20  22
ENDBRANCH   1  20
TORSDOF 4
ENDMDL
