MODEL 1
REMARK VINA RESULT:      -8.9      0.000      0.000
REMARK  6 active torsions:
REMARK  status: ('A' for Active; 'I' for Inactive)
REMARK    1  A    between atoms: N1_1  and  C1_2 
REMARK    2  A    between atoms: C5_8  and  C6_9 
REMARK    3  A    between atoms: C10_13  and  O1_14 
REMARK    4  A    between atoms: N4_17  and  C13_18 
REMARK    5  A    between atoms: C15_20  and  C16_21 
REMARK    6  A    between atoms: C16_21  and  N5_22 
ROOT
HETATM    1  C1  UNL     1      23.927  -1.044  54.945  1.00  0.00     0.137 A 
HETATM    2  N2  UNL     1      22.684  -1.312  55.425  1.00  0.00    -0.224 NA
HETATM    3  C2  UNL     1      21.584  -0.807  54.830  1.00  0.00     0.237 A 
HETATM    4  N3  UNL     1      21.716  -0.026  53.744  1.00  0.00    -0.223 NA
HETATM    5  C3  UNL     1      22.928   0.284  53.206  1.00  0.00     0.146 A 
HETATM    6  C4  UNL     1      24.039  -0.247  53.837  1.00  0.00     0.068 A 
HETATM    7  C5  UNL     1      25.193   0.147  53.197  1.00  0.00     0.008 A 
HETATM    8  C12 UNL     1      24.722   0.944  52.148  1.00  0.00     0.106 A 
HETATM    9  N4  UNL     1      23.398   1.022  52.157  1.00  0.00    -0.335 N 
ENDROOT
BRANCH   9  10
HETATM   10  C13 UNL     1      22.408   1.678  51.345  1.00  0.00     0.092 A 
HETATM   11  C14 UNL     1      22.871   2.263  50.033  1.00  0.00     0.032 A 
HETATM   12  C15 UNL     1      22.638   3.625  50.556  1.00  0.00     0.018 A 
HETATM   13  C20 UNL     1      22.133   3.051  51.892  1.00  0.00     0.032 A 
BRANCH  12  14
HETATM   14  C16 UNL     1      21.575   4.501  49.998  1.00  0.00     0.277 C 
BRANCH  14  15
HETATM   15  N5  UNL     1      21.889   5.873  49.806  1.00  0.00     0.088 N 
HETATM   16  C17 UNL     1      21.594   6.817  50.834  1.00  0.00     0.274 C 
HETATM   17  C18 UNL     1      22.907   7.550  50.523  1.00  0.00     0.060 C 
HETATM   18  C19 UNL     1      23.291   6.163  50.014  1.00  0.00     0.274 C 
ENDBRANCH  14  15
ENDBRANCH  12  14
ENDBRANCH   9  10
BRANCH   7  19
HETATM   19  C6  UNL     1      26.610  -0.117  53.395  1.00  0.00    -0.021 A 
HETATM   20  C7  UNL     1      27.375  -1.177  52.978  1.00  0.00     0.012 A 
HETATM   21  C8  UNL     1      28.703  -1.327  53.241  1.00  0.00     0.004 A 
HETATM   22  C9  UNL     1      29.324  -0.324  53.989  1.00  0.00     0.036 A 
HETATM   23  C10 UNL     1      28.591   0.776  54.436  1.00  0.00     0.066 A 
HETATM   24  C11 UNL     1      27.251   0.876  54.141  1.00  0.00     0.049 A 
BRANCH  23  25
HETATM   25  O1  UNL     1      29.280   1.717  55.166  1.00  0.00    -0.361 OA
HETATM   26  H7  UNL     1      29.643   1.537  56.097  1.00  0.00     0.217 HD
ENDBRANCH  23  25
ENDBRANCH   7  19
BRANCH   1  27
HETATM   27  N1  UNL     1      25.048  -1.595  55.621  1.00  0.00    -0.383 N 
HETATM   28  H1  UNL     1      24.614  -2.257  56.323  1.00  0.00     0.157 HD
HETATM   29  H2  UNL     1      26.041  -1.345  55.405  1.00  0.00     0.157 HD
ENDBRANCH   1  27
TORSDOF 6
ENDMDL
MODEL 2
REMARK VINA RESULT:      -8.9      1.180      1.508
REMARK  6 active torsions:
REMARK  status: ('A' for Active; 'I' for Inactive)
REMARK    1  A    between atoms: N1_1  and  C1_2 
REMARK    2  A    between atoms: C5_8  and  C6_9 
REMARK    3  A    between atoms: C10_13  and  O1_14 
REMARK    4  A    between atoms: N4_17  and  C13_18 
REMARK    5  A    between atoms: C15_20  and  C16_21 
REMARK    6  A    between atoms: C16_21  and  N5_22 
ROOT
HETATM    1  C1  UNL     1      23.868  -1.032  54.952  1.00  0.00     0.137 A 
HETATM    2  N2  UNL     1      22.612  -1.202  55.442  1.00  0.00    -0.224 NA
HETATM    3  C2  UNL     1      21.548  -0.630  54.843  1.00  0.00     0.237 A 
HETATM    4  N3  UNL     1      21.728   0.120  53.742  1.00  0.00    -0.223 NA
HETATM    5  C3  UNL     1      22.957   0.333  53.194  1.00  0.00     0.146 A 
HETATM    6  C4  UNL     1      24.031  -0.265  53.829  1.00  0.00     0.068 A 
HETATM    7  C5  UNL     1      25.206   0.034  53.176  1.00  0.00     0.008 A 
HETATM    8  C12 UNL     1      24.787   0.844  52.116  1.00  0.00     0.106 A 
HETATM    9  N4  UNL     1      23.472   1.017  52.129  1.00  0.00    -0.335 N 
ENDROOT
BRANCH   9  10
HETATM   10  C13 UNL     1      22.527   1.728  51.310  1.00  0.00     0.092 A 
HETATM   11  C14 UNL     1      23.040   2.318  50.020  1.00  0.00     0.032 A 
HETATM   12  C15 UNL     1      22.852   3.678  50.564  1.00  0.00     0.018 A 
HETATM   13  C20 UNL     1      22.296   3.100  51.879  1.00  0.00     0.032 A 
BRANCH  12  14
HETATM   14  C16 UNL     1      21.838   4.608  50.002  1.00  0.00     0.277 C 
BRANCH  14  15
HETATM   15  N5  UNL     1      22.214   5.967  49.834  1.00  0.00     0.088 N 
HETATM   16  C17 UNL     1      21.843   6.931  50.819  1.00  0.00     0.274 C 
HETATM   17  C18 UNL     1      23.204   7.619  50.643  1.00  0.00     0.060 C 
HETATM   18  C19 UNL     1      23.594   6.216  50.188  1.00  0.00     0.274 C 
ENDBRANCH  14  15
ENDBRANCH  12  14
ENDBRANCH   9  10
BRANCH   7  19
HETATM   19  C6  UNL     1      26.601  -0.327  53.373  1.00  0.00    -0.021 A 
HETATM   20  C7  UNL     1      27.633   0.403  53.909  1.00  0.00     0.012 A 
HETATM   21  C8  UNL     1      28.916  -0.037  54.027  1.00  0.00     0.004 A 
HETATM   22  C9  UNL     1      29.195  -1.327  53.567  1.00  0.00     0.036 A 
HETATM   23  C10 UNL     1      28.182  -2.110  53.014  1.00  0.00     0.066 A 
HETATM   24  C11 UNL     1      26.902  -1.614  52.920  1.00  0.00     0.049 A 
BRANCH  23  25
HETATM   25  O1  UNL     1      28.542  -3.367  52.586  1.00  0.00    -0.361 OA
HETATM   26  H7  UNL     1      28.938  -4.069  53.203  1.00  0.00     0.217 HD
ENDBRANCH  23  25
ENDBRANCH   7  19
BRANCH   1  27
HETATM   27  N1  UNL     1      24.950  -1.650  55.632  1.00  0.00    -0.383 N 
HETATM   28  H1  UNL     1      24.913  -2.653  55.298  1.00  0.00     0.157 HD
HETATM   29  H2  UNL     1      25.588  -1.149  56.293  1.00  0.00     0.157 HD
ENDBRANCH   1  27
TORSDOF 6
ENDMDL
MODEL 3
REMARK VINA RESULT:      -8.1      2.570      5.535
REMARK  6 active torsions:
REMARK  status: ('A' for Active; 'I' for Inactive)
REMARK    1  A    between atoms: N1_1  and  C1_2 
REMARK    2  A    between atoms: C5_8  and  C6_9 
REMARK    3  A    between atoms: C10_13  and  O1_14 
REMARK    4  A    between atoms: N4_17  and  C13_18 
REMARK    5  A    between atoms: C15_20  and  C16_21 
REMARK    6  A    between atoms: C16_21  and  N5_22 
ROOT
HETATM    1  C1  UNL     1      25.299   2.860  50.987  1.00  0.00     0.137 A 
HETATM    2  N2  UNL     1      24.769   3.885  50.270  1.00  0.00    -0.224 NA
HETATM    3  C2  UNL     1      23.445   4.138  50.291  1.00  0.00     0.237 A 
HETATM    4  N3  UNL     1      22.632   3.366  51.033  1.00  0.00    -0.223 NA
HETATM    5  C3  UNL     1      23.092   2.322  51.778  1.00  0.00     0.146 A 
HETATM    6  C4  UNL     1      24.454   2.085  51.737  1.00  0.00     0.068 A 
HETATM    7  C5  UNL     1      24.780   1.005  52.527  1.00  0.00     0.008 A 
HETATM    8  C12 UNL     1      23.545   0.601  53.046  1.00  0.00     0.106 A 
HETATM    9  N4  UNL     1      22.560   1.374  52.605  1.00  0.00    -0.335 N 
ENDROOT
BRANCH   9  10
HETATM   10  C13 UNL     1      21.136   1.423  52.802  1.00  0.00     0.092 A 
HETATM   11  C14 UNL     1      20.561   0.558  53.895  1.00  0.00     0.032 A 
HETATM   12  C15 UNL     1      19.900  -0.289  52.881  1.00  0.00     0.018 A 
HETATM   13  C20 UNL     1      20.451   0.597  51.749  1.00  0.00     0.032 A 
BRANCH  12  14
HETATM   14  C16 UNL     1      18.421  -0.337  52.753  1.00  0.00     0.277 C 
BRANCH  14  15
HETATM   15  N5  UNL     1      17.731  -1.346  53.477  1.00  0.00     0.088 N 
HETATM   16  C17 UNL     1      16.757  -2.152  52.815  1.00  0.00     0.274 C 
HETATM   17  C18 UNL     1      17.239  -3.371  53.614  1.00  0.00     0.060 C 
HETATM   18  C19 UNL     1      18.520  -2.544  53.661  1.00  0.00     0.274 C 
ENDBRANCH  14  15
ENDBRANCH  12  14
ENDBRANCH   9  10
BRANCH   7  19
HETATM   19  C6  UNL     1      26.023   0.334  52.875  1.00  0.00    -0.021 A 
HETATM   20  C7  UNL     1      26.559  -0.834  52.392  1.00  0.00     0.012 A 
HETATM   21  C8  UNL     1      27.735  -1.380  52.810  1.00  0.00     0.004 A 
HETATM   22  C9  UNL     1      28.442  -0.694  53.801  1.00  0.00     0.036 A 
HETATM   23  C10 UNL     1      27.941   0.498  54.325  1.00  0.00     0.066 A 
HETATM   24  C11 UNL     1      26.747   1.004  53.865  1.00  0.00     0.049 A 
BRANCH  23  25
HETATM   25  O1  UNL     1      28.700   1.108  55.298  1.00  0.00    -0.361 OA
HETATM   26  H7  UNL     1      29.230   1.958  55.134  1.00  0.00     0.217 HD
ENDBRANCH  23  25
ENDBRANCH   7  19
BRANCH   1  27
HETATM   27  N1  UNL     1      26.699   2.635  50.917  1.00  0.00    -0.383 N 
HETATM   28  H1  UNL     1      26.794   1.897  50.165  1.00  0.00     0.157 HD
HETATM   29  H2  UNL     1      27.402   3.133  51.512  1.00  0.00     0.157 HD
ENDBRANCH   1  27
TORSDOF 6
ENDMDL
MODEL 4
REMARK VINA RESULT:      -8.0      3.332      5.901
REMARK  6 active torsions:
REMARK  status: ('A' for Active; 'I' for Inactive)
REMARK    1  A    between atoms: N1_1  and  C1_2 
REMARK    2  A    between atoms: C5_8  and  C6_9 
REMARK    3  A    between atoms: C10_13  and  O1_14 
REMARK    4  A    between atoms: N4_17  and  C13_18 
REMARK    5  A    between atoms: C15_20  and  C16_21 
REMARK    6  A    between atoms: C16_21  and  N5_22 
ROOT
HETATM    1  C1  UNL     1      27.035   1.846  53.356  1.00  0.00     0.137 A 
HETATM    2  N2  UNL     1      27.437   1.125  54.435  1.00  0.00    -0.224 NA
HETATM    3  C2  UNL     1      26.647   0.174  54.971  1.00  0.00     0.237 A 
HETATM    4  N3  UNL     1      25.440  -0.069  54.431  1.00  0.00    -0.223 NA
HETATM    5  C3  UNL     1      24.970   0.613  53.349  1.00  0.00     0.146 A 
HETATM    6  C4  UNL     1      25.802   1.583  52.820  1.00  0.00     0.068 A 
HETATM    7  C5  UNL     1      25.205   2.194  51.739  1.00  0.00     0.008 A 
HETATM    8  C12 UNL     1      23.971   1.543  51.644  1.00  0.00     0.106 A 
HETATM    9  N4  UNL     1      23.837   0.620  52.587  1.00  0.00    -0.335 N 
ENDROOT
BRANCH   9  10
HETATM   10  C13 UNL     1      22.813  -0.322  52.955  1.00  0.00     0.092 A 
HETATM   11  C14 UNL     1      21.733  -0.599  51.940  1.00  0.00     0.032 A 
HETATM   12  C15 UNL     1      20.743   0.073  52.804  1.00  0.00     0.018 A 
HETATM   13  C20 UNL     1      21.821   0.342  53.870  1.00  0.00     0.032 A 
BRANCH  12  14
HETATM   14  C16 UNL     1      19.634  -0.678  53.447  1.00  0.00     0.277 C 
BRANCH  14  15
HETATM   15  N5  UNL     1      18.310  -0.386  53.022  1.00  0.00     0.088 N 
HETATM   16  C17 UNL     1      18.024  -0.270  51.629  1.00  0.00     0.274 C 
HETATM   17  C18 UNL     1      16.679  -0.974  51.858  1.00  0.00     0.060 C 
HETATM   18  C19 UNL     1      17.443  -1.543  53.050  1.00  0.00     0.274 C 
ENDBRANCH  14  15
ENDBRANCH  12  14
ENDBRANCH   9  10
BRANCH   7  19
HETATM   19  C6  UNL     1      25.608   3.235  50.806  1.00  0.00    -0.021 A 
HETATM   20  C7  UNL     1      26.611   3.238  49.869  1.00  0.00     0.012 A 
HETATM   21  C8  UNL     1      26.910   4.288  49.056  1.00  0.00     0.004 A 
HETATM   22  C9  UNL     1      26.134   5.442  49.189  1.00  0.00     0.036 A 
HETATM   23  C10 UNL     1      25.101   5.490  50.126  1.00  0.00     0.066 A 
HETATM   24  C11 UNL     1      24.843   4.399  50.923  1.00  0.00     0.049 A 
BRANCH  23  25
HETATM   25  O1  UNL     1      24.387   6.665  50.192  1.00  0.00    -0.361 OA
HETATM   26  H7  UNL     1      23.376   6.693  50.284  1.00  0.00     0.217 HD
ENDBRANCH  23  25
ENDBRANCH   7  19
BRANCH   1  27
HETATM   27  N1  UNL     1      27.906   2.843  52.842  1.00  0.00    -0.383 N 
HETATM   28  H1  UNL     1      27.913   3.581  53.600  1.00  0.00     0.157 HD
HETATM   29  H2  UNL     1      28.388   2.776  51.915  1.00  0.00     0.157 HD
ENDBRANCH   1  27
TORSDOF 6
ENDMDL
MODEL 5
REMARK VINA RESULT:      -8.0      2.751      5.726
REMARK  6 active torsions:
REMARK  status: ('A' for Active; 'I' for Inactive)
REMARK    1  A    between atoms: N1_1  and  C1_2 
REMARK    2  A    between atoms: C5_8  and  C6_9 
REMARK    3  A    between atoms: C10_13  and  O1_14 
REMARK    4  A    between atoms: N4_17  and  C13_18 
REMARK    5  A    between atoms: C15_20  and  C16_21 
REMARK    6  A    between atoms: C16_21  and  N5_22 
ROOT
HETATM    1  C1  UNL     1      25.381   2.567  51.199  1.00  0.00     0.137 A 
HETATM    2  N2  UNL     1      24.730   3.517  50.477  1.00  0.00    -0.224 NA
HETATM    3  C2  UNL     1      23.402   3.706  50.612  1.00  0.00     0.237 A 
HETATM    4  N3  UNL     1      22.707   2.944  51.475  1.00  0.00    -0.223 NA
HETATM    5  C3  UNL     1      23.291   1.974  52.232  1.00  0.00     0.146 A 
HETATM    6  C4  UNL     1      24.654   1.802  52.072  1.00  0.00     0.068 A 
HETATM    7  C5  UNL     1      25.112   0.792  52.890  1.00  0.00     0.008 A 
HETATM    8  C12 UNL     1      23.955   0.363  53.550  1.00  0.00     0.106 A 
HETATM    9  N4  UNL     1      22.893   1.057  53.162  1.00  0.00    -0.335 N 
ENDROOT
BRANCH   9  10
HETATM   10  C13 UNL     1      21.493   1.050  53.494  1.00  0.00     0.092 A 
HETATM   11  C14 UNL     1      21.023   0.008  54.478  1.00  0.00     0.032 A 
HETATM   12  C15 UNL     1      20.272  -0.672  53.403  1.00  0.00     0.018 A 
HETATM   13  C20 UNL     1      20.714   0.396  52.386  1.00  0.00     0.032 A 
BRANCH  12  14
HETATM   14  C16 UNL     1      18.787  -0.724  53.404  1.00  0.00     0.277 C 
BRANCH  14  15
HETATM   15  N5  UNL     1      18.171  -1.915  52.936  1.00  0.00     0.088 N 
HETATM   16  C17 UNL     1      17.852  -2.956  53.858  1.00  0.00     0.274 C 
HETATM   17  C18 UNL     1      16.549  -3.221  53.091  1.00  0.00     0.060 C 
HETATM   18  C19 UNL     1      16.753  -1.760  52.701  1.00  0.00     0.274 C 
ENDBRANCH  14  15
ENDBRANCH  12  14
ENDBRANCH   9  10
BRANCH   7  19
HETATM   19  C6  UNL     1      26.417   0.207  53.154  1.00  0.00    -0.021 A 
HETATM   20  C7  UNL     1      27.550   0.779  53.678  1.00  0.00     0.012 A 
HETATM   21  C8  UNL     1      28.732   0.131  53.865  1.00  0.00     0.004 A 
HETATM   22  C9  UNL     1      28.790  -1.215  53.494  1.00  0.00     0.036 A 
HETATM   23  C10 UNL     1      27.667  -1.844  52.956  1.00  0.00     0.066 A 
HETATM   24  C11 UNL     1      26.496  -1.140  52.790  1.00  0.00     0.049 A 
BRANCH  23  25
HETATM   25  O1  UNL     1      27.809  -3.170  52.618  1.00  0.00    -0.361 OA
HETATM   26  H7  UNL     1      27.059  -3.848  52.707  1.00  0.00     0.217 HD
ENDBRANCH  23  25
ENDBRANCH   7  19
BRANCH   1  27
HETATM   27  N1  UNL     1      26.778   2.406  51.006  1.00  0.00    -0.383 N 
HETATM   28  H1  UNL     1      27.134   3.399  50.934  1.00  0.00     0.157 HD
HETATM   29  H2  UNL     1      27.259   1.478  50.959  1.00  0.00     0.157 HD
ENDBRANCH   1  27
TORSDOF 6
ENDMDL
MODEL 6
REMARK VINA RESULT:      -7.9      2.680      3.680
REMARK  6 active torsions:
REMARK  status: ('A' for Active; 'I' for Inactive)
REMARK    1  A    between atoms: N1_1  and  C1_2 
REMARK    2  A    between atoms: C5_8  and  C6_9 
REMARK    3  A    between atoms: C10_13  and  O1_14 
REMARK    4  A    between atoms: N4_17  and  C13_18 
REMARK    5  A    between atoms: C15_20  and  C16_21 
REMARK    6  A    between atoms: C16_21  and  N5_22 
ROOT
HETATM    1  C1  UNL     1      23.323   1.229  52.734  1.00  0.00     0.137 A 
HETATM    2  N2  UNL     1      21.994   1.506  52.674  1.00  0.00    -0.224 NA
HETATM    3  C2  UNL     1      21.529   2.525  51.924  1.00  0.00     0.237 A 
HETATM    4  N3  UNL     1      22.391   3.282  51.223  1.00  0.00    -0.223 NA
HETATM    5  C3  UNL     1      23.736   3.063  51.234  1.00  0.00     0.146 A 
HETATM    6  C4  UNL     1      24.185   2.011  52.012  1.00  0.00     0.068 A 
HETATM    7  C5  UNL     1      25.556   1.906  51.936  1.00  0.00     0.008 A 
HETATM    8  C12 UNL     1      25.911   2.948  51.073  1.00  0.00     0.106 A 
HETATM    9  N4  UNL     1      24.844   3.623  50.665  1.00  0.00    -0.335 N 
ENDROOT
BRANCH   9  10
HETATM   10  C13 UNL     1      24.619   4.751  49.802  1.00  0.00     0.092 A 
HETATM   11  C14 UNL     1      25.783   5.224  48.967  1.00  0.00     0.032 A 
HETATM   12  C15 UNL     1      25.851   6.467  49.763  1.00  0.00     0.018 A 
HETATM   13  C20 UNL     1      24.645   6.019  50.609  1.00  0.00     0.032 A 
BRANCH  12  14
HETATM   14  C16 UNL     1      25.533   7.791  49.167  1.00  0.00     0.277 C 
BRANCH  14  15
HETATM   15  N5  UNL     1      26.594   8.727  49.044  1.00  0.00     0.088 N 
HETATM   16  C17 UNL     1      27.248   9.213  50.215  1.00  0.00     0.274 C 
HETATM   17  C18 UNL     1      28.589   9.173  49.469  1.00  0.00     0.060 C 
HETATM   18  C19 UNL     1      27.846   8.111  48.664  1.00  0.00     0.274 C 
ENDBRANCH  14  15
ENDBRANCH  12  14
ENDBRANCH   9  10
BRANCH   7  19
HETATM   19  C6  UNL     1      26.542   1.001  52.505  1.00  0.00    -0.021 A 
HETATM   20  C7  UNL     1      26.771  -0.328  52.248  1.00  0.00     0.012 A 
HETATM   21  C8  UNL     1      27.720  -1.086  52.862  1.00  0.00     0.004 A 
HETATM   22  C9  UNL     1      28.517  -0.459  53.823  1.00  0.00     0.036 A 
HETATM   23  C10 UNL     1      28.326   0.891  54.121  1.00  0.00     0.066 A 
HETATM   24  C11 UNL     1      27.350   1.609  53.469  1.00  0.00     0.049 A 
BRANCH  23  25
HETATM   25  O1  UNL     1      29.154   1.431  55.080  1.00  0.00    -0.361 OA
HETATM   26  H7  UNL     1      29.978   0.954  55.430  1.00  0.00     0.217 HD
ENDBRANCH  23  25
ENDBRANCH   7  19
BRANCH   1  27
HETATM   27  N1  UNL     1      23.755   0.150  53.549  1.00  0.00    -0.383 N 
HETATM   28  H1  UNL     1      23.409  -0.706  53.032  1.00  0.00     0.157 HD
HETATM   29  H2  UNL     1      24.290   0.268  54.441  1.00  0.00     0.157 HD
ENDBRANCH   1  27
TORSDOF 6
ENDMDL
MODEL 7
REMARK VINA RESULT:      -7.6      3.021      7.562
REMARK  6 active torsions:
REMARK  status: ('A' for Active; 'I' for Inactive)
REMARK    1  A    between atoms: N1_1  and  C1_2 
REMARK    2  A    between atoms: C5_8  and  C6_9 
REMARK    3  A    between atoms: C10_13  and  O1_14 
REMARK    4  A    between atoms: N4_17  and  C13_18 
REMARK    5  A    between atoms: C15_20  and  C16_21 
REMARK    6  A    between atoms: C16_21  and  N5_22 
ROOT
HETATM    1  C1  UNL     1      22.652   3.304  48.522  1.00  0.00     0.137 A 
HETATM    2  N2  UNL     1      21.673   2.361  48.505  1.00  0.00    -0.224 NA
HETATM    3  C2  UNL     1      21.614   1.402  49.450  1.00  0.00     0.237 A 
HETATM    4  N3  UNL     1      22.536   1.374  50.428  1.00  0.00    -0.223 NA
HETATM    5  C3  UNL     1      23.544   2.286  50.510  1.00  0.00     0.146 A 
HETATM    6  C4  UNL     1      23.581   3.259  49.527  1.00  0.00     0.068 A 
HETATM    7  C5  UNL     1      24.648   4.107  49.727  1.00  0.00     0.008 A 
HETATM    8  C12 UNL     1      25.252   3.597  50.881  1.00  0.00     0.106 A 
HETATM    9  N4  UNL     1      24.605   2.532  51.335  1.00  0.00    -0.335 N 
ENDROOT
BRANCH   9  10
HETATM   10  C13 UNL     1      24.771   1.634  52.447  1.00  0.00     0.092 A 
HETATM   11  C14 UNL     1      25.545   2.145  53.636  1.00  0.00     0.032 A 
HETATM   12  C15 UNL     1      26.637   1.197  53.337  1.00  0.00     0.018 A 
HETATM   13  C20 UNL     1      25.853   0.638  52.135  1.00  0.00     0.032 A 
BRANCH  12  14
HETATM   14  C16 UNL     1      26.957   0.067  54.247  1.00  0.00     0.277 C 
BRANCH  14  15
HETATM   15  N5  UNL     1      28.326  -0.278  54.408  1.00  0.00     0.088 N 
HETATM   16  C17 UNL     1      28.937  -1.192  53.499  1.00  0.00     0.274 C 
HETATM   17  C18 UNL     1      30.223  -0.355  53.538  1.00  0.00     0.060 C 
HETATM   18  C19 UNL     1      29.224   0.738  53.908  1.00  0.00     0.274 C 
ENDBRANCH  14  15
ENDBRANCH  12  14
ENDBRANCH   9  10
BRANCH   7  19
HETATM   19  C6  UNL     1      25.152   5.289  49.045  1.00  0.00    -0.021 A 
HETATM   20  C7  UNL     1      24.474   6.367  48.533  1.00  0.00     0.012 A 
HETATM   21  C8  UNL     1      25.057   7.418  47.892  1.00  0.00     0.004 A 
HETATM   22  C9  UNL     1      26.446   7.389  47.749  1.00  0.00     0.036 A 
HETATM   23  C10 UNL     1      27.183   6.316  48.253  1.00  0.00     0.066 A 
HETATM   24  C11 UNL     1      26.541   5.281  48.892  1.00  0.00     0.049 A 
BRANCH  23  25
HETATM   25  O1  UNL     1      28.546   6.368  48.070  1.00  0.00    -0.361 OA
HETATM   26  H7  UNL     1      29.200   5.838  48.637  1.00  0.00     0.217 HD
ENDBRANCH  23  25
ENDBRANCH   7  19
BRANCH   1  27
HETATM   27  N1  UNL     1      22.670   4.283  47.494  1.00  0.00    -0.383 N 
HETATM   28  H1  UNL     1      23.322   3.870  46.770  1.00  0.00     0.157 HD
HETATM   29  H2  UNL     1      22.128   5.178  47.529  1.00  0.00     0.157 HD
ENDBRANCH   1  27
TORSDOF 6
ENDMDL
MODEL 8
REMARK VINA RESULT:      -7.3      2.832      4.647
REMARK  6 active torsions:
REMARK  status: ('A' for Active; 'I' for Inactive)
REMARK    1  A    between atoms: N1_1  and  C1_2 
REMARK    2  A    between atoms: C5_8  and  C6_9 
REMARK    3  A    between atoms: C10_13  and  O1_14 
REMARK    4  A    between atoms: N4_17  and  C13_18 
REMARK    5  A    between atoms: C15_20  and  C16_21 
REMARK    6  A    between atoms: C16_21  and  N5_22 
ROOT
HETATM    1  C1  UNL     1      26.482   0.739  54.071  1.00  0.00     0.137 A 
HETATM    2  N2  UNL     1      27.769   1.171  54.126  1.00  0.00    -0.224 NA
HETATM    3  C2  UNL     1      28.256   2.027  53.205  1.00  0.00     0.237 A 
HETATM    4  N3  UNL     1      27.459   2.462  52.214  1.00  0.00    -0.223 NA
HETATM    5  C3  UNL     1      26.159   2.073  52.095  1.00  0.00     0.146 A 
HETATM    6  C4  UNL     1      25.686   1.194  53.054  1.00  0.00     0.068 A 
HETATM    7  C5  UNL     1      24.366   0.882  52.813  1.00  0.00     0.008 A 
HETATM    8  C12 UNL     1      24.068   1.615  51.660  1.00  0.00     0.106 A 
HETATM    9  N4  UNL     1      25.118   2.310  51.243  1.00  0.00    -0.335 N 
ENDROOT
BRANCH   9  10
HETATM   10  C13 UNL     1      25.380   3.208  50.150  1.00  0.00     0.092 A 
HETATM   11  C14 UNL     1      25.395   4.685  50.460  1.00  0.00     0.032 A 
HETATM   12  C15 UNL     1      24.159   4.865  49.672  1.00  0.00     0.018 A 
HETATM   13  C20 UNL     1      24.138   3.367  49.317  1.00  0.00     0.032 A 
BRANCH  12  14
HETATM   14  C16 UNL     1      24.150   5.641  48.405  1.00  0.00     0.277 C 
BRANCH  14  15
HETATM   15  N5  UNL     1      23.396   6.845  48.377  1.00  0.00     0.088 N 
HETATM   16  C17 UNL     1      22.267   6.992  49.237  1.00  0.00     0.274 C 
HETATM   17  C18 UNL     1      22.646   8.462  49.465  1.00  0.00     0.060 C 
HETATM   18  C19 UNL     1      24.028   7.920  49.110  1.00  0.00     0.274 C 
ENDBRANCH  14  15
ENDBRANCH  12  14
ENDBRANCH   9  10
BRANCH   7  19
HETATM   19  C6  UNL     1      23.376   0.053  53.483  1.00  0.00    -0.021 A 
HETATM   20  C7  UNL     1      23.538  -0.891  54.466  1.00  0.00     0.012 A 
HETATM   21  C8  UNL     1      22.529  -1.625  55.011  1.00  0.00     0.004 A 
HETATM   22  C9  UNL     1      21.237  -1.394  54.530  1.00  0.00     0.036 A 
HETATM   23  C10 UNL     1      21.019  -0.444  53.531  1.00  0.00     0.066 A 
HETATM   24  C11 UNL     1      22.077   0.269  53.016  1.00  0.00     0.049 A 
BRANCH  23  25
HETATM   25  O1  UNL     1      19.718  -0.279  53.115  1.00  0.00    -0.361 OA
HETATM   26  H7  UNL     1      19.375   0.580  52.697  1.00  0.00     0.217 HD
ENDBRANCH  23  25
ENDBRANCH   7  19
BRANCH   1  27
HETATM   27  N1  UNL     1      26.029  -0.171  55.062  1.00  0.00    -0.383 N 
HETATM   28  H1  UNL     1      26.646  -1.018  54.922  1.00  0.00     0.157 HD
HETATM   29  H2  UNL     1      25.255   0.037  55.735  1.00  0.00     0.157 HD
ENDBRANCH   1  27
TORSDOF 6
ENDMDL
MODEL 9
REMARK VINA RESULT:      -7.2      3.688      5.725
REMARK  6 active torsions:
REMARK  status: ('A' for Active; 'I' for Inactive)
REMARK    1  A    between atoms: N1_1  and  C1_2 
REMARK    2  A    between atoms: C5_8  and  C6_9 
REMARK    3  A    between atoms: C10_13  and  O1_14 
REMARK    4  A    between atoms: N4_17  and  C13_18 
REMARK    5  A    between atoms: C15_20  and  C16_21 
REMARK    6  A    between atoms: C16_21  and  N5_22 
ROOT
HETATM    1  C1  UNL     1      25.213   1.629  52.879  1.00  0.00     0.137 A 
HETATM    2  N2  UNL     1      25.365   0.571  53.718  1.00  0.00    -0.224 NA
HETATM    3  C2  UNL     1      24.409  -0.374  53.825  1.00  0.00     0.237 A 
HETATM    4  N3  UNL     1      23.288  -0.272  53.092  1.00  0.00    -0.223 NA
HETATM    5  C3  UNL     1      23.067   0.759  52.229  1.00  0.00     0.146 A 
HETATM    6  C4  UNL     1      24.064   1.714  52.139  1.00  0.00     0.068 A 
HETATM    7  C5  UNL     1      23.712   2.696  51.239  1.00  0.00     0.008 A 
HETATM    8  C12 UNL     1      22.452   2.285  50.791  1.00  0.00     0.106 A 
HETATM    9  N4  UNL     1      22.079   1.152  51.372  1.00  0.00    -0.335 N 
ENDROOT
BRANCH   9  10
HETATM   10  C13 UNL     1      20.923   0.299  51.297  1.00  0.00     0.092 A 
HETATM   11  C14 UNL     1      19.859   0.667  50.293  1.00  0.00     0.032 A 
HETATM   12  C15 UNL     1      18.933   1.004  51.393  1.00  0.00     0.018 A 
HETATM   13  C20 UNL     1      19.992   0.606  52.437  1.00  0.00     0.032 A 
BRANCH  12  14
HETATM   14  C16 UNL     1      17.706   0.206  51.650  1.00  0.00     0.277 C 
BRANCH  14  15
HETATM   15  N5  UNL     1      16.455   0.817  51.373  1.00  0.00     0.088 N 
HETATM   16  C17 UNL     1      15.416   0.776  52.351  1.00  0.00     0.274 C 
HETATM   17  C18 UNL     1      15.020   2.211  51.974  1.00  0.00     0.060 C 
HETATM   18  C19 UNL     1      16.482   2.253  51.540  1.00  0.00     0.274 C 
ENDBRANCH  14  15
ENDBRANCH  12  14
ENDBRANCH   9  10
BRANCH   7  19
HETATM   19  C6  UNL     1      24.359   3.898  50.738  1.00  0.00    -0.021 A 
HETATM   20  C7  UNL     1      25.311   4.044  49.760  1.00  0.00     0.012 A 
HETATM   21  C8  UNL     1      25.863   5.231  49.383  1.00  0.00     0.004 A 
HETATM   22  C9  UNL     1      25.421   6.380  50.044  1.00  0.00     0.036 A 
HETATM   23  C10 UNL     1      24.454   6.287  51.046  1.00  0.00     0.066 A 
HETATM   24  C11 UNL     1      23.931   5.060  51.386  1.00  0.00     0.049 A 
BRANCH  23  25
HETATM   25  O1  UNL     1      24.076   7.466  51.645  1.00  0.00    -0.361 OA
HETATM   26  H7  UNL     1      24.492   7.807  52.506  1.00  0.00     0.217 HD
ENDBRANCH  23  25
ENDBRANCH   7  19
BRANCH   1  27
HETATM   27  N1  UNL     1      26.249   2.599  52.816  1.00  0.00    -0.383 N 
HETATM   28  H1  UNL     1      26.204   3.070  53.762  1.00  0.00     0.157 HD
HETATM   29  H2  UNL     1      26.866   2.742  51.983  1.00  0.00     0.157 HD
ENDBRANCH   1  27
TORSDOF 6
ENDMDL
