MODEL 1
REMARK VINA RESULT:      -9.0      0.000      0.000
REMARK  3 active torsions:
REMARK  status: ('A' for Active; 'I' for Inactive)
REMARK    1  A    between atoms: C3_3  and  C4_4 
REMARK    2  A    between atoms: C10_15  and  N5_16 
REMARK    3  A    between atoms: N5_16  and  C11_17 
ROOT
HETATM    1  C1  UNL     1      26.690   3.398  49.486  1.00  0.00     0.112 C 
HETATM    2  C2  UNL     1      25.446   3.155  50.236  1.00  0.00    -0.105 C 
HETATM    3  C3  UNL     1      24.417   2.935  50.857  1.00  0.00    -0.065 C 
ENDROOT
BRANCH   3   4
HETATM    4  C4  UNL     1      23.228   2.695  51.550  1.00  0.00     0.049 C 
HETATM    5  C5  UNL     1      22.326   3.687  51.336  1.00  0.00     0.114 C 
HETATM    6  N1  UNL     1      20.970   3.975  51.769  1.00  0.00    -0.316 N 
HETATM    7  C6  UNL     1      19.925   3.021  51.983  1.00  0.00     0.345 C 
HETATM    8  H5  UNL     1      20.772   4.974  51.924  1.00  0.00     0.170 HD
HETATM    9  O1  UNL     1      18.835   3.591  52.233  1.00  0.00    -0.245 OA
HETATM   10  N2  UNL     1      19.777   1.583  51.989  1.00  0.00    -0.204 NA
HETATM   11  C7  UNL     1      20.620   0.611  52.229  1.00  0.00     0.154 C 
HETATM   12  C8  UNL     1      22.057   0.607  52.588  1.00  0.00     0.091 A 
HETATM   13  N3  UNL     1      22.293  -0.495  53.353  1.00  0.00    -0.240 NA
HETATM   14  C17 UNL     1      23.118   1.478  52.334  1.00  0.00     0.060 A 
HETATM   15  C9  UNL     1      23.582  -0.611  53.791  1.00  0.00     0.236 A 
HETATM   16  N4  UNL     1      24.595   0.233  53.544  1.00  0.00    -0.223 NA
HETATM   17  C10 UNL     1      24.386   1.355  52.774  1.00  0.00     0.143 A 
BRANCH  17  18
HETATM   18  N5  UNL     1      25.515   2.106  52.707  1.00  0.00    -0.340 N 
HETATM   19  H8  UNL     1      25.671   3.115  52.423  1.00  0.00     0.167 HD
BRANCH  18  20
HETATM   20  C11 UNL     1      26.725   1.318  53.016  1.00  0.00     0.035 A 
HETATM   21  C12 UNL     1      27.809   1.978  53.613  1.00  0.00     0.032 A 
HETATM   22  C13 UNL     1      28.972   1.297  53.928  1.00  0.00     0.046 A 
HETATM   23  C14 UNL     1      29.031  -0.061  53.636  1.00  0.00     0.138 A 
HETATM   24  F1  UNL     1      30.164  -0.703  53.948  1.00  0.00    -0.204 F 
HETATM   25  C15 UNL     1      27.995  -0.729  53.056  1.00  0.00     0.074 A 
HETATM   26 CL1  UNL     1      28.076  -2.422  52.692  1.00  0.00    -0.081 Cl
HETATM   27  C16 UNL     1      26.860  -0.005  52.763  1.00  0.00     0.056 A 
ENDBRANCH  18  20
ENDBRANCH  17  18
ENDBRANCH   3   4
TORSDOF 3
ENDMDL
MODEL 2
REMARK VINA RESULT:      -8.9      4.517      7.533
REMARK  3 active torsions:
REMARK  status: ('A' for Active; 'I' for Inactive)
REMARK    1  A    between atoms: C3_3  and  C4_4 
REMARK    2  A    between atoms: C10_15  and  N5_16 
REMARK    3  A    between atoms: N5_16  and  C11_17 
ROOT
HETATM    1  C1  UNL     1      21.636  -1.913  54.180  1.00  0.00     0.112 C 
HETATM    2  C2  UNL     1      22.635  -0.880  53.860  1.00  0.00    -0.105 C 
HETATM    3  C3  UNL     1      23.478  -0.035  53.597  1.00  0.00    -0.065 C 
ENDROOT
BRANCH   3   4
HETATM    4  C4  UNL     1      24.433   0.945  53.314  1.00  0.00     0.049 C 
HETATM    5  C5  UNL     1      25.430   0.939  54.235  1.00  0.00     0.114 C 
HETATM    6  N1  UNL     1      26.651   1.695  54.454  1.00  0.00    -0.316 N 
HETATM    7  C6  UNL     1      27.534   2.196  53.446  1.00  0.00     0.345 C 
HETATM    8  H5  UNL     1      26.878   1.866  55.444  1.00  0.00     0.170 HD
HETATM    9  O1  UNL     1      28.565   2.700  53.956  1.00  0.00    -0.245 OA
HETATM   10  N2  UNL     1      27.568   2.283  52.004  1.00  0.00    -0.204 NA
HETATM   11  C7  UNL     1      26.621   2.329  51.101  1.00  0.00     0.154 C 
HETATM   12  C8  UNL     1      25.144   2.309  51.206  1.00  0.00     0.091 A 
HETATM   13  N3  UNL     1      24.641   3.020  50.160  1.00  0.00    -0.240 NA
HETATM   14  C17 UNL     1      24.250   1.767  52.131  1.00  0.00     0.060 A 
HETATM   15  C9  UNL     1      23.278   3.118  50.148  1.00  0.00     0.236 A 
HETATM   16  N4  UNL     1      22.427   2.596  51.043  1.00  0.00    -0.223 NA
HETATM   17  C10 UNL     1      22.906   1.873  52.112  1.00  0.00     0.143 A 
BRANCH  17  18
HETATM   18  N5  UNL     1      21.890   1.497  52.930  1.00  0.00    -0.340 N 
HETATM   19  H8  UNL     1      21.886   1.157  53.934  1.00  0.00     0.167 HD
BRANCH  18  20
HETATM   20  C11 UNL     1      20.586   1.505  52.236  1.00  0.00     0.035 A 
HETATM   21  C12 UNL     1      20.197   0.346  51.549  1.00  0.00     0.032 A 
HETATM   22  C13 UNL     1      18.987   0.288  50.878  1.00  0.00     0.046 A 
HETATM   23  C14 UNL     1      18.172   1.414  50.908  1.00  0.00     0.138 A 
HETATM   24  F1  UNL     1      17.005   1.340  50.254  1.00  0.00    -0.204 F 
HETATM   25  C15 UNL     1      18.524   2.554  51.566  1.00  0.00     0.074 A 
HETATM   26 CL1  UNL     1      17.504   3.955  51.597  1.00  0.00    -0.081 Cl
HETATM   27  C16 UNL     1      19.738   2.559  52.217  1.00  0.00     0.056 A 
ENDBRANCH  18  20
ENDBRANCH  17  18
ENDBRANCH   3   4
TORSDOF 3
ENDMDL
MODEL 3
REMARK VINA RESULT:      -8.6      2.450      4.008
REMARK  3 active torsions:
REMARK  status: ('A' for Active; 'I' for Inactive)
REMARK    1  A    between atoms: C3_3  and  C4_4 
REMARK    2  A    between atoms: C10_15  and  N5_16 
REMARK    3  A    between atoms: N5_16  and  C11_17 
ROOT
HETATM    1  C1  UNL     1      21.177  -1.485  54.209  1.00  0.00     0.112 C 
HETATM    2  C2  UNL     1      21.491  -0.514  53.148  1.00  0.00    -0.105 C 
HETATM    3  C3  UNL     1      21.770   0.288  52.268  1.00  0.00    -0.065 C 
ENDROOT
BRANCH   3   4
HETATM    4  C4  UNL     1      22.076   1.222  51.276  1.00  0.00     0.049 C 
HETATM    5  C5  UNL     1      21.733   0.762  50.046  1.00  0.00     0.114 C 
HETATM    6  N1  UNL     1      21.803   1.269  48.687  1.00  0.00    -0.316 N 
HETATM    7  C6  UNL     1      21.614   2.626  48.273  1.00  0.00     0.345 C 
HETATM    8  H5  UNL     1      22.007   0.555  47.972  1.00  0.00     0.170 HD
HETATM    9  O1  UNL     1      21.615   2.723  47.021  1.00  0.00    -0.245 OA
HETATM   10  N2  UNL     1      21.420   3.915  48.897  1.00  0.00    -0.204 NA
HETATM   11  C7  UNL     1      21.775   4.391  50.064  1.00  0.00     0.154 C 
HETATM   12  C8  UNL     1      22.514   3.793  51.200  1.00  0.00     0.091 A 
HETATM   13  N3  UNL     1      23.187   4.794  51.833  1.00  0.00    -0.240 NA
HETATM   14  C17 UNL     1      22.660   2.490  51.677  1.00  0.00     0.060 A 
HETATM   15  C9  UNL     1      23.949   4.380  52.889  1.00  0.00     0.236 A 
HETATM   16  N4  UNL     1      24.085   3.124  53.338  1.00  0.00    -0.223 NA
HETATM   17  C10 UNL     1      23.417   2.092  52.718  1.00  0.00     0.143 A 
BRANCH  17  18
HETATM   18  N5  UNL     1      23.747   0.902  53.281  1.00  0.00    -0.340 N 
HETATM   19  H8  UNL     1      23.162   0.180  53.792  1.00  0.00     0.167 HD
BRANCH  18  20
HETATM   20  C11 UNL     1      25.199   0.640  53.216  1.00  0.00     0.035 A 
HETATM   21  C12 UNL     1      25.622  -0.658  52.892  1.00  0.00     0.032 A 
HETATM   22  C13 UNL     1      26.969  -0.969  52.814  1.00  0.00     0.046 A 
HETATM   23  C14 UNL     1      27.887   0.045  53.066  1.00  0.00     0.138 A 
HETATM   24  F1  UNL     1      29.185  -0.275  52.986  1.00  0.00    -0.204 F 
HETATM   25  C15 UNL     1      27.506   1.313  53.383  1.00  0.00     0.074 A 
HETATM   26 CL1  UNL     1      28.656   2.572  53.698  1.00  0.00    -0.081 Cl
HETATM   27  C16 UNL     1      26.154   1.570  53.448  1.00  0.00     0.056 A 
ENDBRANCH  18  20
ENDBRANCH  17  18
ENDBRANCH   3   4
TORSDOF 3
ENDMDL
MODEL 4
REMARK VINA RESULT:      -8.6      3.573      5.293
REMARK  3 active torsions:
REMARK  status: ('A' for Active; 'I' for Inactive)
REMARK    1  A    between atoms: C3_3  and  C4_4 
REMARK    2  A    between atoms: C10_15  and  N5_16 
REMARK    3  A    between atoms: N5_16  and  C11_17 
ROOT
HETATM    1  C1  UNL     1      22.148   2.282  47.710  1.00  0.00     0.112 C 
HETATM    2  C2  UNL     1      22.235   1.816  49.104  1.00  0.00    -0.105 C 
HETATM    3  C3  UNL     1      22.318   1.444  50.265  1.00  0.00    -0.065 C 
ENDROOT
BRANCH   3   4
HETATM    4  C4  UNL     1      22.422   0.998  51.586  1.00  0.00     0.049 C 
HETATM    5  C5  UNL     1      21.324   0.289  51.953  1.00  0.00     0.114 C 
HETATM    6  N1  UNL     1      20.881  -0.399  53.152  1.00  0.00    -0.316 N 
HETATM    7  C6  UNL     1      21.704  -1.128  54.068  1.00  0.00     0.345 C 
HETATM    8  H5  UNL     1      19.868  -0.342  53.331  1.00  0.00     0.170 HD
HETATM    9  O1  UNL     1      21.010  -1.712  54.936  1.00  0.00    -0.245 OA
HETATM   10  N2  UNL     1      23.113  -1.380  54.269  1.00  0.00    -0.204 NA
HETATM   11  C7  UNL     1      24.184  -0.694  53.959  1.00  0.00     0.154 C 
HETATM   12  C8  UNL     1      24.369   0.608  53.279  1.00  0.00     0.091 A 
HETATM   13  N3  UNL     1      25.504   1.178  53.770  1.00  0.00    -0.240 NA
HETATM   14  C17 UNL     1      23.630   1.314  52.328  1.00  0.00     0.060 A 
HETATM   15  C9  UNL     1      25.783   2.412  53.255  1.00  0.00     0.236 A 
HETATM   16  N4  UNL     1      25.065   3.084  52.343  1.00  0.00    -0.223 NA
HETATM   17  C10 UNL     1      23.913   2.533  51.829  1.00  0.00     0.143 A 
BRANCH  17  18
HETATM   18  N5  UNL     1      23.304   3.401  50.981  1.00  0.00    -0.340 N 
HETATM   19  H8  UNL     1      22.355   3.373  50.508  1.00  0.00     0.167 HD
BRANCH  18  20
HETATM   20  C11 UNL     1      24.182   4.532  50.618  1.00  0.00     0.035 A 
HETATM   21  C12 UNL     1      23.869   5.801  51.127  1.00  0.00     0.032 A 
HETATM   22  C13 UNL     1      24.652   6.902  50.825  1.00  0.00     0.046 A 
HETATM   23  C14 UNL     1      25.757   6.709  50.003  1.00  0.00     0.138 A 
HETATM   24  F1  UNL     1      26.503   7.786  49.722  1.00  0.00    -0.204 F 
HETATM   25  C15 UNL     1      26.085   5.489  49.494  1.00  0.00     0.074 A 
HETATM   26 CL1  UNL     1      27.464   5.257  48.468  1.00  0.00    -0.081 Cl
HETATM   27  C16 UNL     1      25.273   4.427  49.825  1.00  0.00     0.056 A 
ENDBRANCH  18  20
ENDBRANCH  17  18
ENDBRANCH   3   4
TORSDOF 3
ENDMDL
MODEL 5
REMARK VINA RESULT:      -8.3      4.289      6.746
REMARK  3 active torsions:
REMARK  status: ('A' for Active; 'I' for Inactive)
REMARK    1  A    between atoms: C3_3  and  C4_4 
REMARK    2  A    between atoms: C10_15  and  N5_16 
REMARK    3  A    between atoms: N5_16  and  C11_17 
ROOT
HETATM    1  C1  UNL     1      20.119   1.118  49.682  1.00  0.00     0.112 C 
HETATM    2  C2  UNL     1      21.244   0.973  50.620  1.00  0.00    -0.105 C 
HETATM    3  C3  UNL     1      22.190   0.859  51.386  1.00  0.00    -0.065 C 
ENDROOT
BRANCH   3   4
HETATM    4  C4  UNL     1      23.266   0.704  52.264  1.00  0.00     0.049 C 
HETATM    5  C5  UNL     1      22.913  -0.034  53.347  1.00  0.00     0.114 C 
HETATM    6  N1  UNL     1      23.580  -0.511  54.546  1.00  0.00    -0.316 N 
HETATM    7  C6  UNL     1      24.940  -0.942  54.648  1.00  0.00     0.345 C 
HETATM    8  H5  UNL     1      22.986  -0.532  55.388  1.00  0.00     0.170 HD
HETATM    9  O1  UNL     1      25.183  -1.412  55.787  1.00  0.00    -0.245 OA
HETATM   10  N2  UNL     1      26.112  -0.989  53.803  1.00  0.00    -0.204 NA
HETATM   11  C7  UNL     1      26.490  -0.265  52.780  1.00  0.00     0.154 C 
HETATM   12  C8  UNL     1      25.863   0.885  52.090  1.00  0.00     0.091 A 
HETATM   13  N3  UNL     1      26.860   1.667  51.590  1.00  0.00    -0.240 NA
HETATM   14  C17 UNL     1      24.542   1.297  51.905  1.00  0.00     0.060 A 
HETATM   15  C9  UNL     1      26.427   2.795  50.952  1.00  0.00     0.236 A 
HETATM   16  N4  UNL     1      25.154   3.183  50.782  1.00  0.00    -0.223 NA
HETATM   17  C10 UNL     1      24.125   2.414  51.276  1.00  0.00     0.143 A 
BRANCH  17  18
HETATM   18  N5  UNL     1      22.929   3.018  51.060  1.00  0.00    -0.340 N 
HETATM   19  H8  UNL     1      21.945   2.750  51.348  1.00  0.00     0.167 HD
BRANCH  18  20
HETATM   20  C11 UNL     1      23.058   4.215  50.205  1.00  0.00     0.035 A 
HETATM   21  C12 UNL     1      22.908   4.057  48.819  1.00  0.00     0.032 A 
HETATM   22  C13 UNL     1      23.018   5.140  47.963  1.00  0.00     0.046 A 
HETATM   23  C14 UNL     1      23.280   6.386  48.520  1.00  0.00     0.138 A 
HETATM   24  F1  UNL     1      23.382   7.421  47.676  1.00  0.00    -0.204 F 
HETATM   25  C15 UNL     1      23.431   6.570  49.861  1.00  0.00     0.074 A 
HETATM   26 CL1  UNL     1      23.760   8.128  50.549  1.00  0.00    -0.081 Cl
HETATM   27  C16 UNL     1      23.313   5.461  50.669  1.00  0.00     0.056 A 
ENDBRANCH  18  20
ENDBRANCH  17  18
ENDBRANCH   3   4
TORSDOF 3
ENDMDL
MODEL 6
REMARK VINA RESULT:      -8.3      4.566      7.036
REMARK  3 active torsions:
REMARK  status: ('A' for Active; 'I' for Inactive)
REMARK    1  A    between atoms: C3_3  and  C4_4 
REMARK    2  A    between atoms: C10_15  and  N5_16 
REMARK    3  A    between atoms: N5_16  and  C11_17 
ROOT
HETATM    1  C1  UNL     1      23.279   4.851  50.694  1.00  0.00     0.112 C 
HETATM    2  C2  UNL     1      23.737   3.546  51.199  1.00  0.00    -0.105 C 
HETATM    3  C3  UNL     1      24.099   2.459  51.624  1.00  0.00    -0.065 C 
ENDROOT
BRANCH   3   4
HETATM    4  C4  UNL     1      24.530   1.227  52.124  1.00  0.00     0.049 C 
HETATM    5  C5  UNL     1      25.821   0.984  51.784  1.00  0.00     0.114 C 
HETATM    6  N1  UNL     1      26.775  -0.087  52.013  1.00  0.00    -0.316 N 
HETATM    7  C6  UNL     1      26.899  -0.876  53.200  1.00  0.00     0.345 C 
HETATM    8  H5  UNL     1      27.414  -0.268  51.225  1.00  0.00     0.170 HD
HETATM    9  O1  UNL     1      27.897  -1.637  53.136  1.00  0.00    -0.245 OA
HETATM   10  N2  UNL     1      26.196  -1.041  54.451  1.00  0.00    -0.204 NA
HETATM   11  C7  UNL     1      24.946  -0.849  54.792  1.00  0.00     0.154 C 
HETATM   12  C8  UNL     1      23.766  -0.388  54.025  1.00  0.00     0.091 A 
HETATM   13  N3  UNL     1      22.661  -0.970  54.570  1.00  0.00    -0.240 NA
HETATM   14  C17 UNL     1      23.599   0.439  52.913  1.00  0.00     0.060 A 
HETATM   15  C9  UNL     1      21.491  -0.661  53.936  1.00  0.00     0.236 A 
HETATM   16  N4  UNL     1      21.342   0.133  52.865  1.00  0.00    -0.223 NA
HETATM   17  C10 UNL     1      22.440   0.734  52.293  1.00  0.00     0.143 A 
BRANCH  17  18
HETATM   18  N5  UNL     1      22.081   1.434  51.187  1.00  0.00    -0.340 N 
HETATM   19  H8  UNL     1      22.659   1.857  50.405  1.00  0.00     0.167 HD
BRANCH  18  20
HETATM   20  C11 UNL     1      20.628   1.695  51.142  1.00  0.00     0.035 A 
HETATM   21  C12 UNL     1      20.154   2.891  51.700  1.00  0.00     0.032 A 
HETATM   22  C13 UNL     1      18.803   3.196  51.691  1.00  0.00     0.046 A 
HETATM   23  C14 UNL     1      17.934   2.279  51.110  1.00  0.00     0.138 A 
HETATM   24  F1  UNL     1      16.631   2.591  51.110  1.00  0.00    -0.204 F 
HETATM   25  C15 UNL     1      18.365   1.110  50.561  1.00  0.00     0.074 A 
HETATM   26 CL1  UNL     1      17.274  -0.030  49.840  1.00  0.00    -0.081 Cl
HETATM   27  C16 UNL     1      19.718   0.855  50.597  1.00  0.00     0.056 A 
ENDBRANCH  18  20
ENDBRANCH  17  18
ENDBRANCH   3   4
TORSDOF 3
ENDMDL
MODEL 7
REMARK VINA RESULT:      -8.2      9.236     12.342
REMARK  3 active torsions:
REMARK  status: ('A' for Active; 'I' for Inactive)
REMARK    1  A    between atoms: C3_3  and  C4_4 
REMARK    2  A    between atoms: C10_15  and  N5_16 
REMARK    3  A    between atoms: N5_16  and  C11_17 
ROOT
HETATM    1  C1  UNL     1      27.079   5.450  48.582  1.00  0.00     0.112 C 
HETATM    2  C2  UNL     1      28.516   5.679  48.362  1.00  0.00    -0.105 C 
HETATM    3  C3  UNL     1      29.707   5.866  48.160  1.00  0.00    -0.065 C 
ENDROOT
BRANCH   3   4
HETATM    4  C4  UNL     1      31.074   6.061  47.946  1.00  0.00     0.049 C 
HETATM    5  C5  UNL     1      31.808   5.568  48.975  1.00  0.00     0.114 C 
HETATM    6  N1  UNL     1      33.221   5.481  49.301  1.00  0.00    -0.316 N 
HETATM    7  C6  UNL     1      34.293   5.257  48.381  1.00  0.00     0.345 C 
HETATM    8  H5  UNL     1      33.438   5.590  50.302  1.00  0.00     0.170 HD
HETATM    9  O1  UNL     1      35.385   5.109  48.984  1.00  0.00    -0.245 OA
HETATM   10  N2  UNL     1      34.469   5.153  46.950  1.00  0.00    -0.204 NA
HETATM   11  C7  UNL     1      33.798   5.650  45.942  1.00  0.00     0.154 C 
HETATM   12  C8  UNL     1      32.596   6.513  45.875  1.00  0.00     0.091 A 
HETATM   13  N3  UNL     1      32.686   7.268  44.745  1.00  0.00    -0.240 NA
HETATM   14  C17 UNL     1      31.496   6.702  46.712  1.00  0.00     0.060 A 
HETATM   15  C9  UNL     1      31.655   8.146  44.570  1.00  0.00     0.236 A 
HETATM   16  N4  UNL     1      30.602   8.322  45.382  1.00  0.00    -0.223 NA
HETATM   17  C10 UNL     1      30.484   7.574  46.532  1.00  0.00     0.143 A 
BRANCH  17  18
HETATM   18  N5  UNL     1      29.393   7.957  47.242  1.00  0.00    -0.340 N 
HETATM   19  H8  UNL     1      28.454   7.487  47.395  1.00  0.00     0.167 HD
BRANCH  18  20
HETATM   20  C11 UNL     1      29.553   9.304  47.825  1.00  0.00     0.035 A 
HETATM   21  C12 UNL     1      30.707   9.564  48.579  1.00  0.00     0.032 A 
HETATM   22  C13 UNL     1      30.917  10.807  49.153  1.00  0.00     0.046 A 
HETATM   23  C14 UNL     1      29.950  11.786  48.957  1.00  0.00     0.138 A 
HETATM   24  F1  UNL     1      30.170  12.982  49.519  1.00  0.00    -0.204 F 
HETATM   25  C15 UNL     1      28.819  11.562  48.230  1.00  0.00     0.074 A 
HETATM   26 CL1  UNL     1      27.616  12.788  47.992  1.00  0.00    -0.081 Cl
HETATM   27  C16 UNL     1      28.659  10.309  47.681  1.00  0.00     0.056 A 
ENDBRANCH  18  20
ENDBRANCH  17  18
ENDBRANCH   3   4
TORSDOF 3
ENDMDL
MODEL 8
REMARK VINA RESULT:      -8.0      4.476      7.368
REMARK  3 active torsions:
REMARK  status: ('A' for Active; 'I' for Inactive)
REMARK    1  A    between atoms: C3_3  and  C4_4 
REMARK    2  A    between atoms: C10_15  and  N5_16 
REMARK    3  A    between atoms: N5_16  and  C11_17 
ROOT
HETATM    1  C1  UNL     1      20.428  -0.087  52.315  1.00  0.00     0.112 C 
HETATM    2  C2  UNL     1      21.847   0.194  52.586  1.00  0.00    -0.105 C 
HETATM    3  C3  UNL     1      23.028   0.409  52.816  1.00  0.00    -0.065 C 
ENDROOT
BRANCH   3   4
HETATM    4  C4  UNL     1      24.372   0.673  53.095  1.00  0.00     0.049 C 
HETATM    5  C5  UNL     1      24.797  -0.030  54.176  1.00  0.00     0.114 C 
HETATM    6  N1  UNL     1      26.044  -0.164  54.908  1.00  0.00    -0.316 N 
HETATM    7  C6  UNL     1      27.362  -0.151  54.351  1.00  0.00     0.345 C 
HETATM    8  H5  UNL     1      25.934  -0.283  55.925  1.00  0.00     0.170 HD
HETATM    9  O1  UNL     1      28.226  -0.413  55.225  1.00  0.00    -0.245 OA
HETATM   10  N2  UNL     1      27.975   0.079  53.063  1.00  0.00    -0.204 NA
HETATM   11  C7  UNL     1      27.603   0.782  52.023  1.00  0.00     0.154 C 
HETATM   12  C8  UNL     1      26.407   1.615  51.761  1.00  0.00     0.091 A 
HETATM   13  N3  UNL     1      26.771   2.610  50.906  1.00  0.00    -0.240 NA
HETATM   14  C17 UNL     1      25.091   1.587  52.225  1.00  0.00     0.060 A 
HETATM   15  C9  UNL     1      25.768   3.486  50.601  1.00  0.00     0.236 A 
HETATM   16  N4  UNL     1      24.506   3.453  51.055  1.00  0.00    -0.223 NA
HETATM   17  C10 UNL     1      24.110   2.459  51.921  1.00  0.00     0.143 A 
BRANCH  17  18
HETATM   18  N5  UNL     1      22.823   2.649  52.310  1.00  0.00    -0.340 N 
HETATM   19  H8  UNL     1      22.258   2.221  53.099  1.00  0.00     0.167 HD
BRANCH  18  20
HETATM   20  C11 UNL     1      22.097   3.561  51.404  1.00  0.00     0.035 A 
HETATM   21  C12 UNL     1      21.382   3.000  50.336  1.00  0.00     0.032 A 
HETATM   22  C13 UNL     1      20.680   3.800  49.450  1.00  0.00     0.046 A 
HETATM   23  C14 UNL     1      20.707   5.175  49.654  1.00  0.00     0.138 A 
HETATM   24  F1  UNL     1      20.022   5.933  48.787  1.00  0.00    -0.204 F 
HETATM   25  C15 UNL     1      21.392   5.748  50.682  1.00  0.00     0.074 A 
HETATM   26 CL1  UNL     1      21.422   7.464  50.929  1.00  0.00    -0.081 Cl
HETATM   27  C16 UNL     1      22.074   4.907  51.534  1.00  0.00     0.056 A 
ENDBRANCH  18  20
ENDBRANCH  17  18
ENDBRANCH   3   4
TORSDOF 3
ENDMDL
MODEL 9
REMARK VINA RESULT:      -8.0      7.724     10.221
REMARK  3 active torsions:
REMARK  status: ('A' for Active; 'I' for Inactive)
REMARK    1  A    between atoms: C3_3  and  C4_4 
REMARK    2  A    between atoms: C10_15  and  N5_16 
REMARK    3  A    between atoms: N5_16  and  C11_17 
ROOT
HETATM    1  C1  UNL     1      27.156   4.040  49.041  1.00  0.00     0.112 C 
HETATM    2  C2  UNL     1      27.581   5.373  48.583  1.00  0.00    -0.105 C 
HETATM    3  C3  UNL     1      27.939   6.484  48.220  1.00  0.00    -0.065 C 
ENDROOT
BRANCH   3   4
HETATM    4  C4  UNL     1      28.325   7.758  47.796  1.00  0.00     0.049 C 
HETATM    5  C5  UNL     1      27.516   8.212  46.806  1.00  0.00     0.114 C 
HETATM    6  N1  UNL     1      27.426   9.420  46.004  1.00  0.00    -0.316 N 
HETATM    7  C6  UNL     1      27.700  10.754  46.443  1.00  0.00     0.345 C 
HETATM    8  H5  UNL     1      27.129   9.268  45.030  1.00  0.00     0.170 HD
HETATM    9  O1  UNL     1      27.412  11.593  45.553  1.00  0.00    -0.245 OA
HETATM   10  N2  UNL     1      28.215  11.404  47.627  1.00  0.00    -0.204 NA
HETATM   11  C7  UNL     1      29.024  11.000  48.573  1.00  0.00     0.154 C 
HETATM   12  C8  UNL     1      29.728   9.717  48.799  1.00  0.00     0.091 A 
HETATM   13  N3  UNL     1      30.888   9.987  49.459  1.00  0.00    -0.240 NA
HETATM   14  C17 UNL     1      29.455   8.392  48.454  1.00  0.00     0.060 A 
HETATM   15  C9  UNL     1      31.665   8.891  49.705  1.00  0.00     0.236 A 
HETATM   16  N4  UNL     1      31.395   7.621  49.367  1.00  0.00    -0.223 NA
HETATM   17  C10 UNL     1      30.230   7.318  48.699  1.00  0.00     0.143 A 
BRANCH  17  18
HETATM   18  N5  UNL     1      30.186   5.997  48.390  1.00  0.00    -0.340 N 
HETATM   19  H8  UNL     1      29.490   5.238  48.647  1.00  0.00     0.167 HD
BRANCH  18  20
HETATM   20  C11 UNL     1      31.373   5.564  47.625  1.00  0.00     0.035 A 
HETATM   21  C12 UNL     1      31.672   6.240  46.433  1.00  0.00     0.032 A 
HETATM   22  C13 UNL     1      32.770   5.883  45.669  1.00  0.00     0.046 A 
HETATM   23  C14 UNL     1      33.566   4.837  46.122  1.00  0.00     0.138 A 
HETATM   24  F1  UNL     1      34.624   4.506  45.369  1.00  0.00    -0.204 F 
HETATM   25  C15 UNL     1      33.300   4.162  47.275  1.00  0.00     0.074 A 
HETATM   26 CL1  UNL     1      34.295   2.857  47.832  1.00  0.00    -0.081 Cl
HETATM   27  C16 UNL     1      32.195   4.556  47.997  1.00  0.00     0.056 A 
ENDBRANCH  18  20
ENDBRANCH  17  18
ENDBRANCH   3   4
TORSDOF 3
ENDMDL
