MODEL 1
REMARK VINA RESULT:      -8.6      0.000      0.000
REMARK  6 active torsions:
REMARK  status: ('A' for Active; 'I' for Inactive)
REMARK    1  A    between atoms: C1_3  and  O2_4 
REMARK    2  A    between atoms: C2_5  and  C3_6 
REMARK    3  A    between atoms: C4_7  and  C5_8 
REMARK    4  A    between atoms: C6_9  and  O3_10 
REMARK    5  A    between atoms: C12_19  and  O6_20 
REMARK    6  A    between atoms: C14_22  and  O7_23 
ROOT
HETATM    1  O1  UNL     1      27.619   2.644  51.937  1.00  0.00    -0.245 OA
HETATM    2  S1  UNL     1      26.959   1.933  53.112  1.00  0.00     0.117 S 
HETATM    3  C1  UNL     1      25.226   1.796  52.774  1.00  0.00     0.173 A 
HETATM    4  C2  UNL     1      24.775   0.583  52.648  1.00  0.00     0.118 A 
HETATM    5  O5  UNL     1      25.363  -0.638  52.725  1.00  0.00    -0.306 OA
HETATM    6  C10 UNL     1      26.679  -0.858  52.973  1.00  0.00     0.101 A 
HETATM    7  C11 UNL     1      27.177  -2.134  53.031  1.00  0.00     0.075 A 
HETATM    8  C12 UNL     1      28.528  -2.220  53.290  1.00  0.00     0.071 A 
HETATM    9  C13 UNL     1      29.370  -1.130  53.488  1.00  0.00     0.074 A 
HETATM   10  C14 UNL     1      28.786   0.144  53.415  1.00  0.00     0.090 A 
HETATM   11  C15 UNL     1      27.487   0.219  53.164  1.00  0.00     0.105 A 
ENDROOT
BRANCH   4  12
HETATM   12  C3  UNL     1      23.380   0.567  52.378  1.00  0.00     0.039 C 
HETATM   13  C4  UNL     1      22.208   0.098  52.592  1.00  0.00     0.005 C 
BRANCH  13  14
HETATM   14  C5  UNL     1      20.684   0.254  52.131  1.00  0.00     0.088 A 
HETATM   15  C6  UNL     1      19.847  -0.388  53.437  1.00  0.00     0.150 A 
HETATM   16  C7  UNL     1      19.413   0.049  52.470  1.00  0.00     0.009 A 
HETATM   17  S2  UNL     1      18.983   0.511  51.445  1.00  0.00    -0.164 SA
HETATM   18  C8  UNL     1      18.426   1.166  50.002  1.00  0.00     0.231 A 
HETATM   19  C9  UNL     1      20.799   0.925  50.689  1.00  0.00     0.229 A 
HETATM   20  O4  UNL     1      20.040   1.401  49.706  1.00  0.00    -0.374 OA
BRANCH  15  21
HETATM   21  O3  UNL     1      21.020  -0.643  54.080  1.00  0.00    -0.379 OA
HETATM   22  H4  UNL     1      21.791   0.024  54.173  1.00  0.00     0.211 HD
ENDBRANCH  15  21
ENDBRANCH  13  14
ENDBRANCH   4  12
BRANCH   3  23
HETATM   23  O2  UNL     1      24.816   3.072  52.736  1.00  0.00    -0.350 OA
HETATM   24  H1  UNL     1      24.083   3.458  52.124  1.00  0.00     0.218 HD
ENDBRANCH   3  23
BRANCH  10  25
HETATM   25  O7  UNL     1      29.721   1.155  53.628  1.00  0.00    -0.359 OA
HETATM   26  H12 UNL     1      29.476   2.118  53.736  1.00  0.00     0.217 HD
ENDBRANCH  10  25
BRANCH   8  27
HETATM   27  O6  UNL     1      29.071  -3.519  53.355  1.00  0.00    -0.361 OA
HETATM   28  H10 UNL     1      28.935  -4.067  54.205  1.00  0.00     0.217 HD
ENDBRANCH   8  27
TORSDOF 6
ENDMDL
MODEL 2
REMARK VINA RESULT:      -8.4      1.844      8.086
REMARK  6 active torsions:
REMARK  status: ('A' for Active; 'I' for Inactive)
REMARK    1  A    between atoms: C1_3  and  O2_4 
REMARK    2  A    between atoms: C2_5  and  C3_6 
REMARK    3  A    between atoms: C4_7  and  C5_8 
REMARK    4  A    between atoms: C6_9  and  O3_10 
REMARK    5  A    between atoms: C12_19  and  O6_20 
REMARK    6  A    between atoms: C14_22  and  O7_23 
ROOT
HETATM    1  O1  UNL     1      20.846  -2.366  54.629  1.00  0.00    -0.245 OA
HETATM    2  S1  UNL     1      21.137  -0.873  54.559  1.00  0.00     0.117 S 
HETATM    3  C1  UNL     1      22.894  -0.651  54.518  1.00  0.00     0.173 A 
HETATM    4  C2  UNL     1      23.365  -0.117  53.431  1.00  0.00     0.118 A 
HETATM    5  O5  UNL     1      22.784   0.323  52.286  1.00  0.00    -0.306 OA
HETATM    6  C10 UNL     1      21.454   0.289  52.020  1.00  0.00     0.101 A 
HETATM    7  C11 UNL     1      20.964   0.760  50.830  1.00  0.00     0.075 A 
HETATM    8  C12 UNL     1      19.597   0.667  50.685  1.00  0.00     0.071 A 
HETATM    9  C13 UNL     1      18.730   0.146  51.641  1.00  0.00     0.074 A 
HETATM   10  C14 UNL     1      19.307  -0.315  52.834  1.00  0.00     0.090 A 
HETATM   11  C15 UNL     1      20.621  -0.224  52.966  1.00  0.00     0.105 A 
ENDROOT
BRANCH   4  12
HETATM   12  C3  UNL     1      24.778   0.022  53.485  1.00  0.00     0.039 C 
HETATM   13  C4  UNL     1      25.822   0.751  53.620  1.00  0.00     0.005 C 
BRANCH  13  14
HETATM   14  C5  UNL     1      27.421   0.670  53.646  1.00  0.00     0.088 A 
HETATM   15  C6  UNL     1      27.857   2.284  53.801  1.00  0.00     0.150 A 
HETATM   16  C7  UNL     1      28.549   1.372  53.735  1.00  0.00     0.009 A 
HETATM   17  S2  UNL     1      29.252   0.399  53.662  1.00  0.00    -0.164 SA
HETATM   18  C8  UNL     1      30.196  -0.987  53.561  1.00  0.00     0.231 A 
HETATM   19  C9  UNL     1      27.717  -0.889  53.506  1.00  0.00     0.229 A 
HETATM   20  O4  UNL     1      28.728  -1.753  53.492  1.00  0.00    -0.374 OA
BRANCH  15  21
HETATM   21  O3  UNL     1      26.546   2.653  53.806  1.00  0.00    -0.379 OA
HETATM   22  H4  UNL     1      25.794   2.137  53.340  1.00  0.00     0.211 HD
ENDBRANCH  15  21
ENDBRANCH  13  14
ENDBRANCH   4  12
BRANCH   3  23
HETATM   23  O2  UNL     1      23.292  -1.129  55.706  1.00  0.00    -0.350 OA
HETATM   24  H1  UNL     1      23.766  -2.029  55.872  1.00  0.00     0.218 HD
ENDBRANCH   3  23
BRANCH  10  25
HETATM   25  O7  UNL     1      18.346  -0.813  53.714  1.00  0.00    -0.359 OA
HETATM   26  H12 UNL     1      17.792  -0.233  54.309  1.00  0.00     0.217 HD
ENDBRANCH  10  25
BRANCH   8  27
HETATM   27  O6  UNL     1      19.063   1.143  49.471  1.00  0.00    -0.361 OA
HETATM   28  H10 UNL     1      18.237   1.743  49.498  1.00  0.00     0.217 HD
ENDBRANCH   8  27
TORSDOF 6
ENDMDL
MODEL 3
REMARK VINA RESULT:      -7.9      4.080      6.791
REMARK  6 active torsions:
REMARK  status: ('A' for Active; 'I' for Inactive)
REMARK    1  A    between atoms: C1_3  and  O2_4 
REMARK    2  A    between atoms: C2_5  and  C3_6 
REMARK    3  A    between atoms: C4_7  and  C5_8 
REMARK    4  A    between atoms: C6_9  and  O3_10 
REMARK    5  A    between atoms: C12_19  and  O6_20 
REMARK    6  A    between atoms: C14_22  and  O7_23 
ROOT
HETATM    1  O1  UNL     1      27.384  -0.069  52.613  1.00  0.00    -0.245 OA
HETATM    2  S1  UNL     1      26.523   1.062  53.160  1.00  0.00     0.117 S 
HETATM    3  C1  UNL     1      26.646   2.437  52.050  1.00  0.00     0.173 A 
HETATM    4  C2  UNL     1      25.540   2.777  51.457  1.00  0.00     0.118 A 
HETATM    5  O5  UNL     1      24.273   2.292  51.506  1.00  0.00    -0.306 OA
HETATM    6  C10 UNL     1      23.866   1.244  52.266  1.00  0.00     0.101 A 
HETATM    7  C11 UNL     1      22.560   0.830  52.247  1.00  0.00     0.075 A 
HETATM    8  C12 UNL     1      22.277  -0.244  53.063  1.00  0.00     0.071 A 
HETATM    9  C13 UNL     1      23.205  -0.896  53.868  1.00  0.00     0.074 A 
HETATM   10  C14 UNL     1      24.523  -0.413  53.835  1.00  0.00     0.090 A 
HETATM   11  C15 UNL     1      24.787   0.618  53.047  1.00  0.00     0.105 A 
ENDROOT
BRANCH   4  12
HETATM   12  C3  UNL     1      25.731   3.885  50.588  1.00  0.00     0.039 C 
HETATM   13  C4  UNL     1      26.366   4.459  49.636  1.00  0.00     0.005 C 
BRANCH  13  14
HETATM   14  C5  UNL     1      26.394   5.805  48.770  1.00  0.00     0.088 A 
HETATM   15  C6  UNL     1      28.034   6.003  48.471  1.00  0.00     0.150 A 
HETATM   16  C7  UNL     1      27.171   6.676  48.129  1.00  0.00     0.009 A 
HETATM   17  S2  UNL     1      26.248   7.365  47.785  1.00  0.00    -0.164 SA
HETATM   18  C8  UNL     1      24.929   8.298  47.323  1.00  0.00     0.231 A 
HETATM   19  C9  UNL     1      24.858   6.218  48.675  1.00  0.00     0.229 A 
HETATM   20  O4  UNL     1      24.064   7.131  48.123  1.00  0.00    -0.374 OA
BRANCH  15  21
HETATM   21  O3  UNL     1      28.313   4.868  49.170  1.00  0.00    -0.379 OA
HETATM   22  H4  UNL     1      29.248   4.465  49.279  1.00  0.00     0.211 HD
ENDBRANCH  15  21
ENDBRANCH  13  14
ENDBRANCH   4  12
BRANCH   3  23
HETATM   23  O2  UNL     1      27.939   2.782  52.128  1.00  0.00    -0.350 OA
HETATM   24  H1  UNL     1      28.408   3.512  51.573  1.00  0.00     0.218 HD
ENDBRANCH   3  23
BRANCH  10  25
HETATM   25  O7  UNL     1      25.362  -1.141  54.678  1.00  0.00    -0.359 OA
HETATM   26  H12 UNL     1      26.319  -1.337  54.467  1.00  0.00     0.217 HD
ENDBRANCH  10  25
BRANCH   8  27
HETATM   27  O6  UNL     1      20.942  -0.694  53.064  1.00  0.00    -0.361 OA
HETATM   28  H10 UNL     1      20.558  -1.095  53.921  1.00  0.00     0.217 HD
ENDBRANCH   8  27
TORSDOF 6
ENDMDL
MODEL 4
REMARK VINA RESULT:      -7.7      4.642      7.004
REMARK  6 active torsions:
REMARK  status: ('A' for Active; 'I' for Inactive)
REMARK    1  A    between atoms: C1_3  and  O2_4 
REMARK    2  A    between atoms: C2_5  and  C3_6 
REMARK    3  A    between atoms: C4_7  and  C5_8 
REMARK    4  A    between atoms: C6_9  and  O3_10 
REMARK    5  A    between atoms: C12_19  and  O6_20 
REMARK    6  A    between atoms: C14_22  and  O7_23 
ROOT
HETATM    1  O1  UNL     1      22.792   2.205  52.713  1.00  0.00    -0.245 OA
HETATM    2  S1  UNL     1      23.698   1.658  51.618  1.00  0.00     0.117 S 
HETATM    3  C1  UNL     1      24.325   3.026  50.682  1.00  0.00     0.173 A 
HETATM    4  C2  UNL     1      25.613   3.198  50.738  1.00  0.00     0.118 A 
HETATM    5  O5  UNL     1      26.611   2.534  51.375  1.00  0.00    -0.306 OA
HETATM    6  C10 UNL     1      26.445   1.444  52.166  1.00  0.00     0.101 A 
HETATM    7  C11 UNL     1      27.521   0.844  52.766  1.00  0.00     0.075 A 
HETATM    8  C12 UNL     1      27.217  -0.253  53.543  1.00  0.00     0.071 A 
HETATM    9  C13 UNL     1      25.936  -0.759  53.737  1.00  0.00     0.074 A 
HETATM   10  C14 UNL     1      24.886  -0.091  53.088  1.00  0.00     0.090 A 
HETATM   11  C15 UNL     1      25.185   0.964  52.345  1.00  0.00     0.105 A 
ENDROOT
BRANCH   4  12
HETATM   12  C3  UNL     1      26.026   4.314  49.961  1.00  0.00     0.039 C 
HETATM   13  C4  UNL     1      26.904   4.910  49.246  1.00  0.00     0.005 C 
BRANCH  13  14
HETATM   14  C5  UNL     1      27.154   6.259  48.421  1.00  0.00     0.088 A 
HETATM   15  C6  UNL     1      28.826   6.278  48.266  1.00  0.00     0.150 A 
HETATM   16  C7  UNL     1      28.074   7.048  47.870  1.00  0.00     0.009 A 
HETATM   17  S2  UNL     1      27.265   7.842  47.467  1.00  0.00    -0.164 SA
HETATM   18  C8  UNL     1      26.101   8.922  46.920  1.00  0.00     0.231 A 
HETATM   19  C9  UNL     1      25.687   6.842  48.208  1.00  0.00     0.229 A 
HETATM   20  O4  UNL     1      25.048   7.846  47.615  1.00  0.00    -0.374 OA
BRANCH  15  21
HETATM   21  O3  UNL     1      28.917   5.108  48.956  1.00  0.00    -0.379 OA
HETATM   22  H4  UNL     1      28.725   4.182  48.562  1.00  0.00     0.211 HD
ENDBRANCH  15  21
ENDBRANCH  13  14
ENDBRANCH   4  12
BRANCH   3  23
HETATM   23  O2  UNL     1      23.222   3.553  50.130  1.00  0.00    -0.350 OA
HETATM   24  H1  UNL     1      22.548   4.176  50.596  1.00  0.00     0.218 HD
ENDBRANCH   3  23
BRANCH  10  25
HETATM   25  O7  UNL     1      23.652  -0.684  53.355  1.00  0.00    -0.359 OA
HETATM   26  H12 UNL     1      23.057  -0.401  54.106  1.00  0.00     0.217 HD
ENDBRANCH  10  25
BRANCH   8  27
HETATM   27  O6  UNL     1      28.303  -0.892  54.175  1.00  0.00    -0.361 OA
HETATM   28  H10 UNL     1      29.128  -1.125  53.620  1.00  0.00     0.217 HD
ENDBRANCH   8  27
TORSDOF 6
ENDMDL
MODEL 5
REMARK VINA RESULT:      -7.5      1.860      2.534
REMARK  6 active torsions:
REMARK  status: ('A' for Active; 'I' for Inactive)
REMARK    1  A    between atoms: C1_3  and  O2_4 
REMARK    2  A    between atoms: C2_5  and  C3_6 
REMARK    3  A    between atoms: C4_7  and  C5_8 
REMARK    4  A    between atoms: C6_9  and  O3_10 
REMARK    5  A    between atoms: C12_19  and  O6_20 
REMARK    6  A    between atoms: C14_22  and  O7_23 
ROOT
HETATM    1  O1  UNL     1      25.107   2.858  49.712  1.00  0.00    -0.245 OA
HETATM    2  S1  UNL     1      24.629   2.878  51.158  1.00  0.00     0.117 S 
HETATM    3  C1  UNL     1      22.968   2.264  51.201  1.00  0.00     0.173 A 
HETATM    4  C2  UNL     1      22.798   1.157  51.861  1.00  0.00     0.118 A 
HETATM    5  O5  UNL     1      23.644   0.345  52.545  1.00  0.00    -0.306 OA
HETATM    6  C10 UNL     1      24.977   0.551  52.693  1.00  0.00     0.101 A 
HETATM    7  C11 UNL     1      25.747  -0.329  53.406  1.00  0.00     0.075 A 
HETATM    8  C12 UNL     1      27.085  -0.005  53.481  1.00  0.00     0.071 A 
HETATM    9  C13 UNL     1      27.664   1.117  52.898  1.00  0.00     0.074 A 
HETATM   10  C14 UNL     1      26.810   1.972  52.184  1.00  0.00     0.090 A 
HETATM   11  C15 UNL     1      25.526   1.654  52.116  1.00  0.00     0.105 A 
ENDROOT
BRANCH   4  12
HETATM   12  C3  UNL     1      21.440   0.739  51.842  1.00  0.00     0.039 C 
HETATM   13  C4  UNL     1      20.425   0.220  52.426  1.00  0.00     0.005 C 
BRANCH  13  14
HETATM   14  C5  UNL     1      18.893  -0.172  52.179  1.00  0.00     0.088 A 
HETATM   15  C6  UNL     1      18.581  -1.214  53.458  1.00  0.00     0.150 A 
HETATM   16  C7  UNL     1      17.861  -0.881  52.630  1.00  0.00     0.009 A 
HETATM   17  S2  UNL     1      17.126  -0.518  51.749  1.00  0.00    -0.164 SA
HETATM   18  C8  UNL     1      16.134   0.018  50.504  1.00  0.00     0.231 A 
HETATM   19  C9  UNL     1      18.512   0.633  50.858  1.00  0.00     0.229 A 
HETATM   20  O4  UNL     1      17.478   0.880  50.059  1.00  0.00    -0.374 OA
BRANCH  15  21
HETATM   21  O3  UNL     1      19.857  -1.065  53.909  1.00  0.00    -0.379 OA
HETATM   22  H4  UNL     1      20.467  -0.276  53.681  1.00  0.00     0.211 HD
ENDBRANCH  15  21
ENDBRANCH  13  14
ENDBRANCH   4  12
BRANCH   3  23
HETATM   23  O2  UNL     1      22.284   3.173  50.491  1.00  0.00    -0.350 OA
HETATM   24  H1  UNL     1      22.442   4.191  50.494  1.00  0.00     0.218 HD
ENDBRANCH   3  23
BRANCH  10  25
HETATM   25  O7  UNL     1      27.498   3.059  51.646  1.00  0.00    -0.359 OA
HETATM   26  H12 UNL     1      28.417   2.991  51.258  1.00  0.00     0.217 HD
ENDBRANCH  10  25
BRANCH   8  27
HETATM   27  O6  UNL     1      27.904  -0.892  54.208  1.00  0.00    -0.361 OA
HETATM   28  H10 UNL     1      27.595  -1.205  55.129  1.00  0.00     0.217 HD
ENDBRANCH   8  27
TORSDOF 6
ENDMDL
MODEL 6
REMARK VINA RESULT:      -7.4      3.265      6.686
REMARK  6 active torsions:
REMARK  status: ('A' for Active; 'I' for Inactive)
REMARK    1  A    between atoms: C1_3  and  O2_4 
REMARK    2  A    between atoms: C2_5  and  C3_6 
REMARK    3  A    between atoms: C4_7  and  C5_8 
REMARK    4  A    between atoms: C6_9  and  O3_10 
REMARK    5  A    between atoms: C12_19  and  O6_20 
REMARK    6  A    between atoms: C14_22  and  O7_23 
ROOT
HETATM    1  O1  UNL     1      25.721  -1.400  53.851  1.00  0.00    -0.245 OA
HETATM    2  S1  UNL     1      25.003  -0.136  54.306  1.00  0.00     0.117 S 
HETATM    3  C1  UNL     1      25.452   1.181  53.211  1.00  0.00     0.173 A 
HETATM    4  C2  UNL     1      24.479   1.681  52.508  1.00  0.00     0.118 A 
HETATM    5  O5  UNL     1      23.152   1.405  52.433  1.00  0.00    -0.306 OA
HETATM    6  C10 UNL     1      22.510   0.450  53.151  1.00  0.00     0.101 A 
HETATM    7  C11 UNL     1      21.163   0.248  53.002  1.00  0.00     0.075 A 
HETATM    8  C12 UNL     1      20.633  -0.752  53.789  1.00  0.00     0.071 A 
HETATM    9  C13 UNL     1      21.361  -1.528  54.685  1.00  0.00     0.074 A 
HETATM   10  C14 UNL     1      22.736  -1.261  54.782  1.00  0.00     0.090 A 
HETATM   11  C15 UNL     1      23.238  -0.300  54.022  1.00  0.00     0.105 A 
ENDROOT
BRANCH   4  12
HETATM   12  C3  UNL     1      24.929   2.729  51.660  1.00  0.00     0.039 C 
HETATM   13  C4  UNL     1      24.743   3.861  51.091  1.00  0.00     0.005 C 
BRANCH  13  14
HETATM   14  C5  UNL     1      25.449   4.909  50.110  1.00  0.00     0.088 A 
HETATM   15  C6  UNL     1      24.357   6.184  50.103  1.00  0.00     0.150 A 
HETATM   16  C7  UNL     1      25.352   6.109  49.539  1.00  0.00     0.009 A 
HETATM   17  S2  UNL     1      26.400   6.003  48.958  1.00  0.00    -0.164 SA
HETATM   18  C8  UNL     1      27.870   5.815  48.166  1.00  0.00     0.231 A 
HETATM   19  C9  UNL     1      26.791   4.167  49.676  1.00  0.00     0.229 A 
HETATM   20  O4  UNL     1      27.894   4.359  48.958  1.00  0.00    -0.374 OA
BRANCH  15  21
HETATM   21  O3  UNL     1      23.539   5.506  50.956  1.00  0.00    -0.379 OA
HETATM   22  H4  UNL     1      22.788   4.875  50.665  1.00  0.00     0.211 HD
ENDBRANCH  15  21
ENDBRANCH  13  14
ENDBRANCH   4  12
BRANCH   3  23
HETATM   23  O2  UNL     1      26.770   1.317  53.416  1.00  0.00    -0.350 OA
HETATM   24  H1  UNL     1      27.489   0.598  53.250  1.00  0.00     0.218 HD
ENDBRANCH   3  23
BRANCH  10  25
HETATM   25  O7  UNL     1      23.361  -2.097  55.706  1.00  0.00    -0.359 OA
HETATM   26  H12 UNL     1      24.143  -1.817  56.261  1.00  0.00     0.217 HD
ENDBRANCH  10  25
BRANCH   8  27
HETATM   27  O6  UNL     1      19.249  -0.984  53.658  1.00  0.00    -0.361 OA
HETATM   28  H10 UNL     1      18.597  -0.267  53.980  1.00  0.00     0.217 HD
ENDBRANCH   8  27
TORSDOF 6
ENDMDL
MODEL 7
REMARK VINA RESULT:      -7.4      3.702      5.077
REMARK  6 active torsions:
REMARK  status: ('A' for Active; 'I' for Inactive)
REMARK    1  A    between atoms: C1_3  and  O2_4 
REMARK    2  A    between atoms: C2_5  and  C3_6 
REMARK    3  A    between atoms: C4_7  and  C5_8 
REMARK    4  A    between atoms: C6_9  and  O3_10 
REMARK    5  A    between atoms: C12_19  and  O6_20 
REMARK    6  A    between atoms: C14_22  and  O7_23 
ROOT
HETATM    1  O1  UNL     1      27.681   0.499  52.399  1.00  0.00    -0.245 OA
HETATM    2  S1  UNL     1      26.651   1.437  53.016  1.00  0.00     0.117 S 
HETATM    3  C1  UNL     1      25.922   2.393  51.715  1.00  0.00     0.173 A 
HETATM    4  C2  UNL     1      24.650   2.200  51.525  1.00  0.00     0.118 A 
HETATM    5  O5  UNL     1      23.732   1.402  52.128  1.00  0.00    -0.306 OA
HETATM    6  C10 UNL     1      23.987   0.557  53.158  1.00  0.00     0.101 A 
HETATM    7  C11 UNL     1      22.988  -0.209  53.699  1.00  0.00     0.075 A 
HETATM    8  C12 UNL     1      23.379  -1.025  54.739  1.00  0.00     0.071 A 
HETATM    9  C13 UNL     1      24.673  -1.105  55.244  1.00  0.00     0.074 A 
HETATM   10  C14 UNL     1      25.640  -0.290  54.637  1.00  0.00     0.090 A 
HETATM   11  C15 UNL     1      25.258   0.491  53.638  1.00  0.00     0.105 A 
ENDROOT
BRANCH   4  12
HETATM   12  C3  UNL     1      24.151   3.004  50.465  1.00  0.00     0.039 C 
HETATM   13  C4  UNL     1      23.387   3.162  49.450  1.00  0.00     0.005 C 
BRANCH  13  14
HETATM   14  C5  UNL     1      22.972   4.238  48.340  1.00  0.00     0.088 A 
HETATM   15  C6  UNL     1      22.039   3.322  47.286  1.00  0.00     0.150 A 
HETATM   16  C7  UNL     1      22.298   4.436  47.208  1.00  0.00     0.009 A 
HETATM   17  S2  UNL     1      22.585   5.603  47.150  1.00  0.00    -0.164 SA
HETATM   18  C8  UNL     1      23.008   7.228  47.110  1.00  0.00     0.231 A 
HETATM   19  C9  UNL     1      23.674   5.578  48.839  1.00  0.00     0.229 A 
HETATM   20  O4  UNL     1      23.782   6.867  48.530  1.00  0.00    -0.374 OA
BRANCH  15  21
HETATM   21  O3  UNL     1      22.229   2.216  48.058  1.00  0.00    -0.379 OA
HETATM   22  H4  UNL     1      21.553   1.858  48.739  1.00  0.00     0.211 HD
ENDBRANCH  15  21
ENDBRANCH  13  14
ENDBRANCH   4  12
BRANCH   3  23
HETATM   23  O2  UNL     1      26.953   3.108  51.242  1.00  0.00    -0.350 OA
HETATM   24  H1  UNL     1      27.048   3.479  50.286  1.00  0.00     0.218 HD
ENDBRANCH   3  23
BRANCH  10  25
HETATM   25  O7  UNL     1      26.895  -0.454  55.222  1.00  0.00    -0.359 OA
HETATM   26  H12 UNL     1      27.732  -0.603  54.697  1.00  0.00     0.217 HD
ENDBRANCH  10  25
BRANCH   8  27
HETATM   27  O6  UNL     1      22.373  -1.826  55.318  1.00  0.00    -0.361 OA
HETATM   28  H10 UNL     1      21.398  -1.640  55.079  1.00  0.00     0.217 HD
ENDBRANCH   8  27
TORSDOF 6
ENDMDL
MODEL 8
REMARK VINA RESULT:      -7.3      4.851      7.692
REMARK  6 active torsions:
REMARK  status: ('A' for Active; 'I' for Inactive)
REMARK    1  A    between atoms: C1_3  and  O2_4 
REMARK    2  A    between atoms: C2_5  and  C3_6 
REMARK    3  A    between atoms: C4_7  and  C5_8 
REMARK    4  A    between atoms: C6_9  and  O3_10 
REMARK    5  A    between atoms: C12_19  and  O6_20 
REMARK    6  A    between atoms: C14_22  and  O7_23 
ROOT
HETATM    1  O1  UNL     1      22.743   3.332  52.293  1.00  0.00    -0.245 OA
HETATM    2  S1  UNL     1      23.457   2.556  51.194  1.00  0.00     0.117 S 
HETATM    3  C1  UNL     1      24.527   3.674  50.331  1.00  0.00     0.173 A 
HETATM    4  C2  UNL     1      25.798   3.413  50.421  1.00  0.00     0.118 A 
HETATM    5  O5  UNL     1      26.503   2.438  51.049  1.00  0.00    -0.306 OA
HETATM    6  C10 UNL     1      25.964   1.437  51.789  1.00  0.00     0.101 A 
HETATM    7  C11 UNL     1      26.765   0.498  52.385  1.00  0.00     0.075 A 
HETATM    8  C12 UNL     1      26.094  -0.465  53.108  1.00  0.00     0.071 A 
HETATM    9  C13 UNL     1      24.712  -0.530  53.253  1.00  0.00     0.074 A 
HETATM   10  C14 UNL     1      23.960   0.466  52.612  1.00  0.00     0.090 A 
HETATM   11  C15 UNL     1      24.611   1.389  51.921  1.00  0.00     0.105 A 
ENDROOT
BRANCH   4  12
HETATM   12  C3  UNL     1      26.578   4.358  49.701  1.00  0.00     0.039 C 
HETATM   13  C4  UNL     1      26.681   5.270  48.809  1.00  0.00     0.005 C 
BRANCH  13  14
HETATM   14  C5  UNL     1      27.744   6.258  48.132  1.00  0.00     0.088 A 
HETATM   15  C6  UNL     1      26.782   7.553  47.668  1.00  0.00     0.150 A 
HETATM   16  C7  UNL     1      27.913   7.431  47.526  1.00  0.00     0.009 A 
HETATM   17  S2  UNL     1      29.098   7.278  47.389  1.00  0.00    -0.164 SA
HETATM   18  C8  UNL     1      30.751   7.023  47.221  1.00  0.00     0.231 A 
HETATM   19  C9  UNL     1      29.122   5.469  48.265  1.00  0.00     0.229 A 
HETATM   20  O4  UNL     1      30.421   5.605  48.013  1.00  0.00    -0.374 OA
BRANCH  15  21
HETATM   21  O3  UNL     1      25.679   6.932  48.170  1.00  0.00    -0.379 OA
HETATM   22  H4  UNL     1      25.539   5.918  48.190  1.00  0.00     0.211 HD
ENDBRANCH  15  21
ENDBRANCH  13  14
ENDBRANCH   4  12
BRANCH   3  23
HETATM   23  O2  UNL     1      23.676   4.551  49.779  1.00  0.00    -0.350 OA
HETATM   24  H1  UNL     1      22.648   4.480  49.773  1.00  0.00     0.218 HD
ENDBRANCH   3  23
BRANCH  10  25
HETATM   25  O7  UNL     1      22.592   0.301  52.828  1.00  0.00    -0.359 OA
HETATM   26  H12 UNL     1      22.157  -0.591  52.941  1.00  0.00     0.217 HD
ENDBRANCH  10  25
BRANCH   8  27
HETATM   27  O6  UNL     1      26.890  -1.445  53.734  1.00  0.00    -0.361 OA
HETATM   28  H10 UNL     1      27.716  -1.794  53.245  1.00  0.00     0.217 HD
ENDBRANCH   8  27
TORSDOF 6
ENDMDL
MODEL 9
REMARK VINA RESULT:      -7.2      3.705      7.116
REMARK  6 active torsions:
REMARK  status: ('A' for Active; 'I' for Inactive)
REMARK    1  A    between atoms: C1_3  and  O2_4 
REMARK    2  A    between atoms: C2_5  and  C3_6 
REMARK    3  A    between atoms: C4_7  and  C5_8 
REMARK    4  A    between atoms: C6_9  and  O3_10 
REMARK    5  A    between atoms: C12_19  and  O6_20 
REMARK    6  A    between atoms: C14_22  and  O7_23 
ROOT
HETATM    1  O1  UNL     1      19.478   2.379  52.730  1.00  0.00    -0.245 OA
HETATM    2  S1  UNL     1      20.453   1.504  51.954  1.00  0.00     0.117 S 
HETATM    3  C1  UNL     1      21.683   2.553  51.229  1.00  0.00     0.173 A 
HETATM    4  C2  UNL     1      22.897   2.370  51.658  1.00  0.00     0.118 A 
HETATM    5  O5  UNL     1      23.442   1.521  52.566  1.00  0.00    -0.306 OA
HETATM    6  C10 UNL     1      22.755   0.598  53.284  1.00  0.00     0.101 A 
HETATM    7  C11 UNL     1      23.400  -0.215  54.180  1.00  0.00     0.075 A 
HETATM    8  C12 UNL     1      22.588  -1.109  54.844  1.00  0.00     0.071 A 
HETATM    9  C13 UNL     1      21.214  -1.224  54.660  1.00  0.00     0.074 A 
HETATM   10  C14 UNL     1      20.626  -0.357  53.725  1.00  0.00     0.090 A 
HETATM   11  C15 UNL     1      21.412   0.500  53.091  1.00  0.00     0.105 A 
ENDROOT
BRANCH   4  12
HETATM   12  C3  UNL     1      23.814   3.251  51.025  1.00  0.00     0.039 C 
HETATM   13  C4  UNL     1      24.139   4.424  50.626  1.00  0.00     0.005 C 
BRANCH  13  14
HETATM   14  C5  UNL     1      25.311   5.224  49.885  1.00  0.00     0.088 A 
HETATM   15  C6  UNL     1      24.747   6.804  49.929  1.00  0.00     0.150 A 
HETATM   16  C7  UNL     1      25.729   6.421  49.477  1.00  0.00     0.009 A 
HETATM   17  S2  UNL     1      26.751   5.991  49.010  1.00  0.00    -0.164 SA
HETATM   18  C8  UNL     1      28.167   5.349  48.373  1.00  0.00     0.231 A 
HETATM   19  C9  UNL     1      26.359   4.084  49.509  1.00  0.00     0.229 A 
HETATM   20  O4  UNL     1      27.557   3.921  48.954  1.00  0.00    -0.374 OA
BRANCH  15  21
HETATM   21  O3  UNL     1      23.623   6.400  50.582  1.00  0.00    -0.379 OA
HETATM   22  H4  UNL     1      23.220   6.874  51.396  1.00  0.00     0.211 HD
ENDBRANCH  15  21
ENDBRANCH  13  14
ENDBRANCH   4  12
BRANCH   3  23
HETATM   23  O2  UNL     1      20.979   3.308  50.373  1.00  0.00    -0.350 OA
HETATM   24  H1  UNL     1      21.367   3.909  49.632  1.00  0.00     0.218 HD
ENDBRANCH   3  23
BRANCH  10  25
HETATM   25  O7  UNL     1      19.251  -0.562  53.624  1.00  0.00    -0.359 OA
HETATM   26  H12 UNL     1      18.787  -0.769  52.764  1.00  0.00     0.217 HD
ENDBRANCH  10  25
BRANCH   8  27
HETATM   27  O6  UNL     1      23.222  -1.959  55.773  1.00  0.00    -0.361 OA
HETATM   28  H10 UNL     1      23.191  -1.716  56.764  1.00  0.00     0.217 HD
ENDBRANCH   8  27
TORSDOF 6
ENDMDL
