MODEL 1
REMARK VINA RESULT:      -9.3      0.000      0.000
REMARK  4 active torsions:
REMARK  status: ('A' for Active; 'I' for Inactive)
REMARK    1  A    between atoms: O1_2  and  C2_3 
REMARK    2  A    between atoms: C3_4  and  O2_5 
REMARK    3  A    between atoms: O2_5  and  C4_6 
REMARK    4  A    between atoms: N1_9  and  S1_10 
ROOT
HETATM    1  C2  UNL     1      21.700   0.207  53.259  1.00  0.00     0.104 C 
HETATM    2  C3  UNL     1      22.404   0.776  52.261  1.00  0.00     0.115 C 
HETATM    3  C10 UNL     1      21.903   1.245  50.972  1.00  0.00     0.030 A 
HETATM    4  C11 UNL     1      22.906   2.092  50.564  1.00  0.00     0.060 A 
HETATM    5  C12 UNL     1      22.805   2.736  49.367  1.00  0.00     0.139 A 
HETATM    6  F1  UNL     1      23.759   3.568  48.934  1.00  0.00    -0.204 F 
HETATM    7  C13 UNL     1      21.698   2.552  48.542  1.00  0.00     0.074 A 
HETATM    8 CL1  UNL     1      21.490   3.338  46.993  1.00  0.00    -0.081 Cl
HETATM    9  C14 UNL     1      20.664   1.704  48.920  1.00  0.00     0.057 A 
HETATM   10  C15 UNL     1      20.805   1.062  50.155  1.00  0.00     0.048 A 
HETATM   11  N2  UNL     1      19.612   0.292  50.259  1.00  0.00    -0.338 N 
HETATM   12  C16 UNL     1      18.907  -0.117  51.449  1.00  0.00     0.158 A 
HETATM   13  N3  UNL     1      17.656  -0.389  51.273  1.00  0.00    -0.222 NA
HETATM   14  C17 UNL     1      17.087  -0.780  52.541  1.00  0.00     0.236 A 
HETATM   15  N4  UNL     1      18.018  -0.735  53.461  1.00  0.00    -0.238 NA
HETATM   16  C18 UNL     1      19.230  -0.316  52.848  1.00  0.00     0.106 A 
HETATM   17  C19 UNL     1      20.330  -0.189  53.569  1.00  0.00     0.075 C 
HETATM   18  H18 UNL     1      19.202  -0.005  49.350  1.00  0.00     0.167 HD
ENDROOT
BRANCH   2  19
HETATM   19  O2  UNL     1      23.637   0.874  52.570  1.00  0.00    -0.342 OA
BRANCH  19  20
HETATM   20  C4  UNL     1      24.903   0.974  52.887  1.00  0.00     0.131 C 
HETATM   21  C5  UNL     1      25.774   1.915  52.074  1.00  0.00     0.048 C 
HETATM   22  C6  UNL     1      27.103   1.999  52.838  1.00  0.00     0.109 C 
HETATM   23  N1  UNL     1      27.777   0.744  52.741  1.00  0.00    -0.211 NA
HETATM   24  C8  UNL     1      26.971  -0.318  52.223  1.00  0.00     0.109 C 
HETATM   25  C9  UNL     1      25.585  -0.403  52.760  1.00  0.00     0.048 C 
BRANCH  23  26
HETATM   26  S1  UNL     1      28.454   0.222  54.234  1.00  0.00     0.207 S 
HETATM   27  C7  UNL     1      29.744  -0.945  53.908  1.00  0.00     0.180 C 
HETATM   28  O3  UNL     1      29.044   1.350  55.026  1.00  0.00    -0.212 OA
HETATM   29  O4  UNL     1      27.440  -0.467  55.092  1.00  0.00    -0.212 OA
ENDBRANCH  23  26
ENDBRANCH  19  20
ENDBRANCH   2  19
BRANCH   1  30
HETATM   30  O1  UNL     1      22.597  -0.067  54.276  1.00  0.00    -0.353 OA
HETATM   31  C1  UNL     1      22.397  -1.240  55.035  1.00  0.00     0.210 C 
ENDBRANCH   1  30
TORSDOF 4
ENDMDL
MODEL 2
REMARK VINA RESULT:      -9.1      4.286      7.963
REMARK  4 active torsions:
REMARK  status: ('A' for Active; 'I' for Inactive)
REMARK    1  A    between atoms: O1_2  and  C2_3 
REMARK    2  A    between atoms: C3_4  and  O2_5 
REMARK    3  A    between atoms: O2_5  and  C4_6 
REMARK    4  A    between atoms: N1_9  and  S1_10 
ROOT
HETATM    1  C2  UNL     1      25.698   2.627  51.317  1.00  0.00     0.104 C 
HETATM    2  C3  UNL     1      24.439   2.147  51.349  1.00  0.00     0.115 C 
HETATM    3  C10 UNL     1      23.906   1.106  52.223  1.00  0.00     0.030 A 
HETATM    4  C11 UNL     1      22.550   1.327  52.139  1.00  0.00     0.060 A 
HETATM    5  C12 UNL     1      21.689   0.529  52.831  1.00  0.00     0.139 A 
HETATM    6  F1  UNL     1      20.365   0.711  52.776  1.00  0.00    -0.204 F 
HETATM    7  C13 UNL     1      22.156  -0.515  53.626  1.00  0.00     0.074 A 
HETATM    8 CL1  UNL     1      21.121  -1.585  54.544  1.00  0.00    -0.081 Cl
HETATM    9  C14 UNL     1      23.518  -0.770  53.736  1.00  0.00     0.057 A 
HETATM   10  C15 UNL     1      24.369   0.072  53.011  1.00  0.00     0.048 A 
HETATM   11  N2  UNL     1      25.665  -0.425  53.330  1.00  0.00    -0.338 N 
HETATM   12  C16 UNL     1      26.916   0.292  53.377  1.00  0.00     0.158 A 
HETATM   13  N3  UNL     1      27.825  -0.251  54.118  1.00  0.00    -0.222 NA
HETATM   14  C17 UNL     1      29.010   0.571  54.069  1.00  0.00     0.236 A 
HETATM   15  N4  UNL     1      28.786   1.601  53.292  1.00  0.00    -0.238 NA
HETATM   16  C18 UNL     1      27.456   1.506  52.798  1.00  0.00     0.106 A 
HETATM   17  C19 UNL     1      26.981   2.433  51.985  1.00  0.00     0.075 C 
HETATM   18  H18 UNL     1      25.700  -1.439  53.560  1.00  0.00     0.167 HD
ENDROOT
BRANCH   2  19
HETATM   19  O2  UNL     1      23.706   2.728  50.483  1.00  0.00    -0.342 OA
BRANCH  19  20
HETATM   20  C4  UNL     1      22.954   3.325  49.594  1.00  0.00     0.131 C 
HETATM   21  C5  UNL     1      21.518   3.647  49.968  1.00  0.00     0.048 C 
HETATM   22  C6  UNL     1      20.997   4.550  48.841  1.00  0.00     0.109 C 
HETATM   23  N1  UNL     1      20.872   3.779  47.647  1.00  0.00    -0.211 NA
HETATM   24  C8  UNL     1      21.492   2.491  47.709  1.00  0.00     0.109 C 
HETATM   25  C9  UNL     1      22.845   2.451  48.327  1.00  0.00     0.048 C 
BRANCH  23  26
HETATM   26  S1  UNL     1      21.466   4.592  46.251  1.00  0.00     0.207 S 
HETATM   27  C7  UNL     1      20.140   5.482  45.490  1.00  0.00     0.180 C 
HETATM   28  O3  UNL     1      22.553   5.572  46.574  1.00  0.00    -0.212 OA
HETATM   29  O4  UNL     1      21.995   3.630  45.233  1.00  0.00    -0.212 OA
ENDBRANCH  23  26
ENDBRANCH  19  20
ENDBRANCH   2  19
BRANCH   1  30
HETATM   30  O1  UNL     1      25.731   3.599  50.332  1.00  0.00    -0.353 OA
HETATM   31  C1  UNL     1      26.809   3.580  49.422  1.00  0.00     0.210 C 
ENDBRANCH   1  30
TORSDOF 4
ENDMDL
MODEL 3
REMARK VINA RESULT:      -8.8      2.627      3.314
REMARK  4 active torsions:
REMARK  status: ('A' for Active; 'I' for Inactive)
REMARK    1  A    between atoms: O1_2  and  C2_3 
REMARK    2  A    between atoms: C3_4  and  O2_5 
REMARK    3  A    between atoms: O2_5  and  C4_6 
REMARK    4  A    between atoms: N1_9  and  S1_10 
ROOT
HETATM    1  C2  UNL     1      22.222   2.478  52.270  1.00  0.00     0.104 C 
HETATM    2  C3  UNL     1      23.307   2.919  51.604  1.00  0.00     0.115 C 
HETATM    3  C10 UNL     1      23.364   3.969  50.590  1.00  0.00     0.030 A 
HETATM    4  C11 UNL     1      24.701   4.293  50.585  1.00  0.00     0.060 A 
HETATM    5  C12 UNL     1      25.162   5.257  49.739  1.00  0.00     0.139 A 
HETATM    6  F1  UNL     1      26.454   5.600  49.704  1.00  0.00    -0.204 F 
HETATM    7  C13 UNL     1      24.302   5.925  48.872  1.00  0.00     0.074 A 
HETATM    8 CL1  UNL     1      24.810   7.172  47.756  1.00  0.00    -0.081 Cl
HETATM    9  C14 UNL     1      22.944   5.626  48.847  1.00  0.00     0.057 A 
HETATM   10  C15 UNL     1      22.510   4.632  49.731  1.00  0.00     0.048 A 
HETATM   11  N2  UNL     1      21.110   4.565  49.481  1.00  0.00    -0.338 N 
HETATM   12  C16 UNL     1      20.052   4.189  50.387  1.00  0.00     0.158 A 
HETATM   13  N3  UNL     1      18.883   4.643  50.075  1.00  0.00    -0.222 NA
HETATM   14  C17 UNL     1      17.934   4.190  51.064  1.00  0.00     0.236 A 
HETATM   15  N4  UNL     1      18.559   3.465  51.958  1.00  0.00    -0.238 NA
HETATM   16  C18 UNL     1      19.935   3.407  51.602  1.00  0.00     0.106 A 
HETATM   17  C19 UNL     1      20.787   2.731  52.351  1.00  0.00     0.075 C 
HETATM   18  H18 UNL     1      20.825   4.827  48.515  1.00  0.00     0.167 HD
ENDROOT
BRANCH   2  19
HETATM   19  O2  UNL     1      24.354   2.290  51.967  1.00  0.00    -0.342 OA
BRANCH  19  20
HETATM   20  C4  UNL     1      25.429   1.644  52.341  1.00  0.00     0.131 C 
HETATM   21  C5  UNL     1      25.389   0.127  52.349  1.00  0.00     0.048 C 
HETATM   22  C6  UNL     1      26.840  -0.318  52.577  1.00  0.00     0.109 C 
HETATM   23  N1  UNL     1      27.227   0.018  53.909  1.00  0.00    -0.211 NA
HETATM   24  C8  UNL     1      26.316   0.890  54.585  1.00  0.00     0.109 C 
HETATM   25  C9  UNL     1      25.801   2.036  53.786  1.00  0.00     0.048 C 
BRANCH  23  26
HETATM   26  S1  UNL     1      28.799   0.711  54.004  1.00  0.00     0.207 S 
HETATM   27  C7  UNL     1      30.008  -0.568  53.813  1.00  0.00     0.180 C 
HETATM   28  O3  UNL     1      29.043   1.737  52.938  1.00  0.00    -0.212 OA
HETATM   29  O4  UNL     1      29.042   1.355  55.332  1.00  0.00    -0.212 OA
ENDBRANCH  23  26
ENDBRANCH  19  20
ENDBRANCH   2  19
BRANCH   1  30
HETATM   30  O1  UNL     1      22.656   1.480  53.125  1.00  0.00    -0.353 OA
HETATM   31  C1  UNL     1      21.701   0.554  53.597  1.00  0.00     0.210 C 
ENDBRANCH   1  30
TORSDOF 4
ENDMDL
MODEL 4
REMARK VINA RESULT:      -8.8      2.865      4.586
REMARK  4 active torsions:
REMARK  status: ('A' for Active; 'I' for Inactive)
REMARK    1  A    between atoms: O1_2  and  C2_3 
REMARK    2  A    between atoms: C3_4  and  O2_5 
REMARK    3  A    between atoms: O2_5  and  C4_6 
REMARK    4  A    between atoms: N1_9  and  S1_10 
ROOT
HETATM    1  C2  UNL     1      23.584   2.855  50.326  1.00  0.00     0.104 C 
HETATM    2  C3  UNL     1      23.303   1.916  51.252  1.00  0.00     0.115 C 
HETATM    3  C10 UNL     1      21.984   1.458  51.682  1.00  0.00     0.030 A 
HETATM    4  C11 UNL     1      22.278   0.252  52.274  1.00  0.00     0.060 A 
HETATM    5  C12 UNL     1      21.279  -0.497  52.820  1.00  0.00     0.139 A 
HETATM    6  F1  UNL     1      21.524  -1.675  53.404  1.00  0.00    -0.204 F 
HETATM    7  C13 UNL     1      19.956  -0.063  52.792  1.00  0.00     0.074 A 
HETATM    8 CL1  UNL     1      18.617  -0.960  53.469  1.00  0.00    -0.081 Cl
HETATM    9  C14 UNL     1      19.620   1.151  52.204  1.00  0.00     0.057 A 
HETATM   10  C15 UNL     1      20.673   1.889  51.654  1.00  0.00     0.048 A 
HETATM   11  N2  UNL     1      20.023   3.043  51.132  1.00  0.00    -0.338 N 
HETATM   12  C16 UNL     1      20.413   3.867  50.013  1.00  0.00     0.158 A 
HETATM   13  N3  UNL     1      19.450   4.539  49.472  1.00  0.00    -0.222 NA
HETATM   14  C17 UNL     1      19.986   5.309  48.375  1.00  0.00     0.236 A 
HETATM   15  N4  UNL     1      21.273   5.080  48.279  1.00  0.00    -0.238 NA
HETATM   16  C18 UNL     1      21.639   4.159  49.299  1.00  0.00     0.106 A 
HETATM   17  C19 UNL     1      22.894   3.762  49.416  1.00  0.00     0.075 C 
HETATM   18  H18 UNL     1      19.151   3.317  51.630  1.00  0.00     0.167 HD
ENDROOT
BRANCH   2  19
HETATM   19  O2  UNL     1      24.371   1.432  51.751  1.00  0.00    -0.342 OA
BRANCH  19  20
HETATM   20  C4  UNL     1      25.467   0.934  52.264  1.00  0.00     0.131 C 
HETATM   21  C5  UNL     1      25.485  -0.540  52.625  1.00  0.00     0.048 C 
HETATM   22  C6  UNL     1      26.951  -0.861  52.949  1.00  0.00     0.109 C 
HETATM   23  N1  UNL     1      27.312  -0.210  54.166  1.00  0.00    -0.211 NA
HETATM   24  C8  UNL     1      26.362   0.758  54.621  1.00  0.00     0.109 C 
HETATM   25  C9  UNL     1      25.810   1.666  53.578  1.00  0.00     0.048 C 
BRANCH  23  26
HETATM   26  S1  UNL     1      28.856   0.549  54.096  1.00  0.00     0.207 S 
HETATM   27  C7  UNL     1      30.100  -0.690  53.872  1.00  0.00     0.180 C 
HETATM   28  O3  UNL     1      28.968   1.524  52.964  1.00  0.00    -0.212 OA
HETATM   29  O4  UNL     1      29.175   1.272  55.367  1.00  0.00    -0.212 OA
ENDBRANCH  23  26
ENDBRANCH  19  20
ENDBRANCH   2  19
BRANCH   1  30
HETATM   30  O1  UNL     1      24.963   2.948  50.257  1.00  0.00    -0.353 OA
HETATM   31  C1  UNL     1      25.519   4.118  49.697  1.00  0.00     0.210 C 
ENDBRANCH   1  30
TORSDOF 4
ENDMDL
MODEL 5
REMARK VINA RESULT:      -8.7      3.211      7.270
REMARK  4 active torsions:
REMARK  status: ('A' for Active; 'I' for Inactive)
REMARK    1  A    between atoms: O1_2  and  C2_3 
REMARK    2  A    between atoms: C3_4  and  O2_5 
REMARK    3  A    between atoms: O2_5  and  C4_6 
REMARK    4  A    between atoms: N1_9  and  S1_10 
ROOT
HETATM    1  C2  UNL     1      23.664  -0.062  53.120  1.00  0.00     0.104 C 
HETATM    2  C3  UNL     1      23.277   0.846  52.202  1.00  0.00     0.115 C 
HETATM    3  C10 UNL     1      24.089   1.896  51.593  1.00  0.00     0.030 A 
HETATM    4  C11 UNL     1      23.358   2.211  50.471  1.00  0.00     0.060 A 
HETATM    5  C12 UNL     1      23.800   3.182  49.624  1.00  0.00     0.139 A 
HETATM    6  F1  UNL     1      23.118   3.517  48.523  1.00  0.00    -0.204 F 
HETATM    7  C13 UNL     1      24.985   3.870  49.872  1.00  0.00     0.074 A 
HETATM    8 CL1  UNL     1      25.622   5.129  48.839  1.00  0.00    -0.081 Cl
HETATM    9  C14 UNL     1      25.751   3.581  50.995  1.00  0.00     0.057 A 
HETATM   10  C15 UNL     1      25.265   2.577  51.840  1.00  0.00     0.048 A 
HETATM   11  N2  UNL     1      26.250   2.510  52.866  1.00  0.00    -0.338 N 
HETATM   12  C16 UNL     1      26.631   1.377  53.673  1.00  0.00     0.158 A 
HETATM   13  N3  UNL     1      27.818   1.445  54.179  1.00  0.00    -0.222 NA
HETATM   14  C17 UNL     1      28.058   0.251  54.955  1.00  0.00     0.236 A 
HETATM   15  N4  UNL     1      26.998  -0.517  54.898  1.00  0.00    -0.238 NA
HETATM   16  C18 UNL     1      26.022   0.130  54.091  1.00  0.00     0.106 A 
HETATM   17  C19 UNL     1      24.852  -0.445  53.875  1.00  0.00     0.075 C 
HETATM   18  H18 UNL     1      26.757   3.401  53.044  1.00  0.00     0.167 HD
ENDROOT
BRANCH   2  19
HETATM   19  O2  UNL     1      22.050   0.692  51.895  1.00  0.00    -0.342 OA
BRANCH  19  20
HETATM   20  C4  UNL     1      20.790   0.534  51.579  1.00  0.00     0.131 C 
HETATM   21  C5  UNL     1      20.329   1.004  50.211  1.00  0.00     0.048 C 
HETATM   22  C6  UNL     1      18.903   0.457  50.053  1.00  0.00     0.109 C 
HETATM   23  N1  UNL     1      18.038   1.144  50.957  1.00  0.00    -0.211 NA
HETATM   24  C8  UNL     1      18.717   1.936  51.935  1.00  0.00     0.109 C 
HETATM   25  C9  UNL     1      19.899   1.299  52.579  1.00  0.00     0.048 C 
BRANCH  23  26
HETATM   26  S1  UNL     1      16.948   0.097  51.779  1.00  0.00     0.207 S 
HETATM   27  C7  UNL     1      15.910  -0.707  50.592  1.00  0.00     0.180 C 
HETATM   28  O3  UNL     1      17.654  -0.965  52.568  1.00  0.00    -0.212 OA
HETATM   29  O4  UNL     1      16.053   0.851  52.712  1.00  0.00    -0.212 OA
ENDBRANCH  23  26
ENDBRANCH  19  20
ENDBRANCH   2  19
BRANCH   1  30
HETATM   30  O1  UNL     1      22.558  -0.848  53.395  1.00  0.00    -0.353 OA
HETATM   31  C1  UNL     1      22.330  -1.220  54.737  1.00  0.00     0.210 C 
ENDBRANCH   1  30
TORSDOF 4
ENDMDL
MODEL 6
REMARK VINA RESULT:      -8.2      4.383      5.995
REMARK  4 active torsions:
REMARK  status: ('A' for Active; 'I' for Inactive)
REMARK    1  A    between atoms: O1_2  and  C2_3 
REMARK    2  A    between atoms: C3_4  and  O2_5 
REMARK    3  A    between atoms: O2_5  and  C4_6 
REMARK    4  A    between atoms: N1_9  and  S1_10 
ROOT
HETATM    1  C2  UNL     1      21.389   2.292  51.938  1.00  0.00     0.104 C 
HETATM    2  C3  UNL     1      22.735   2.376  51.933  1.00  0.00     0.115 C 
HETATM    3  C10 UNL     1      23.691   1.355  52.353  1.00  0.00     0.030 A 
HETATM    4  C11 UNL     1      24.850   1.780  51.746  1.00  0.00     0.060 A 
HETATM    5  C12 UNL     1      26.002   1.071  51.912  1.00  0.00     0.139 A 
HETATM    6  F1  UNL     1      27.149   1.450  51.339  1.00  0.00    -0.204 F 
HETATM    7  C13 UNL     1      26.031  -0.084  52.691  1.00  0.00     0.074 A 
HETATM    8 CL1  UNL     1      27.464  -1.051  52.956  1.00  0.00    -0.081 Cl
HETATM    9  C14 UNL     1      24.880  -0.545  53.320  1.00  0.00     0.057 A 
HETATM   10  C15 UNL     1      23.719   0.210  53.124  1.00  0.00     0.048 A 
HETATM   11  N2  UNL     1      22.738  -0.505  53.868  1.00  0.00    -0.338 N 
HETATM   12  C16 UNL     1      21.316  -0.588  53.634  1.00  0.00     0.158 A 
HETATM   13  N3  UNL     1      20.742  -1.630  54.139  1.00  0.00    -0.222 NA
HETATM   14  C17 UNL     1      19.334  -1.578  53.827  1.00  0.00     0.236 A 
HETATM   15  N4  UNL     1      19.089  -0.494  53.134  1.00  0.00    -0.238 NA
HETATM   16  C18 UNL     1      20.312   0.210  52.960  1.00  0.00     0.106 A 
HETATM   17  C19 UNL     1      20.334   1.347  52.287  1.00  0.00     0.075 C 
HETATM   18  H18 UNL     1      23.107  -1.037  54.682  1.00  0.00     0.167 HD
ENDROOT
BRANCH   2  19
HETATM   19  O2  UNL     1      23.121   3.509  51.497  1.00  0.00    -0.342 OA
BRANCH  19  20
HETATM   20  C4  UNL     1      23.518   4.673  51.050  1.00  0.00     0.131 C 
HETATM   21  C5  UNL     1      22.669   5.891  51.364  1.00  0.00     0.048 C 
HETATM   22  C6  UNL     1      23.514   7.099  50.935  1.00  0.00     0.109 C 
HETATM   23  N1  UNL     1      23.616   7.114  49.511  1.00  0.00    -0.211 NA
HETATM   24  C8  UNL     1      23.168   5.914  48.876  1.00  0.00     0.109 C 
HETATM   25  C9  UNL     1      23.606   4.640  49.510  1.00  0.00     0.048 C 
BRANCH  23  26
HETATM   26  S1  UNL     1      25.207   7.454  48.950  1.00  0.00     0.207 S 
HETATM   27  C7  UNL     1      25.608   9.136  49.327  1.00  0.00     0.180 C 
HETATM   28  O3  UNL     1      26.244   6.580  49.590  1.00  0.00    -0.212 OA
HETATM   29  O4  UNL     1      25.317   7.294  47.466  1.00  0.00    -0.212 OA
ENDBRANCH  23  26
ENDBRANCH  19  20
ENDBRANCH   2  19
BRANCH   1  30
HETATM   30  O1  UNL     1      20.912   3.498  51.454  1.00  0.00    -0.353 OA
HETATM   31  C1  UNL     1      19.515   3.652  51.327  1.00  0.00     0.210 C 
ENDBRANCH   1  30
TORSDOF 4
ENDMDL
MODEL 7
REMARK VINA RESULT:      -8.0      4.579      8.494
REMARK  4 active torsions:
REMARK  status: ('A' for Active; 'I' for Inactive)
REMARK    1  A    between atoms: O1_2  and  C2_3 
REMARK    2  A    between atoms: C3_4  and  O2_5 
REMARK    3  A    between atoms: O2_5  and  C4_6 
REMARK    4  A    between atoms: N1_9  and  S1_10 
ROOT
HETATM    1  C2  UNL     1      23.431   4.576  49.601  1.00  0.00     0.104 C 
HETATM    2  C3  UNL     1      23.299   3.442  50.317  1.00  0.00     0.115 C 
HETATM    3  C10 UNL     1      24.364   2.613  50.876  1.00  0.00     0.030 A 
HETATM    4  C11 UNL     1      23.692   1.886  51.831  1.00  0.00     0.060 A 
HETATM    5  C12 UNL     1      24.364   0.970  52.583  1.00  0.00     0.139 A 
HETATM    6  F1  UNL     1      23.746   0.243  53.521  1.00  0.00    -0.204 F 
HETATM    7  C13 UNL     1      25.727   0.751  52.404  1.00  0.00     0.074 A 
HETATM    8 CL1  UNL     1      26.664  -0.403  53.324  1.00  0.00    -0.081 Cl
HETATM    9  C14 UNL     1      26.441   1.467  51.449  1.00  0.00     0.057 A 
HETATM   10  C15 UNL     1      25.716   2.398  50.698  1.00  0.00     0.048 A 
HETATM   11  N2  UNL     1      26.702   2.959  49.837  1.00  0.00    -0.338 N 
HETATM   12  C16 UNL     1      26.744   4.280  49.260  1.00  0.00     0.158 A 
HETATM   13  N3  UNL     1      27.922   4.686  48.917  1.00  0.00    -0.222 NA
HETATM   14  C17 UNL     1      27.809   6.013  48.360  1.00  0.00     0.236 A 
HETATM   15  N4  UNL     1      26.551   6.380  48.380  1.00  0.00    -0.238 NA
HETATM   16  C18 UNL     1      25.787   5.322  48.945  1.00  0.00     0.106 A 
HETATM   17  C19 UNL     1      24.478   5.447  49.078  1.00  0.00     0.075 C 
HETATM   18  H18 UNL     1      27.492   2.324  49.605  1.00  0.00     0.167 HD
ENDROOT
BRANCH   2  19
HETATM   19  O2  UNL     1      22.071   3.139  50.473  1.00  0.00    -0.342 OA
BRANCH  19  20
HETATM   20  C4  UNL     1      20.809   2.828  50.633  1.00  0.00     0.131 C 
HETATM   21  C5  UNL     1      20.169   3.099  51.982  1.00  0.00     0.048 C 
HETATM   22  C6  UNL     1      18.665   2.873  51.771  1.00  0.00     0.109 C 
HETATM   23  N1  UNL     1      18.429   1.481  51.556  1.00  0.00    -0.211 NA
HETATM   24  C8  UNL     1      19.613   0.712  51.324  1.00  0.00     0.109 C 
HETATM   25  C9  UNL     1      20.609   1.317  50.397  1.00  0.00     0.048 C 
BRANCH  23  26
HETATM   26  S1  UNL     1      17.329   1.171  50.270  1.00  0.00     0.207 S 
HETATM   27  C7  UNL     1      15.682   1.515  50.821  1.00  0.00     0.180 C 
HETATM   28  O3  UNL     1      17.598   2.020  49.064  1.00  0.00    -0.212 OA
HETATM   29  O4  UNL     1      17.363  -0.264  49.846  1.00  0.00    -0.212 OA
ENDBRANCH  23  26
ENDBRANCH  19  20
ENDBRANCH   2  19
BRANCH   1  30
HETATM   30  O1  UNL     1      22.152   5.004  49.292  1.00  0.00    -0.353 OA
HETATM   31  C1  UNL     1      21.836   6.361  49.522  1.00  0.00     0.210 C 
ENDBRANCH   1  30
TORSDOF 4
ENDMDL
MODEL 8
REMARK VINA RESULT:      -8.0      3.940      7.303
REMARK  4 active torsions:
REMARK  status: ('A' for Active; 'I' for Inactive)
REMARK    1  A    between atoms: O1_2  and  C2_3 
REMARK    2  A    between atoms: C3_4  and  O2_5 
REMARK    3  A    between atoms: O2_5  and  C4_6 
REMARK    4  A    between atoms: N1_9  and  S1_10 
ROOT
HETATM    1  C2  UNL     1      25.518   3.267  49.827  1.00  0.00     0.104 C 
HETATM    2  C3  UNL     1      24.207   3.546  49.682  1.00  0.00     0.115 C 
HETATM    3  C10 UNL     1      23.610   4.653  48.940  1.00  0.00     0.030 A 
HETATM    4  C11 UNL     1      22.317   4.217  48.764  1.00  0.00     0.060 A 
HETATM    5  C12 UNL     1      21.421   5.001  48.102  1.00  0.00     0.139 A 
HETATM    6  F1  UNL     1      20.156   4.613  47.909  1.00  0.00    -0.204 F 
HETATM    7  C13 UNL     1      21.789   6.246  47.597  1.00  0.00     0.074 A 
HETATM    8 CL1  UNL     1      20.703   7.314  46.737  1.00  0.00    -0.081 Cl
HETATM    9  C14 UNL     1      23.085   6.722  47.755  1.00  0.00     0.057 A 
HETATM   10  C15 UNL     1      23.975   5.887  48.439  1.00  0.00     0.048 A 
HETATM   11  N2  UNL     1      25.190   6.630  48.429  1.00  0.00    -0.338 N 
HETATM   12  C16 UNL     1      26.546   6.136  48.452  1.00  0.00     0.158 A 
HETATM   13  N3  UNL     1      27.429   6.952  47.978  1.00  0.00    -0.222 NA
HETATM   14  C17 UNL     1      28.727   6.327  48.065  1.00  0.00     0.236 A 
HETATM   15  N4  UNL     1      28.595   5.136  48.594  1.00  0.00    -0.238 NA
HETATM   16  C18 UNL     1      27.218   4.925  48.877  1.00  0.00     0.106 A 
HETATM   17  C19 UNL     1      26.819   3.788  49.419  1.00  0.00     0.075 C 
HETATM   18  H18 UNL     1      25.071   7.662  48.397  1.00  0.00     0.167 HD
ENDROOT
BRANCH   2  19
HETATM   19  O2  UNL     1      23.488   2.694  50.298  1.00  0.00    -0.342 OA
BRANCH  19  20
HETATM   20  C4  UNL     1      22.748   1.818  50.931  1.00  0.00     0.131 C 
HETATM   21  C5  UNL     1      21.552   1.231  50.205  1.00  0.00     0.048 C 
HETATM   22  C6  UNL     1      21.061   0.080  51.095  1.00  0.00     0.109 C 
HETATM   23  N1  UNL     1      20.500   0.623  52.290  1.00  0.00    -0.211 NA
HETATM   24  C8  UNL     1      20.767   2.014  52.487  1.00  0.00     0.109 C 
HETATM   25  C9  UNL     1      22.162   2.453  52.208  1.00  0.00     0.048 C 
BRANCH  23  26
HETATM   26  S1  UNL     1      20.984  -0.221  53.709  1.00  0.00     0.207 S 
HETATM   27  C7  UNL     1      22.671  -0.727  53.535  1.00  0.00     0.180 C 
HETATM   28  O3  UNL     1      20.882   0.622  54.945  1.00  0.00    -0.212 OA
HETATM   29  O4  UNL     1      20.171  -1.459  53.923  1.00  0.00    -0.212 OA
ENDBRANCH  23  26
ENDBRANCH  19  20
ENDBRANCH   2  19
BRANCH   1  30
HETATM   30  O1  UNL     1      25.600   2.128  50.608  1.00  0.00    -0.353 OA
HETATM   31  C1  UNL     1      26.612   2.073  51.591  1.00  0.00     0.210 C 
ENDBRANCH   1  30
TORSDOF 4
ENDMDL
MODEL 9
REMARK VINA RESULT:      -8.0      3.739      7.494
REMARK  4 active torsions:
REMARK  status: ('A' for Active; 'I' for Inactive)
REMARK    1  A    between atoms: O1_2  and  C2_3 
REMARK    2  A    between atoms: C3_4  and  O2_5 
REMARK    3  A    between atoms: O2_5  and  C4_6 
REMARK    4  A    between atoms: N1_9  and  S1_10 
ROOT
HETATM    1  C2  UNL     1      23.596   0.780  52.262  1.00  0.00     0.104 C 
HETATM    2  C3  UNL     1      23.478   1.886  51.500  1.00  0.00     0.115 C 
HETATM    3  C10 UNL     1      24.553   2.699  50.938  1.00  0.00     0.030 A 
HETATM    4  C11 UNL     1      23.902   3.388  49.941  1.00  0.00     0.060 A 
HETATM    5  C12 UNL     1      24.588   4.279  49.172  1.00  0.00     0.139 A 
HETATM    6  F1  UNL     1      23.992   4.967  48.193  1.00  0.00    -0.204 F 
HETATM    7  C13 UNL     1      25.946   4.510  49.377  1.00  0.00     0.074 A 
HETATM    8 CL1  UNL     1      26.901   5.635  48.438  1.00  0.00    -0.081 Cl
HETATM    9  C14 UNL     1      26.639   3.835  50.375  1.00  0.00     0.057 A 
HETATM   10  C15 UNL     1      25.899   2.928  51.141  1.00  0.00     0.048 A 
HETATM   11  N2  UNL     1      26.865   2.404  52.046  1.00  0.00    -0.338 N 
HETATM   12  C16 UNL     1      26.899   1.105  52.673  1.00  0.00     0.158 A 
HETATM   13  N3  UNL     1      28.070   0.718  53.060  1.00  0.00    -0.222 NA
HETATM   14  C17 UNL     1      27.948  -0.588  53.663  1.00  0.00     0.236 A 
HETATM   15  N4  UNL     1      26.693  -0.962  53.625  1.00  0.00    -0.238 NA
HETATM   16  C18 UNL     1      25.939   0.070  53.003  1.00  0.00     0.106 A 
HETATM   17  C19 UNL     1      24.634  -0.065  52.842  1.00  0.00     0.075 C 
HETATM   18  H18 UNL     1      27.647   3.051  52.275  1.00  0.00     0.167 HD
ENDROOT
BRANCH   2  19
HETATM   19  O2  UNL     1      22.252   2.177  51.304  1.00  0.00    -0.342 OA
BRANCH  19  20
HETATM   20  C4  UNL     1      20.994   2.475  51.101  1.00  0.00     0.131 C 
HETATM   21  C5  UNL     1      20.005   2.216  52.223  1.00  0.00     0.048 C 
HETATM   22  C6  UNL     1      18.701   2.893  51.780  1.00  0.00     0.109 C 
HETATM   23  N1  UNL     1      18.155   2.174  50.674  1.00  0.00    -0.211 NA
HETATM   24  C8  UNL     1      19.047   1.215  50.097  1.00  0.00     0.109 C 
HETATM   25  C9  UNL     1      20.451   1.670  49.903  1.00  0.00     0.048 C 
BRANCH  23  26
HETATM   26  S1  UNL     1      17.585   3.199  49.415  1.00  0.00     0.207 S 
HETATM   27  C7  UNL     1      18.412   4.761  49.521  1.00  0.00     0.180 C 
HETATM   28  O3  UNL     1      17.841   2.634  48.051  1.00  0.00    -0.212 OA
HETATM   29  O4  UNL     1      16.118   3.466  49.540  1.00  0.00    -0.212 OA
ENDBRANCH  23  26
ENDBRANCH  19  20
ENDBRANCH   2  19
BRANCH   1  30
HETATM   30  O1  UNL     1      22.312   0.357  52.555  1.00  0.00    -0.353 OA
HETATM   31  C1  UNL     1      22.157  -0.665  53.516  1.00  0.00     0.210 C 
ENDBRANCH   1  30
TORSDOF 4
ENDMDL
