MODEL 1
REMARK VINA RESULT:      -9.0      0.000      0.000
REMARK  1 active torsions:
REMARK  status: ('A' for Active; 'I' for Inactive)
REMARK    1  A    between atoms: C5_6  and  N3_9 
REMARK       I    between atoms: N4_14  and  C11_15 
REMARK       I    between atoms: C11_15  and  N5_16 
ROOT
HETATM    1  C1  UNL     1      23.174   4.871  51.531  1.00  0.00     0.043 C 
HETATM    2  C2  UNL     1      22.057   3.962  51.860  1.00  0.00    -0.078 C 
HETATM    3  C3  UNL     1      20.800   3.980  52.283  1.00  0.00     0.001 C 
HETATM    4  C4  UNL     1      20.633   2.630  52.231  1.00  0.00     0.113 C 
HETATM    5  N1  UNL     1      20.325   1.605  53.159  1.00  0.00    -0.355 N 
HETATM    6  C5  UNL     1      20.823   0.102  53.488  1.00  0.00     0.441 A 
HETATM    7  N2  UNL     1      19.572  -0.367  53.314  1.00  0.00     0.232 N 
HETATM    8  C6  UNL     1      19.174  -1.576  53.701  1.00  0.00     0.538 A 
HETATM    9  N3  UNL     1      19.768  -0.354  53.367  1.00  0.00     0.232 N 
HETATM   10  C7  UNL     1      21.038  -0.204  53.673  1.00  0.00     0.414 A 
HETATM   11  C8  UNL     1      22.197   0.367  52.738  1.00  0.00     0.085 A 
HETATM   12  C9  UNL     1      23.592   0.169  52.899  1.00  0.00     0.019 A 
HETATM   13  C10 UNL     1      24.244  -0.537  53.887  1.00  0.00     0.030 A 
HETATM   14  N4  UNL     1      25.389  -0.984  54.387  1.00  0.00    -0.310 N 
HETATM   15  C11 UNL     1      26.422  -0.622  53.508  1.00  0.00     0.318 C 
HETATM   16  N5  UNL     1      27.753  -0.991  53.817  1.00  0.00    -0.352 N 
HETATM   17  O1  UNL     1      26.594  -0.018  52.425  1.00  0.00    -0.247 OA
HETATM   18  C12 UNL     1      23.144  -0.907  54.558  1.00  0.00     0.024 A 
HETATM   19  C13 UNL     1      22.019  -0.538  54.095  1.00  0.00     0.149 A 
HETATM   20  C14 UNL     1      22.526   1.330  51.519  1.00  0.00     0.086 C 
HETATM   21 BR1  UNL     1      21.656   0.912  49.899  1.00  0.00    -0.089 Br
HETATM   22  C15 UNL     1      22.195   2.638  52.129  1.00  0.00     0.056 C 
HETATM   23  H6  UNL     1      19.544   2.114  53.733  1.00  0.00     0.158 HD
HETATM   24  H9  UNL     1      25.600  -1.506  55.247  1.00  0.00     0.170 HD
HETATM   25  H10 UNL     1      28.409  -1.617  53.305  1.00  0.00     0.160 HD
HETATM   26  H11 UNL     1      28.465  -0.792  54.582  1.00  0.00     0.160 HD
ENDROOT
TORSDOF 1
ENDMDL
MODEL 2
REMARK VINA RESULT:      -8.6      2.951      5.083
REMARK  1 active torsions:
REMARK  status: ('A' for Active; 'I' for Inactive)
REMARK    1  A    between atoms: C5_6  and  N3_9 
REMARK       I    between atoms: N4_14  and  C11_15 
REMARK       I    between atoms: C11_15  and  N5_16 
ROOT
HETATM    1  C1  UNL     1      21.938   3.503  48.743  1.00  0.00     0.043 C 
HETATM    2  C2  UNL     1      23.284   3.459  49.350  1.00  0.00    -0.078 C 
HETATM    3  C3  UNL     1      24.565   3.597  49.034  1.00  0.00     0.001 C 
HETATM    4  C4  UNL     1      25.026   3.406  50.301  1.00  0.00     0.113 C 
HETATM    5  N1  UNL     1      25.879   2.476  50.945  1.00  0.00    -0.355 N 
HETATM    6  C5  UNL     1      25.910   1.644  52.330  1.00  0.00     0.441 A 
HETATM    7  N2  UNL     1      27.094   2.198  52.655  1.00  0.00     0.232 N 
HETATM    8  C6  UNL     1      27.883   1.743  53.625  1.00  0.00     0.538 A 
HETATM    9  N3  UNL     1      26.931   2.074  52.653  1.00  0.00     0.232 N 
HETATM   10  C7  UNL     1      25.854   1.323  52.592  1.00  0.00     0.414 A 
HETATM   11  C8  UNL     1      24.339   1.811  52.494  1.00  0.00     0.085 A 
HETATM   12  C9  UNL     1      23.183   1.059  52.821  1.00  0.00     0.019 A 
HETATM   13  C10 UNL     1      23.111  -0.240  53.276  1.00  0.00     0.030 A 
HETATM   14  N4  UNL     1      22.361  -1.248  53.703  1.00  0.00    -0.310 N 
HETATM   15  C11 UNL     1      21.029  -0.805  53.767  1.00  0.00     0.318 C 
HETATM   16  N5  UNL     1      20.025  -1.702  54.203  1.00  0.00    -0.352 N 
HETATM   17  O1  UNL     1      20.347   0.221  53.549  1.00  0.00    -0.247 OA
HETATM   18  C12 UNL     1      24.432  -0.473  53.273  1.00  0.00     0.024 A 
HETATM   19  C13 UNL     1      25.197   0.476  52.912  1.00  0.00     0.149 A 
HETATM   20  C14 UNL     1      23.379   2.976  52.000  1.00  0.00     0.086 C 
HETATM   21 BR1  UNL     1      23.699   4.668  52.766  1.00  0.00    -0.089 Br
HETATM   22  C15 UNL     1      23.576   2.865  50.536  1.00  0.00     0.056 C 
HETATM   23  H6  UNL     1      26.663   2.399  50.184  1.00  0.00     0.158 HD
HETATM   24  H9  UNL     1      22.599  -2.213  53.963  1.00  0.00     0.170 HD
HETATM   25  H10 UNL     1      19.403  -1.655  55.037  1.00  0.00     0.160 HD
HETATM   26  H11 UNL     1      19.601  -2.623  53.880  1.00  0.00     0.160 HD
ENDROOT
TORSDOF 1
ENDMDL
MODEL 3
REMARK VINA RESULT:      -8.4      3.413      5.290
REMARK  1 active torsions:
REMARK  status: ('A' for Active; 'I' for Inactive)
REMARK    1  A    between atoms: C5_6  and  N3_9 
REMARK       I    between atoms: N4_14  and  C11_15 
REMARK       I    between atoms: C11_15  and  N5_16 
ROOT
HETATM    1  C1  UNL     1      26.652   3.641  49.593  1.00  0.00     0.043 C 
HETATM    2  C2  UNL     1      26.226   2.798  50.729  1.00  0.00    -0.078 C 
HETATM    3  C3  UNL     1      26.698   1.900  51.583  1.00  0.00     0.001 C 
HETATM    4  C4  UNL     1      25.529   1.751  52.264  1.00  0.00     0.113 C 
HETATM    5  N1  UNL     1      24.633   0.687  52.530  1.00  0.00    -0.355 N 
HETATM    6  C5  UNL     1      23.034   0.452  52.565  1.00  0.00     0.441 A 
HETATM    7  N2  UNL     1      23.105   0.050  53.849  1.00  0.00     0.232 N 
HETATM    8  C6  UNL     1      22.119  -0.577  54.485  1.00  0.00     0.538 A 
HETATM    9  N3  UNL     1      23.036   0.084  53.660  1.00  0.00     0.232 N 
HETATM   10  C7  UNL     1      22.654   0.343  52.429  1.00  0.00     0.414 A 
HETATM   11  C8  UNL     1      22.802   1.722  51.640  1.00  0.00     0.085 A 
HETATM   12  C9  UNL     1      22.064   2.130  50.501  1.00  0.00     0.019 A 
HETATM   13  C10 UNL     1      21.082   1.436  49.827  1.00  0.00     0.030 A 
HETATM   14  N4  UNL     1      20.185   1.411  48.850  1.00  0.00    -0.310 N 
HETATM   15  C11 UNL     1      20.187   2.668  48.222  1.00  0.00     0.318 C 
HETATM   16  N5  UNL     1      19.304   2.899  47.140  1.00  0.00    -0.352 N 
HETATM   17  O1  UNL     1      20.762   3.777  48.295  1.00  0.00    -0.247 OA
HETATM   18  C12 UNL     1      21.117   0.340  50.599  1.00  0.00     0.024 A 
HETATM   19  C13 UNL     1      21.931   0.332  51.576  1.00  0.00     0.149 A 
HETATM   20  C14 UNL     1      23.657   3.053  51.501  1.00  0.00     0.086 C 
HETATM   21 BR1  UNL     1      23.744   4.124  53.050  1.00  0.00    -0.089 Br
HETATM   22  C15 UNL     1      24.936   2.486  51.015  1.00  0.00     0.056 C 
HETATM   23  H6  UNL     1      25.358  -0.107  52.739  1.00  0.00     0.158 HD
HETATM   24  H9  UNL     1      19.554   0.669  48.522  1.00  0.00     0.170 HD
HETATM   25  H10 UNL     1      18.517   3.574  47.053  1.00  0.00     0.160 HD
HETATM   26  H11 UNL     1      19.147   2.518  46.159  1.00  0.00     0.160 HD
ENDROOT
TORSDOF 1
ENDMDL
MODEL 4
REMARK VINA RESULT:      -8.3      2.916      4.884
REMARK  1 active torsions:
REMARK  status: ('A' for Active; 'I' for Inactive)
REMARK    1  A    between atoms: C5_6  and  N3_9 
REMARK       I    between atoms: N4_14  and  C11_15 
REMARK       I    between atoms: C11_15  and  N5_16 
ROOT
HETATM    1  C1  UNL     1      21.401   2.689  48.186  1.00  0.00     0.043 C 
HETATM    2  C2  UNL     1      22.626   2.813  49.003  1.00  0.00    -0.078 C 
HETATM    3  C3  UNL     1      23.935   2.991  48.883  1.00  0.00     0.001 C 
HETATM    4  C4  UNL     1      24.182   3.000  50.222  1.00  0.00     0.113 C 
HETATM    5  N1  UNL     1      24.951   2.222  51.120  1.00  0.00    -0.355 N 
HETATM    6  C5  UNL     1      24.781   1.584  52.596  1.00  0.00     0.441 A 
HETATM    7  N2  UNL     1      25.869   2.252  53.027  1.00  0.00     0.232 N 
HETATM    8  C6  UNL     1      26.501   1.982  54.167  1.00  0.00     0.538 A 
HETATM    9  N3  UNL     1      25.714   2.119  53.017  1.00  0.00     0.232 N 
HETATM   10  C7  UNL     1      24.695   1.298  52.889  1.00  0.00     0.414 A 
HETATM   11  C8  UNL     1      23.200   1.670  52.478  1.00  0.00     0.085 A 
HETATM   12  C9  UNL     1      22.038   0.894  52.717  1.00  0.00     0.019 A 
HETATM   13  C10 UNL     1      21.944  -0.335  53.334  1.00  0.00     0.030 A 
HETATM   14  N4  UNL     1      21.175  -1.323  53.772  1.00  0.00    -0.310 N 
HETATM   15  C11 UNL     1      19.834  -0.963  53.556  1.00  0.00     0.318 C 
HETATM   16  N5  UNL     1      18.809  -1.857  53.945  1.00  0.00    -0.352 N 
HETATM   17  O1  UNL     1      19.157  -0.021  53.087  1.00  0.00    -0.247 OA
HETATM   18  C12 UNL     1      23.254  -0.480  53.577  1.00  0.00     0.024 A 
HETATM   19  C13 UNL     1      24.030   0.461  53.215  1.00  0.00     0.149 A 
HETATM   20  C14 UNL     1      22.290   2.694  51.674  1.00  0.00     0.086 C 
HETATM   21 BR1  UNL     1      22.404   4.490  52.235  1.00  0.00    -0.089 Br
HETATM   22  C15 UNL     1      22.736   2.402  50.293  1.00  0.00     0.056 C 
HETATM   23  H6  UNL     1      25.855   2.095  50.516  1.00  0.00     0.158 HD
HETATM   24  H9  UNL     1      21.405  -2.228  54.202  1.00  0.00     0.170 HD
HETATM   25  H10 UNL     1      18.053  -1.740  54.653  1.00  0.00     0.160 HD
HETATM   26  H11 UNL     1      18.484  -2.838  53.692  1.00  0.00     0.160 HD
ENDROOT
TORSDOF 1
ENDMDL
MODEL 5
REMARK VINA RESULT:      -8.1      3.463      5.305
REMARK  1 active torsions:
REMARK  status: ('A' for Active; 'I' for Inactive)
REMARK    1  A    between atoms: C5_6  and  N3_9 
REMARK       I    between atoms: N4_14  and  C11_15 
REMARK       I    between atoms: C11_15  and  N5_16 
ROOT
HETATM    1  C1  UNL     1      20.916   0.115  51.105  1.00  0.00     0.043 C 
HETATM    2  C2  UNL     1      21.511   1.257  50.384  1.00  0.00    -0.078 C 
HETATM    3  C3  UNL     1      21.473   1.870  49.208  1.00  0.00     0.001 C 
HETATM    4  C4  UNL     1      22.361   2.844  49.548  1.00  0.00     0.113 C 
HETATM    5  N1  UNL     1      23.629   3.273  49.084  1.00  0.00    -0.355 N 
HETATM    6  C5  UNL     1      25.037   3.746  49.721  1.00  0.00     0.441 A 
HETATM    7  N2  UNL     1      24.956   4.922  49.069  1.00  0.00     0.232 N 
HETATM    8  C6  UNL     1      25.977   5.764  48.929  1.00  0.00     0.538 A 
HETATM    9  N3  UNL     1      25.029   4.764  49.175  1.00  0.00     0.232 N 
HETATM   10  C7  UNL     1      25.430   3.717  49.862  1.00  0.00     0.414 A 
HETATM   11  C8  UNL     1      24.687   3.026  51.093  1.00  0.00     0.085 A 
HETATM   12  C9  UNL     1      25.270   2.180  52.068  1.00  0.00     0.019 A 
HETATM   13  C10 UNL     1      26.581   1.764  52.164  1.00  0.00     0.030 A 
HETATM   14  N4  UNL     1      27.505   1.086  52.831  1.00  0.00    -0.310 N 
HETATM   15  C11 UNL     1      26.917   0.581  54.002  1.00  0.00     0.318 C 
HETATM   16  N5  UNL     1      27.705  -0.182  54.896  1.00  0.00    -0.352 N 
HETATM   17  O1  UNL     1      25.816   0.570  54.596  1.00  0.00    -0.247 OA
HETATM   18  C12 UNL     1      27.021   2.408  51.073  1.00  0.00     0.024 A 
HETATM   19  C13 UNL     1      26.182   3.108  50.422  1.00  0.00     0.149 A 
HETATM   20  C14 UNL     1      23.277   2.749  51.769  1.00  0.00     0.086 C 
HETATM   21 BR1  UNL     1      22.299   4.285  52.259  1.00  0.00    -0.089 Br
HETATM   22  C15 UNL     1      22.666   1.877  50.740  1.00  0.00     0.056 C 
HETATM   23  H6  UNL     1      23.455   3.206  48.005  1.00  0.00     0.158 HD
HETATM   24  H9  UNL     1      28.494   0.897  52.626  1.00  0.00     0.170 HD
HETATM   25  H10 UNL     1      27.973   0.011  55.884  1.00  0.00     0.160 HD
HETATM   26  H11 UNL     1      28.238  -1.103  54.883  1.00  0.00     0.160 HD
ENDROOT
TORSDOF 1
ENDMDL
MODEL 6
REMARK VINA RESULT:      -8.0      3.017      4.786
REMARK  1 active torsions:
REMARK  status: ('A' for Active; 'I' for Inactive)
REMARK    1  A    between atoms: C5_6  and  N3_9 
REMARK       I    between atoms: N4_14  and  C11_15 
REMARK       I    between atoms: C11_15  and  N5_16 
ROOT
HETATM    1  C1  UNL     1      17.954   2.828  51.227  1.00  0.00     0.043 C 
HETATM    2  C2  UNL     1      18.950   1.827  51.660  1.00  0.00    -0.078 C 
HETATM    3  C3  UNL     1      19.053   0.714  52.374  1.00  0.00     0.001 C 
HETATM    4  C4  UNL     1      20.381   0.537  52.135  1.00  0.00     0.113 C 
HETATM    5  N1  UNL     1      21.557   0.468  52.922  1.00  0.00    -0.355 N 
HETATM    6  C5  UNL     1      23.072   1.029  52.859  1.00  0.00     0.441 A 
HETATM    7  N2  UNL     1      23.556  -0.227  52.920  1.00  0.00     0.232 N 
HETATM    8  C6  UNL     1      24.828  -0.518  53.181  1.00  0.00     0.538 A 
HETATM    9  N3  UNL     1      23.544  -0.023  52.925  1.00  0.00     0.232 N 
HETATM   10  C7  UNL     1      23.395   1.283  52.931  1.00  0.00     0.414 A 
HETATM   11  C8  UNL     1      22.632   2.175  51.851  1.00  0.00     0.085 A 
HETATM   12  C9  UNL     1      22.796   3.565  51.631  1.00  0.00     0.019 A 
HETATM   13  C10 UNL     1      23.628   4.442  52.294  1.00  0.00     0.030 A 
HETATM   14  N4  UNL     1      24.105   5.673  52.415  1.00  0.00    -0.310 N 
HETATM   15  C11 UNL     1      23.560   6.457  51.384  1.00  0.00     0.318 C 
HETATM   16  N5  UNL     1      23.922   7.822  51.291  1.00  0.00    -0.352 N 
HETATM   17  O1  UNL     1      22.780   6.356  50.411  1.00  0.00    -0.247 OA
HETATM   18  C12 UNL     1      24.148   3.542  53.141  1.00  0.00     0.024 A 
HETATM   19  C13 UNL     1      23.754   2.337  53.037  1.00  0.00     0.149 A 
HETATM   20  C14 UNL     1      21.467   2.193  50.771  1.00  0.00     0.086 C 
HETATM   21 BR1  UNL     1      21.648   0.947  49.368  1.00  0.00    -0.089 Br
HETATM   22  C15 UNL     1      20.293   2.025  51.658  1.00  0.00     0.056 C 
HETATM   23  H6  UNL     1      21.182  -0.146  53.748  1.00  0.00     0.158 HD
HETATM   24  H9  UNL     1      24.753   6.090  53.095  1.00  0.00     0.170 HD
HETATM   25  H10 UNL     1      24.427   8.330  50.535  1.00  0.00     0.160 HD
HETATM   26  H11 UNL     1      23.823   8.703  51.881  1.00  0.00     0.160 HD
ENDROOT
TORSDOF 1
ENDMDL
MODEL 7
REMARK VINA RESULT:      -7.7     10.630     13.757
REMARK  1 active torsions:
REMARK  status: ('A' for Active; 'I' for Inactive)
REMARK    1  A    between atoms: C5_6  and  N3_9 
REMARK       I    between atoms: N4_14  and  C11_15 
REMARK       I    between atoms: C11_15  and  N5_16 
ROOT
HETATM    1  C1  UNL     1      31.928   1.833  46.706  1.00  0.00     0.043 C 
HETATM    2  C2  UNL     1      33.024   2.790  46.957  1.00  0.00    -0.078 C 
HETATM    3  C3  UNL     1      34.290   2.832  47.352  1.00  0.00     0.001 C 
HETATM    4  C4  UNL     1      34.416   4.181  47.219  1.00  0.00     0.113 C 
HETATM    5  N1  UNL     1      34.713   5.266  48.080  1.00  0.00    -0.355 N 
HETATM    6  C5  UNL     1      34.179   6.770  48.334  1.00  0.00     0.441 A 
HETATM    7  N2  UNL     1      35.412   7.263  48.106  1.00  0.00     0.232 N 
HETATM    8  C6  UNL     1      35.782   8.504  48.414  1.00  0.00     0.538 A 
HETATM    9  N3  UNL     1      35.216   7.248  48.164  1.00  0.00     0.232 N 
HETATM   10  C7  UNL     1      33.958   7.081  48.506  1.00  0.00     0.414 A 
HETATM   11  C8  UNL     1      32.797   6.425  47.631  1.00  0.00     0.085 A 
HETATM   12  C9  UNL     1      31.401   6.592  47.813  1.00  0.00     0.019 A 
HETATM   13  C10 UNL     1      30.749   7.335  48.773  1.00  0.00     0.030 A 
HETATM   14  N4  UNL     1      29.603   7.779  49.273  1.00  0.00    -0.310 N 
HETATM   15  C11 UNL     1      28.562   7.337  48.439  1.00  0.00     0.318 C 
HETATM   16  N5  UNL     1      27.228   7.686  48.757  1.00  0.00    -0.352 N 
HETATM   17  O1  UNL     1      28.385   6.668  47.397  1.00  0.00    -0.247 OA
HETATM   18  C12 UNL     1      31.852   7.774  49.397  1.00  0.00     0.024 A 
HETATM   19  C13 UNL     1      32.978   7.411  48.931  1.00  0.00     0.149 A 
HETATM   20  C14 UNL     1      32.471   5.384  46.477  1.00  0.00     0.086 C 
HETATM   21 BR1  UNL     1      33.294   5.732  44.817  1.00  0.00    -0.089 Br
HETATM   22  C15 UNL     1      32.853   4.123  47.154  1.00  0.00     0.056 C 
HETATM   23  H6  UNL     1      35.521   4.812  48.664  1.00  0.00     0.158 HD
HETATM   24  H9  UNL     1      29.395   8.343  50.106  1.00  0.00     0.170 HD
HETATM   25  H10 UNL     1      26.543   8.263  48.225  1.00  0.00     0.160 HD
HETATM   26  H11 UNL     1      26.538   7.512  49.548  1.00  0.00     0.160 HD
ENDROOT
TORSDOF 1
ENDMDL
MODEL 8
REMARK VINA RESULT:      -7.6      6.714      9.443
REMARK  1 active torsions:
REMARK  status: ('A' for Active; 'I' for Inactive)
REMARK    1  A    between atoms: C5_6  and  N3_9 
REMARK       I    between atoms: N4_14  and  C11_15 
REMARK       I    between atoms: C11_15  and  N5_16 
ROOT
HETATM    1  C1  UNL     1      23.925   9.227  46.628  1.00  0.00     0.043 C 
HETATM    2  C2  UNL     1      25.370   8.932  46.715  1.00  0.00    -0.078 C 
HETATM    3  C3  UNL     1      26.495   9.065  46.025  1.00  0.00     0.001 C 
HETATM    4  C4  UNL     1      27.292   8.510  46.979  1.00  0.00     0.113 C 
HETATM    5  N1  UNL     1      28.151   7.387  47.062  1.00  0.00    -0.355 N 
HETATM    6  C5  UNL     1      28.483   6.212  48.121  1.00  0.00     0.441 A 
HETATM    7  N2  UNL     1      29.779   6.579  48.145  1.00  0.00     0.232 N 
HETATM    8  C6  UNL     1      30.752   5.828  48.656  1.00  0.00     0.538 A 
HETATM    9  N3  UNL     1      29.608   6.471  48.170  1.00  0.00     0.232 N 
HETATM   10  C7  UNL     1      28.464   5.837  48.305  1.00  0.00     0.414 A 
HETATM   11  C8  UNL     1      27.086   6.433  48.843  1.00  0.00     0.085 A 
HETATM   12  C9  UNL     1      25.988   5.699  49.358  1.00  0.00     0.019 A 
HETATM   13  C10 UNL     1      25.865   4.334  49.497  1.00  0.00     0.030 A 
HETATM   14  N4  UNL     1      25.140   3.301  49.907  1.00  0.00    -0.310 N 
HETATM   15  C11 UNL     1      23.978   3.797  50.519  1.00  0.00     0.318 C 
HETATM   16  N5  UNL     1      23.034   2.885  51.049  1.00  0.00    -0.352 N 
HETATM   17  O1  UNL     1      23.426   4.887  50.789  1.00  0.00    -0.247 OA
HETATM   18  C12 UNL     1      27.068   4.023  48.992  1.00  0.00     0.024 A 
HETATM   19  C13 UNL     1      27.818   4.981  48.624  1.00  0.00     0.149 A 
HETATM   20  C14 UNL     1      26.208   7.749  48.987  1.00  0.00     0.086 C 
HETATM   21 BR1  UNL     1      27.003   9.148  49.970  1.00  0.00    -0.089 Br
HETATM   22  C15 UNL     1      25.921   8.023  47.560  1.00  0.00     0.056 C 
HETATM   23  H6  UNL     1      28.639   7.465  46.085  1.00  0.00     0.158 HD
HETATM   24  H9  UNL     1      25.298   2.287  49.840  1.00  0.00     0.170 HD
HETATM   25  H10 UNL     1      22.717   2.747  52.031  1.00  0.00     0.160 HD
HETATM   26  H11 UNL     1      22.396   2.115  50.685  1.00  0.00     0.160 HD
ENDROOT
TORSDOF 1
ENDMDL
MODEL 9
REMARK VINA RESULT:      -7.6      3.061      4.594
REMARK  1 active torsions:
REMARK  status: ('A' for Active; 'I' for Inactive)
REMARK    1  A    between atoms: C5_6  and  N3_9 
REMARK       I    between atoms: N4_14  and  C11_15 
REMARK       I    between atoms: C11_15  and  N5_16 
ROOT
HETATM    1  C1  UNL     1      18.730   0.526  50.201  1.00  0.00     0.043 C 
HETATM    2  C2  UNL     1      19.860   1.393  49.809  1.00  0.00    -0.078 C 
HETATM    3  C3  UNL     1      20.410   1.954  48.741  1.00  0.00     0.001 C 
HETATM    4  C4  UNL     1      21.396   2.593  49.430  1.00  0.00     0.113 C 
HETATM    5  N1  UNL     1      22.812   2.572  49.436  1.00  0.00    -0.355 N 
HETATM    6  C5  UNL     1      24.002   2.575  50.530  1.00  0.00     0.441 A 
HETATM    7  N2  UNL     1      24.518   3.695  49.990  1.00  0.00     0.232 N 
HETATM    8  C6  UNL     1      25.738   4.153  50.257  1.00  0.00     0.538 A 
HETATM    9  N3  UNL     1      24.497   3.525  50.100  1.00  0.00     0.232 N 
HETATM   10  C7  UNL     1      24.295   2.422  50.787  1.00  0.00     0.414 A 
HETATM   11  C8  UNL     1      23.007   2.044  51.650  1.00  0.00     0.085 A 
HETATM   12  C9  UNL     1      22.935   1.079  52.685  1.00  0.00     0.019 A 
HETATM   13  C10 UNL     1      23.937   0.261  53.160  1.00  0.00     0.030 A 
HETATM   14  N4  UNL     1      24.322  -0.665  54.029  1.00  0.00    -0.310 N 
HETATM   15  C11 UNL     1      23.252  -0.920  54.901  1.00  0.00     0.318 C 
HETATM   16  N5  UNL     1      23.414  -1.876  55.932  1.00  0.00    -0.352 N 
HETATM   17  O1  UNL     1      22.073  -0.555  55.107  1.00  0.00    -0.247 OA
HETATM   18  C12 UNL     1      24.894   0.697  52.329  1.00  0.00     0.024 A 
HETATM   19  C13 UNL     1      24.585   1.615  51.505  1.00  0.00     0.149 A 
HETATM   20  C14 UNL     1      21.443   2.261  51.811  1.00  0.00     0.086 C 
HETATM   21 BR1  UNL     1      20.898   4.044  52.090  1.00  0.00    -0.089 Br
HETATM   22  C15 UNL     1      20.965   1.610  50.570  1.00  0.00     0.056 C 
HETATM   23  H6  UNL     1      22.993   2.537  48.357  1.00  0.00     0.158 HD
HETATM   24  H9  UNL     1      25.210  -1.172  54.136  1.00  0.00     0.170 HD
HETATM   25  H10 UNL     1      23.386  -1.755  56.966  1.00  0.00     0.160 HD
HETATM   26  H11 UNL     1      23.601  -2.920  56.013  1.00  0.00     0.160 HD
ENDROOT
TORSDOF 1
ENDMDL
