MODEL 1
REMARK VINA RESULT:      -9.0      0.000      0.000
REMARK  4 active torsions:
REMARK  status: ('A' for Active; 'I' for Inactive)
REMARK    1  A    between atoms: C8_10  and  N3_11 
REMARK    2  A    between atoms: C9_13  and  N5_14 
REMARK    3  A    between atoms: N5_14  and  C10_15 
REMARK    4  A    between atoms: C11_16  and  C12_17 
ROOT
HETATM    1  C1  UNL     1      19.628  -0.142  52.353  1.00  0.00     0.014 C 
HETATM    2  C2  UNL     1      20.786   0.658  52.961  1.00  0.00     0.008 C 
HETATM    3  C3  UNL     1      20.768   0.372  54.398  1.00  0.00    -0.025 C 
HETATM    4  C4  UNL     1      21.731  -0.312  54.964  1.00  0.00    -0.020 C 
HETATM    5  C5  UNL     1      22.928  -0.861  54.215  1.00  0.00     0.054 C 
HETATM    6  C6  UNL     1      23.907  -1.306  55.179  1.00  0.00     0.134 C 
HETATM    7  N1  UNL     1      25.301  -1.058  55.002  1.00  0.00    -0.373 N 
HETATM    8  C7  UNL     1      26.014   0.063  54.471  1.00  0.00     0.157 A 
HETATM    9  N2  UNL     1      27.252   0.221  55.009  1.00  0.00    -0.045 NA
HETATM   10  C8  UNL     1      27.965   1.261  54.548  1.00  0.00     0.724 A 
HETATM   11  N4  UNL     1      27.531   2.122  53.616  1.00  0.00    -0.044 NA
HETATM   12  C9  UNL     1      26.297   2.004  53.047  1.00  0.00     0.160 A 
HETATM   13  C14 UNL     1      25.538   0.933  53.508  1.00  0.00     0.057 A 
HETATM   14  C15 UNL     1      24.238   0.932  52.819  1.00  0.00     0.022 C 
HETATM   15  C16 UNL     1      23.224   0.137  53.207  1.00  0.00    -0.069 C 
HETATM   16  C17 UNL     1      22.079   0.419  52.267  1.00  0.00     0.043 C 
HETATM   17  H10 UNL     1      25.984  -1.822  55.312  1.00  0.00     0.161 HD
ENDROOT
BRANCH  12  18
HETATM   18  N5  UNL     1      25.765   2.876  52.061  1.00  0.00    -0.350 N 
HETATM   19  H13 UNL     1      24.942   3.502  52.033  1.00  0.00     0.166 HD
BRANCH  18  20
HETATM   20  C10 UNL     1      26.647   2.745  50.961  1.00  0.00     0.089 C 
HETATM   21  C11 UNL     1      26.270   3.412  49.876  1.00  0.00     0.016 C 
BRANCH  21  22
HETATM   22  C12 UNL     1      25.069   4.229  49.740  1.00  0.00     0.013 C 
HETATM   23  C13 UNL     1      23.836   4.115  49.272  1.00  0.00     0.441 C 
HETATM   24  F1  UNL     1      24.150   2.844  48.938  1.00  0.00    -0.452 F 
ENDBRANCH  21  22
ENDBRANCH  18  20
ENDBRANCH  12  18
BRANCH  10  25
HETATM   25  N3  UNL     1      29.275   1.584  54.988  1.00  0.00    -0.231 N 
HETATM   26  H11 UNL     1      30.257   1.185  54.964  1.00  0.00     0.174 HD
HETATM   27  H12 UNL     1      29.068   2.504  55.455  1.00  0.00     0.174 HD
ENDBRANCH  10  25
TORSDOF 4
ENDMDL
MODEL 2
REMARK VINA RESULT:      -8.5      2.292      5.012
REMARK  4 active torsions:
REMARK  status: ('A' for Active; 'I' for Inactive)
REMARK    1  A    between atoms: C8_10  and  N3_11 
REMARK    2  A    between atoms: C9_13  and  N5_14 
REMARK    3  A    between atoms: N5_14  and  C10_15 
REMARK    4  A    between atoms: C11_16  and  C12_17 
ROOT
HETATM    1  C1  UNL     1      20.110   2.295  48.540  1.00  0.00     0.014 C 
HETATM    2  C2  UNL     1      21.351   1.572  49.077  1.00  0.00     0.008 C 
HETATM    3  C3  UNL     1      22.491   2.112  48.331  1.00  0.00    -0.025 C 
HETATM    4  C4  UNL     1      23.400   2.847  48.922  1.00  0.00    -0.020 C 
HETATM    5  C5  UNL     1      23.368   3.204  50.395  1.00  0.00     0.054 C 
HETATM    6  C6  UNL     1      24.644   3.775  50.755  1.00  0.00     0.134 C 
HETATM    7  N1  UNL     1      25.296   3.444  51.981  1.00  0.00    -0.373 N 
HETATM    8  C7  UNL     1      25.393   2.219  52.712  1.00  0.00     0.157 A 
HETATM    9  N2  UNL     1      26.537   2.110  53.437  1.00  0.00    -0.045 NA
HETATM   10  C8  UNL     1      26.681   0.976  54.141  1.00  0.00     0.724 A 
HETATM   11  N4  UNL     1      25.784  -0.020  54.164  1.00  0.00    -0.044 NA
HETATM   12  C9  UNL     1      24.621   0.044  53.454  1.00  0.00     0.160 A 
HETATM   13  C14 UNL     1      24.448   1.210  52.715  1.00  0.00     0.057 A 
HETATM   14  C15 UNL     1      23.165   1.139  51.999  1.00  0.00     0.022 C 
HETATM   15  C16 UNL     1      22.827   2.030  51.049  1.00  0.00    -0.069 C 
HETATM   16  C17 UNL     1      21.457   1.631  50.558  1.00  0.00     0.043 C 
HETATM   17  H10 UNL     1      25.828   4.223  52.486  1.00  0.00     0.161 HD
ENDROOT
BRANCH  12  18
HETATM   18  N5  UNL     1      23.627  -0.969  53.422  1.00  0.00    -0.350 N 
HETATM   19  H13 UNL     1      23.208  -1.533  52.663  1.00  0.00     0.166 HD
BRANCH  18  20
HETATM   20  C10 UNL     1      23.230  -1.116  54.774  1.00  0.00     0.089 C 
HETATM   21  C11 UNL     1      21.915  -1.149  54.955  1.00  0.00     0.016 C 
BRANCH  21  22
HETATM   22  C12 UNL     1      20.897  -1.047  53.915  1.00  0.00     0.013 C 
HETATM   23  C13 UNL     1      19.995  -0.176  53.489  1.00  0.00     0.441 C 
HETATM   24  F1  UNL     1      20.417   0.645  54.475  1.00  0.00    -0.452 F 
ENDBRANCH  21  22
ENDBRANCH  18  20
ENDBRANCH  12  18
BRANCH  10  25
HETATM   25  N3  UNL     1      27.806   0.686  54.957  1.00  0.00    -0.231 N 
HETATM   26  H11 UNL     1      28.635   0.026  54.986  1.00  0.00     0.174 HD
HETATM   27  H12 UNL     1      27.649   1.404  55.711  1.00  0.00     0.174 HD
ENDBRANCH  10  25
TORSDOF 4
ENDMDL
MODEL 3
REMARK VINA RESULT:      -8.3      2.654      5.104
REMARK  4 active torsions:
REMARK  status: ('A' for Active; 'I' for Inactive)
REMARK    1  A    between atoms: C8_10  and  N3_11 
REMARK    2  A    between atoms: C9_13  and  N5_14 
REMARK    3  A    between atoms: N5_14  and  C10_15 
REMARK    4  A    between atoms: C11_16  and  C12_17 
ROOT
HETATM    1  C1  UNL     1      28.833   0.265  54.032  1.00  0.00     0.014 C 
HETATM    2  C2  UNL     1      27.769   0.800  53.066  1.00  0.00     0.008 C 
HETATM    3  C3  UNL     1      27.144  -0.378  52.457  1.00  0.00    -0.025 C 
HETATM    4  C4  UNL     1      25.898  -0.690  52.711  1.00  0.00    -0.020 C 
HETATM    5  C5  UNL     1      24.999   0.109  53.633  1.00  0.00     0.054 C 
HETATM    6  C6  UNL     1      23.642  -0.351  53.461  1.00  0.00     0.134 C 
HETATM    7  N1  UNL     1      22.542   0.558  53.409  1.00  0.00    -0.373 N 
HETATM    8  C7  UNL     1      22.404   1.860  52.835  1.00  0.00     0.157 A 
HETATM    9  N2  UNL     1      21.137   2.142  52.432  1.00  0.00    -0.045 NA
HETATM   10  C8  UNL     1      20.951   3.353  51.882  1.00  0.00     0.724 A 
HETATM   11  N4  UNL     1      21.919   4.265  51.716  1.00  0.00    -0.044 NA
HETATM   12  C9  UNL     1      23.204   4.028  52.105  1.00  0.00     0.160 A 
HETATM   13  C14 UNL     1      23.423   2.780  52.678  1.00  0.00     0.057 A 
HETATM   14  C15 UNL     1      24.845   2.660  53.040  1.00  0.00     0.022 C 
HETATM   15  C16 UNL     1      25.387   1.489  53.424  1.00  0.00    -0.069 C 
HETATM   16  C17 UNL     1      26.842   1.768  53.708  1.00  0.00     0.043 C 
HETATM   17  H10 UNL     1      21.625   0.253  53.869  1.00  0.00     0.161 HD
ENDROOT
BRANCH  12  18
HETATM   18  N5  UNL     1      24.283   4.939  51.957  1.00  0.00    -0.350 N 
HETATM   19  H13 UNL     1      25.103   5.174  52.543  1.00  0.00     0.166 HD
BRANCH  18  20
HETATM   20  C10 UNL     1      24.040   5.576  50.716  1.00  0.00     0.089 C 
HETATM   21  C11 UNL     1      24.930   5.290  49.772  1.00  0.00     0.016 C 
BRANCH  21  22
HETATM   22  C12 UNL     1      26.086   4.411  49.914  1.00  0.00     0.013 C 
HETATM   23  C13 UNL     1      26.415   3.154  49.663  1.00  0.00     0.441 C 
HETATM   24  F1  UNL     1      25.161   2.987  49.190  1.00  0.00    -0.452 F 
ENDBRANCH  21  22
ENDBRANCH  18  20
ENDBRANCH  12  18
BRANCH  10  25
HETATM   25  N3  UNL     1      19.699   3.825  51.406  1.00  0.00    -0.231 N 
HETATM   26  H11 UNL     1      19.222   4.737  51.154  1.00  0.00     0.174 HD
HETATM   27  H12 UNL     1      19.200   2.902  51.320  1.00  0.00     0.174 HD
ENDBRANCH  10  25
TORSDOF 4
ENDMDL
MODEL 4
REMARK VINA RESULT:      -8.3      2.924      5.537
REMARK  4 active torsions:
REMARK  status: ('A' for Active; 'I' for Inactive)
REMARK    1  A    between atoms: C8_10  and  N3_11 
REMARK    2  A    between atoms: C9_13  and  N5_14 
REMARK    3  A    between atoms: N5_14  and  C10_15 
REMARK    4  A    between atoms: C11_16  and  C12_17 
ROOT
HETATM    1  C1  UNL     1      27.895   2.100  52.693  1.00  0.00     0.014 C 
HETATM    2  C2  UNL     1      26.636   1.333  52.271  1.00  0.00     0.008 C 
HETATM    3  C3  UNL     1      26.931  -0.086  52.492  1.00  0.00    -0.025 C 
HETATM    4  C4  UNL     1      26.309  -0.769  53.420  1.00  0.00    -0.020 C 
HETATM    5  C5  UNL     1      25.253  -0.182  54.335  1.00  0.00     0.054 C 
HETATM    6  C6  UNL     1      24.595  -1.264  55.029  1.00  0.00     0.134 C 
HETATM    7  N1  UNL     1      23.182  -1.279  55.227  1.00  0.00    -0.373 N 
HETATM    8  C7  UNL     1      22.095  -0.861  54.397  1.00  0.00     0.157 A 
HETATM    9  N2  UNL     1      20.950  -1.563  54.610  1.00  0.00    -0.045 NA
HETATM   10  C8  UNL     1      19.897  -1.213  53.855  1.00  0.00     0.724 A 
HETATM   11  N4  UNL     1      19.917  -0.240  52.932  1.00  0.00    -0.044 NA
HETATM   12  C9  UNL     1      21.041   0.491  52.683  1.00  0.00     0.160 A 
HETATM   13  C14 UNL     1      22.147   0.148  53.454  1.00  0.00     0.057 A 
HETATM   14  C15 UNL     1      23.281   1.006  53.076  1.00  0.00     0.022 C 
HETATM   15  C16 UNL     1      24.533   0.766  53.508  1.00  0.00    -0.069 C 
HETATM   16  C17 UNL     1      25.402   1.849  52.917  1.00  0.00     0.043 C 
HETATM   17  H10 UNL     1      22.816  -1.669  56.154  1.00  0.00     0.161 HD
ENDROOT
BRANCH  12  18
HETATM   18  N5  UNL     1      21.143   1.530  51.721  1.00  0.00    -0.350 N 
HETATM   19  H13 UNL     1      21.674   1.635  50.839  1.00  0.00     0.166 HD
BRANCH  18  20
HETATM   20  C10 UNL     1      20.295   2.552  52.214  1.00  0.00     0.089 C 
HETATM   21  C11 UNL     1      20.752   3.783  52.015  1.00  0.00     0.016 C 
BRANCH  21  22
HETATM   22  C12 UNL     1      22.004   4.144  51.358  1.00  0.00     0.013 C 
HETATM   23  C13 UNL     1      23.201   4.603  51.686  1.00  0.00     0.441 C 
HETATM   24  F1  UNL     1      22.776   4.611  52.968  1.00  0.00    -0.452 F 
ENDBRANCH  21  22
ENDBRANCH  18  20
ENDBRANCH  12  18
BRANCH  10  25
HETATM   25  N3  UNL     1      18.621  -1.829  53.938  1.00  0.00    -0.231 N 
HETATM   26  H11 UNL     1      17.682  -1.684  54.408  1.00  0.00     0.174 HD
HETATM   27  H12 UNL     1      18.796  -2.651  53.304  1.00  0.00     0.174 HD
ENDBRANCH  10  25
TORSDOF 4
ENDMDL
MODEL 5
REMARK VINA RESULT:      -7.9      2.829      6.442
REMARK  4 active torsions:
REMARK  status: ('A' for Active; 'I' for Inactive)
REMARK    1  A    between atoms: C8_10  and  N3_11 
REMARK    2  A    between atoms: C9_13  and  N5_14 
REMARK    3  A    between atoms: N5_14  and  C10_15 
REMARK    4  A    between atoms: C11_16  and  C12_17 
ROOT
HETATM    1  C1  UNL     1      27.341   5.063  48.583  1.00  0.00     0.014 C 
HETATM    2  C2  UNL     1      26.377   4.720  49.725  1.00  0.00     0.008 C 
HETATM    3  C3  UNL     1      25.142   5.459  49.451  1.00  0.00    -0.025 C 
HETATM    4  C4  UNL     1      24.036   4.834  49.131  1.00  0.00    -0.020 C 
HETATM    5  C5  UNL     1      23.923   3.328  49.015  1.00  0.00     0.054 C 
HETATM    6  C6  UNL     1      22.524   2.979  48.926  1.00  0.00     0.134 C 
HETATM    7  N1  UNL     1      21.983   1.860  49.627  1.00  0.00    -0.373 N 
HETATM    8  C7  UNL     1      22.259   1.318  50.921  1.00  0.00     0.157 A 
HETATM    9  N2  UNL     1      21.191   0.696  51.487  1.00  0.00    -0.045 NA
HETATM   10  C8  UNL     1      21.394   0.170  52.705  1.00  0.00     0.724 A 
HETATM   11  N4  UNL     1      22.558   0.226  53.369  1.00  0.00    -0.044 NA
HETATM   12  C9  UNL     1      23.657   0.839  52.843  1.00  0.00     0.160 A 
HETATM   13  C14 UNL     1      23.472   1.392  51.580  1.00  0.00     0.057 A 
HETATM   14  C15 UNL     1      24.728   2.021  51.142  1.00  0.00     0.022 C 
HETATM   15  C16 UNL     1      24.790   2.809  50.053  1.00  0.00    -0.069 C 
HETATM   16  C17 UNL     1      26.226   3.256  49.933  1.00  0.00     0.043 C 
HETATM   17  H10 UNL     1      21.223   1.288  49.137  1.00  0.00     0.161 HD
ENDROOT
BRANCH  12  18
HETATM   18  N5  UNL     1      24.919   0.945  53.485  1.00  0.00    -0.350 N 
HETATM   19  H13 UNL     1      25.502   1.745  53.783  1.00  0.00     0.166 HD
BRANCH  18  20
HETATM   20  C10 UNL     1      25.327  -0.397  53.683  1.00  0.00     0.089 C 
HETATM   21  C11 UNL     1      26.619  -0.613  53.463  1.00  0.00     0.016 C 
BRANCH  21  22
HETATM   22  C12 UNL     1      27.602   0.383  53.049  1.00  0.00     0.013 C 
HETATM   23  C13 UNL     1      28.670   0.990  53.542  1.00  0.00     0.441 C 
HETATM   24  F1  UNL     1      28.477   0.273  54.670  1.00  0.00    -0.452 F 
ENDBRANCH  21  22
ENDBRANCH  18  20
ENDBRANCH  12  18
BRANCH  10  25
HETATM   25  N3  UNL     1      20.400  -0.517  53.449  1.00  0.00    -0.231 N 
HETATM   26  H11 UNL     1      19.916  -0.468  54.391  1.00  0.00     0.174 HD
HETATM   27  H12 UNL     1      20.159  -1.263  52.747  1.00  0.00     0.174 HD
ENDBRANCH  10  25
TORSDOF 4
ENDMDL
MODEL 6
REMARK VINA RESULT:      -7.7      2.750      5.250
REMARK  4 active torsions:
REMARK  status: ('A' for Active; 'I' for Inactive)
REMARK    1  A    between atoms: C8_10  and  N3_11 
REMARK    2  A    between atoms: C9_13  and  N5_14 
REMARK    3  A    between atoms: N5_14  and  C10_15 
REMARK    4  A    between atoms: C11_16  and  C12_17 
ROOT
HETATM    1  C1  UNL     1      22.854   4.771  48.222  1.00  0.00     0.014 C 
HETATM    2  C2  UNL     1      23.279   4.292  49.616  1.00  0.00     0.008 C 
HETATM    3  C3  UNL     1      22.305   4.856  50.554  1.00  0.00    -0.025 C 
HETATM    4  C4  UNL     1      21.465   4.086  51.201  1.00  0.00    -0.020 C 
HETATM    5  C5  UNL     1      21.415   2.579  51.052  1.00  0.00     0.054 C 
HETATM    6  C6  UNL     1      20.581   2.042  52.100  1.00  0.00     0.134 C 
HETATM    7  N1  UNL     1      20.936   0.855  52.809  1.00  0.00    -0.373 N 
HETATM    8  C7  UNL     1      22.197   0.348  53.254  1.00  0.00     0.157 A 
HETATM    9  N2  UNL     1      22.107  -0.418  54.373  1.00  0.00    -0.045 NA
HETATM   10  C8  UNL     1      23.264  -0.919  54.837  1.00  0.00     0.724 A 
HETATM   11  N4  UNL     1      24.461  -0.707  54.271  1.00  0.00    -0.044 NA
HETATM   12  C9  UNL     1      24.601   0.054  53.148  1.00  0.00     0.160 A 
HETATM   13  C14 UNL     1      23.416   0.584  52.647  1.00  0.00     0.057 A 
HETATM   14  C15 UNL     1      23.716   1.383  51.448  1.00  0.00     0.022 C 
HETATM   15  C16 UNL     1      22.796   2.179  50.873  1.00  0.00    -0.069 C 
HETATM   16  C17 UNL     1      23.472   2.820  49.685  1.00  0.00     0.043 C 
HETATM   17  H10 UNL     1      20.146   0.187  53.084  1.00  0.00     0.161 HD
ENDROOT
BRANCH  12  18
HETATM   18  N5  UNL     1      25.831   0.329  52.496  1.00  0.00    -0.350 N 
HETATM   19  H13 UNL     1      26.232   1.175  52.058  1.00  0.00     0.166 HD
BRANCH  18  20
HETATM   20  C10 UNL     1      26.531  -0.902  52.530  1.00  0.00     0.089 C 
HETATM   21  C11 UNL     1      27.785  -0.805  52.956  1.00  0.00     0.016 C 
BRANCH  21  22
HETATM   22  C12 UNL     1      28.464   0.419  53.370  1.00  0.00     0.013 C 
HETATM   23  C13 UNL     1      29.052   0.913  54.448  1.00  0.00     0.441 C 
HETATM   24  F1  UNL     1      28.750  -0.248  55.067  1.00  0.00    -0.452 F 
ENDBRANCH  21  22
ENDBRANCH  18  20
ENDBRANCH  12  18
BRANCH  10  25
HETATM   25  N3  UNL     1      23.367  -1.741  55.989  1.00  0.00    -0.231 N 
HETATM   26  H11 UNL     1      22.955  -1.825  56.962  1.00  0.00     0.174 HD
HETATM   27  H12 UNL     1      24.093  -2.419  55.640  1.00  0.00     0.174 HD
ENDBRANCH  10  25
TORSDOF 4
ENDMDL
MODEL 7
REMARK VINA RESULT:      -7.7      2.041      5.075
REMARK  4 active torsions:
REMARK  status: ('A' for Active; 'I' for Inactive)
REMARK    1  A    between atoms: C8_10  and  N3_11 
REMARK    2  A    between atoms: C9_13  and  N5_14 
REMARK    3  A    between atoms: N5_14  and  C10_15 
REMARK    4  A    between atoms: C11_16  and  C12_17 
ROOT
HETATM    1  C1  UNL     1      21.858   6.192  50.376  1.00  0.00     0.014 C 
HETATM    2  C2  UNL     1      22.169   4.692  50.443  1.00  0.00     0.008 C 
HETATM    3  C3  UNL     1      22.886   4.370  49.205  1.00  0.00    -0.025 C 
HETATM    4  C4  UNL     1      24.149   4.023  49.226  1.00  0.00    -0.020 C 
HETATM    5  C5  UNL     1      24.976   3.922  50.492  1.00  0.00     0.054 C 
HETATM    6  C6  UNL     1      26.217   3.256  50.177  1.00  0.00     0.134 C 
HETATM    7  N1  UNL     1      26.783   2.274  51.044  1.00  0.00    -0.373 N 
HETATM    8  C7  UNL     1      26.189   1.254  51.852  1.00  0.00     0.157 A 
HETATM    9  N2  UNL     1      26.988   0.169  52.027  1.00  0.00    -0.045 NA
HETATM   10  C8  UNL     1      26.478  -0.822  52.777  1.00  0.00     0.724 A 
HETATM   11  N4  UNL     1      25.262  -0.795  53.341  1.00  0.00    -0.044 NA
HETATM   12  C9  UNL     1      24.425   0.272  53.193  1.00  0.00     0.160 A 
HETATM   13  C14 UNL     1      24.931   1.313  52.421  1.00  0.00     0.057 A 
HETATM   14  C15 UNL     1      23.926   2.385  52.341  1.00  0.00     0.022 C 
HETATM   15  C16 UNL     1      24.056   3.424  51.495  1.00  0.00    -0.069 C 
HETATM   16  C17 UNL     1      22.845   4.298  51.706  1.00  0.00     0.043 C 
HETATM   17  H10 UNL     1      27.849   2.253  51.141  1.00  0.00     0.161 HD
ENDROOT
BRANCH  12  18
HETATM   18  N5  UNL     1      23.124   0.373  53.752  1.00  0.00    -0.350 N 
HETATM   19  H13 UNL     1      22.706   0.975  54.482  1.00  0.00     0.166 HD
BRANCH  18  20
HETATM   20  C10 UNL     1      22.371  -0.616  53.073  1.00  0.00     0.089 C 
HETATM   21  C11 UNL     1      21.120  -0.260  52.804  1.00  0.00     0.016 C 
BRANCH  21  22
HETATM   22  C12 UNL     1      20.493   1.013  53.142  1.00  0.00     0.013 C 
HETATM   23  C13 UNL     1      20.131   2.134  52.539  1.00  0.00     0.441 C 
HETATM   24  F1  UNL     1      20.612   1.598  51.396  1.00  0.00    -0.452 F 
ENDBRANCH  21  22
ENDBRANCH  18  20
ENDBRANCH  12  18
BRANCH  10  25
HETATM   25  N3  UNL     1      27.164  -2.029  53.071  1.00  0.00    -0.231 N 
HETATM   26  H11 UNL     1      27.400  -2.643  53.903  1.00  0.00     0.174 HD
HETATM   27  H12 UNL     1      27.477  -2.279  52.098  1.00  0.00     0.174 HD
ENDBRANCH  10  25
TORSDOF 4
ENDMDL
MODEL 8
REMARK VINA RESULT:      -7.4      2.814      4.480
REMARK  4 active torsions:
REMARK  status: ('A' for Active; 'I' for Inactive)
REMARK    1  A    between atoms: C8_10  and  N3_11 
REMARK    2  A    between atoms: C9_13  and  N5_14 
REMARK    3  A    between atoms: N5_14  and  C10_15 
REMARK    4  A    between atoms: C11_16  and  C12_17 
ROOT
HETATM    1  C1  UNL     1      18.772   2.623  48.429  1.00  0.00     0.014 C 
HETATM    2  C2  UNL     1      19.582   2.599  49.731  1.00  0.00     0.008 C 
HETATM    3  C3  UNL     1      18.605   2.709  50.819  1.00  0.00    -0.025 C 
HETATM    4  C4  UNL     1      18.388   1.709  51.637  1.00  0.00    -0.020 C 
HETATM    5  C5  UNL     1      19.103   0.376  51.547  1.00  0.00     0.054 C 
HETATM    6  C6  UNL     1      18.829  -0.373  52.751  1.00  0.00     0.134 C 
HETATM    7  N1  UNL     1      19.846  -1.122  53.416  1.00  0.00    -0.373 N 
HETATM    8  C7  UNL     1      21.236  -0.867  53.630  1.00  0.00     0.157 A 
HETATM    9  N2  UNL     1      21.720  -1.429  54.770  1.00  0.00    -0.045 NA
HETATM   10  C8  UNL     1      23.022  -1.219  55.022  1.00  0.00     0.724 A 
HETATM   11  N4  UNL     1      23.840  -0.507  54.234  1.00  0.00    -0.044 NA
HETATM   12  C9  UNL     1      23.401   0.075  53.081  1.00  0.00     0.160 A 
HETATM   13  C14 UNL     1      22.055  -0.128  52.797  1.00  0.00     0.057 A 
HETATM   14  C15 UNL     1      21.720   0.557  51.539  1.00  0.00     0.022 C 
HETATM   15  C16 UNL     1      20.449   0.705  51.122  1.00  0.00    -0.069 C 
HETATM   16  C17 UNL     1      20.514   1.445  49.810  1.00  0.00     0.043 C 
HETATM   17  H10 UNL     1      19.565  -2.056  53.857  1.00  0.00     0.161 HD
ENDROOT
BRANCH  12  18
HETATM   18  N5  UNL     1      24.202   0.847  52.200  1.00  0.00    -0.350 N 
HETATM   19  H13 UNL     1      24.272   0.909  51.170  1.00  0.00     0.166 HD
BRANCH  18  20
HETATM   20  C10 UNL     1      25.013   1.632  53.056  1.00  0.00     0.089 C 
HETATM   21  C11 UNL     1      24.634   2.902  53.153  1.00  0.00     0.016 C 
BRANCH  21  22
HETATM   22  C12 UNL     1      23.500   3.519  52.474  1.00  0.00     0.013 C 
HETATM   23  C13 UNL     1      22.847   4.670  52.476  1.00  0.00     0.441 C 
HETATM   24  F1  UNL     1      23.707   5.083  53.433  1.00  0.00    -0.452 F 
ENDBRANCH  21  22
ENDBRANCH  18  20
ENDBRANCH  12  18
BRANCH  10  25
HETATM   25  N3  UNL     1      23.702  -1.727  56.159  1.00  0.00    -0.231 N 
HETATM   26  H11 UNL     1      23.937  -1.446  57.154  1.00  0.00     0.174 HD
HETATM   27  H12 UNL     1      24.011  -2.653  55.764  1.00  0.00     0.174 HD
ENDBRANCH  10  25
TORSDOF 4
ENDMDL
MODEL 9
REMARK VINA RESULT:      -7.3      2.985      5.868
REMARK  4 active torsions:
REMARK  status: ('A' for Active; 'I' for Inactive)
REMARK    1  A    between atoms: C8_10  and  N3_11 
REMARK    2  A    between atoms: C9_13  and  N5_14 
REMARK    3  A    between atoms: N5_14  and  C10_15 
REMARK    4  A    between atoms: C11_16  and  C12_17 
ROOT
HETATM    1  C1  UNL     1      19.028   3.053  48.938  1.00  0.00     0.014 C 
HETATM    2  C2  UNL     1      19.588   1.831  49.676  1.00  0.00     0.008 C 
HETATM    3  C3  UNL     1      20.737   1.373  48.891  1.00  0.00    -0.025 C 
HETATM    4  C4  UNL     1      21.957   1.467  49.359  1.00  0.00    -0.020 C 
HETATM    5  C5  UNL     1      22.297   2.042  50.719  1.00  0.00     0.054 C 
HETATM    6  C6  UNL     1      23.677   1.736  51.014  1.00  0.00     0.134 C 
HETATM    7  N1  UNL     1      24.091   1.314  52.313  1.00  0.00    -0.373 N 
HETATM    8  C7  UNL     1      23.469   0.475  53.290  1.00  0.00     0.157 A 
HETATM    9  N2  UNL     1      24.357  -0.188  54.077  1.00  0.00    -0.045 NA
HETATM   10  C8  UNL     1      23.826  -0.994  55.011  1.00  0.00     0.724 A 
HETATM   11  N4  UNL     1      22.511  -1.172  55.199  1.00  0.00    -0.044 NA
HETATM   12  C9  UNL     1      21.582  -0.529  54.434  1.00  0.00     0.160 A 
HETATM   13  C14 UNL     1      22.107   0.313  53.458  1.00  0.00     0.057 A 
HETATM   14  C15 UNL     1      21.000   0.930  52.710  1.00  0.00     0.022 C 
HETATM   15  C16 UNL     1      21.206   1.629  51.578  1.00  0.00    -0.069 C 
HETATM   16  C17 UNL     1      19.849   2.097  51.115  1.00  0.00     0.043 C 
HETATM   17  H10 UNL     1      25.039   1.662  52.668  1.00  0.00     0.161 HD
ENDROOT
BRANCH  12  18
HETATM   18  N5  UNL     1      20.176  -0.669  54.567  1.00  0.00    -0.350 N 
HETATM   19  H13 UNL     1      19.427  -0.045  54.913  1.00  0.00     0.166 HD
BRANCH  18  20
HETATM   20  C10 UNL     1      19.906  -1.976  54.094  1.00  0.00     0.089 C 
HETATM   21  C11 UNL     1      18.742  -2.100  53.466  1.00  0.00     0.016 C 
BRANCH  21  22
HETATM   22  C12 UNL     1      17.766  -1.039  53.241  1.00  0.00     0.013 C 
HETATM   23  C13 UNL     1      17.382  -0.234  52.263  1.00  0.00     0.441 C 
HETATM   24  F1  UNL     1      18.324  -0.822  51.495  1.00  0.00    -0.452 F 
ENDBRANCH  21  22
ENDBRANCH  18  20
ENDBRANCH  12  18
BRANCH  10  25
HETATM   25  N3  UNL     1      24.594  -1.763  55.925  1.00  0.00    -0.231 N 
HETATM   26  H11 UNL     1      25.129  -1.643  56.833  1.00  0.00     0.174 HD
HETATM   27  H12 UNL     1      24.531  -2.697  55.444  1.00  0.00     0.174 HD
ENDBRANCH  10  25
TORSDOF 4
ENDMDL
