MODEL 1
REMARK VINA RESULT:      -8.9      0.000      0.000
REMARK  6 active torsions:
REMARK  status: ('A' for Active; 'I' for Inactive)
REMARK    1  A    between atoms: C6_6  and  N1_7 
REMARK    2  A    between atoms: N1_7  and  C7_8 
REMARK    3  A    between atoms: N4_22  and  C17_23 
REMARK    4  A    between atoms: C17_23  and  C18_24 
REMARK    5  A    between atoms: C18_24  and  C19_25 
REMARK    6  A    between atoms: C19_25  and  N5_26 
ROOT
HETATM    1  C7  UNL     1      24.244   1.426  52.342  1.00  0.00     0.128 C 
HETATM    2  C8  UNL     1      24.111   2.891  52.746  1.00  0.00     0.115 C 
HETATM    3  N2  UNL     1      23.155   3.738  52.370  1.00  0.00    -0.263 NA
HETATM    4  C9  UNL     1      21.931   3.408  51.534  1.00  0.00     0.081 C 
HETATM    5  C10 UNL     1      21.903   3.231  50.212  1.00  0.00     0.099 C 
HETATM    6  C11 UNL     1      21.799   1.725  50.308  1.00  0.00     0.120 C 
HETATM    7  C12 UNL     1      21.785   1.392  51.649  1.00  0.00     0.043 C 
HETATM    8  C13 UNL     1      22.847   0.815  52.602  1.00  0.00     0.090 C 
HETATM    9  N3  UNL     1      20.420   1.695  52.220  1.00  0.00    -0.385 N 
HETATM   10  C14 UNL     1      20.626   3.171  52.323  1.00  0.00     0.181 C 
HETATM   11  O1  UNL     1      21.745   1.045  49.042  1.00  0.00    -0.338 OA
HETATM   12  C15 UNL     1      22.268   1.646  47.887  1.00  0.00     0.279 C 
HETATM   13  C16 UNL     1      21.848   3.059  47.716  1.00  0.00     0.248 C 
HETATM   14  O2  UNL     1      21.430   3.765  46.764  1.00  0.00    -0.271 OA
HETATM   15  N4  UNL     1      21.922   3.842  48.896  1.00  0.00    -0.312 N 
HETATM   16  H12 UNL     1      19.421   1.583  52.595  1.00  0.00     0.159 HD
ENDROOT
BRANCH   1  17
HETATM   17  N1  UNL     1      25.093   0.812  53.331  1.00  0.00    -0.380 N 
HETATM   18  H7  UNL     1      24.695   0.213  54.116  1.00  0.00     0.160 HD
BRANCH  17  19
HETATM   19  C6  UNL     1      26.524   0.897  53.422  1.00  0.00     0.029 A 
HETATM   20  C5  UNL     1      27.249   2.089  53.534  1.00  0.00     0.029 A 
HETATM   21  C4  UNL     1      28.623   2.050  53.604  1.00  0.00     0.003 A 
HETATM   22  C3  UNL     1      29.346   0.900  53.570  1.00  0.00     0.007 A 
HETATM   23  C2  UNL     1      28.660  -0.289  53.460  1.00  0.00    -0.060 A 
HETATM   24  C1  UNL     1      29.468  -1.534  53.425  1.00  0.00     0.048 C 
HETATM   25  C25 UNL     1      27.288  -0.251  53.391  1.00  0.00     0.036 A 
ENDBRANCH  17  19
ENDBRANCH   1  17
BRANCH  15  26
HETATM   26  C17 UNL     1      21.999   5.276  48.973  1.00  0.00     0.134 C 
BRANCH  26  27
HETATM   27  C18 UNL     1      23.363   5.824  48.717  1.00  0.00     0.040 C 
BRANCH  27  28
HETATM   28  C19 UNL     1      24.083   6.334  49.911  1.00  0.00     0.118 C 
BRANCH  28  29
HETATM   29  N5  UNL     1      25.458   6.067  50.007  1.00  0.00    -0.412 N 
HETATM   30  C20 UNL     1      26.332   7.062  49.517  1.00  0.00     0.117 C 
HETATM   31  C21 UNL     1      26.998   6.635  48.213  1.00  0.00     0.019 C 
HETATM   32  C22 UNL     1      27.856   5.420  48.592  1.00  0.00     0.003 C 
HETATM   33  C23 UNL     1      26.898   4.341  48.967  1.00  0.00     0.019 C 
HETATM   34  C24 UNL     1      25.916   4.743  50.047  1.00  0.00     0.117 C 
ENDBRANCH  28  29
ENDBRANCH  27  28
ENDBRANCH  26  27
ENDBRANCH  15  26
TORSDOF 6
ENDMDL
MODEL 2
REMARK VINA RESULT:      -8.4      2.174      3.410
REMARK  6 active torsions:
REMARK  status: ('A' for Active; 'I' for Inactive)
REMARK    1  A    between atoms: C6_6  and  N1_7 
REMARK    2  A    between atoms: N1_7  and  C7_8 
REMARK    3  A    between atoms: N4_22  and  C17_23 
REMARK    4  A    between atoms: C17_23  and  C18_24 
REMARK    5  A    between atoms: C18_24  and  C19_25 
REMARK    6  A    between atoms: C19_25  and  N5_26 
ROOT
HETATM    1  C7  UNL     1      20.936   0.874  51.984  1.00  0.00     0.128 C 
HETATM    2  C8  UNL     1      20.412   2.064  52.783  1.00  0.00     0.115 C 
HETATM    3  N2  UNL     1      19.773   3.128  52.301  1.00  0.00    -0.263 NA
HETATM    4  C9  UNL     1      19.338   3.348  50.863  1.00  0.00     0.081 C 
HETATM    5  C10 UNL     1      20.123   3.712  49.847  1.00  0.00     0.099 C 
HETATM    6  C11 UNL     1      20.166   2.325  49.244  1.00  0.00     0.120 C 
HETATM    7  C12 UNL     1      19.397   1.499  50.042  1.00  0.00     0.043 C 
HETATM    8  C13 UNL     1      19.745   0.436  51.100  1.00  0.00     0.090 C 
HETATM    9  N3  UNL     1      17.937   1.762  49.764  1.00  0.00    -0.385 N 
HETATM   10  C14 UNL     1      17.860   3.026  50.554  1.00  0.00     0.181 C 
HETATM   11  O1  UNL     1      20.959   2.214  48.050  1.00  0.00    -0.338 OA
HETATM   12  C15 UNL     1      21.988   3.131  47.789  1.00  0.00     0.279 C 
HETATM   13  C16 UNL     1      21.585   4.544  47.995  1.00  0.00     0.248 C 
HETATM   14  O2  UNL     1      21.733   5.623  47.368  1.00  0.00    -0.271 OA
HETATM   15  N4  UNL     1      20.847   4.779  49.183  1.00  0.00    -0.312 N 
HETATM   16  H12 UNL     1      16.934   1.668  49.396  1.00  0.00     0.159 HD
ENDROOT
BRANCH   1  17
HETATM   17  N1  UNL     1      21.097  -0.203  52.928  1.00  0.00    -0.380 N 
HETATM   18  H7  UNL     1      20.306  -0.883  53.141  1.00  0.00     0.160 HD
BRANCH  17  19
HETATM   19  C6  UNL     1      22.271  -0.521  53.691  1.00  0.00     0.029 A 
HETATM   20  C5  UNL     1      22.266  -1.146  54.944  1.00  0.00     0.029 A 
HETATM   21  C4  UNL     1      23.455  -1.393  55.590  1.00  0.00     0.003 A 
HETATM   22  C3  UNL     1      24.671  -1.063  55.081  1.00  0.00     0.007 A 
HETATM   23  C2  UNL     1      24.708  -0.448  53.849  1.00  0.00    -0.060 A 
HETATM   24  C1  UNL     1      26.046  -0.096  53.312  1.00  0.00     0.048 C 
HETATM   25  C25 UNL     1      23.521  -0.200  53.204  1.00  0.00     0.036 A 
ENDBRANCH  17  19
ENDBRANCH   1  17
BRANCH  15  26
HETATM   26  C17 UNL     1      20.688   6.036  49.862  1.00  0.00     0.134 C 
BRANCH  26  27
HETATM   27  C18 UNL     1      21.604   6.216  51.027  1.00  0.00     0.040 C 
BRANCH  27  28
HETATM   28  C19 UNL     1      23.033   6.438  50.690  1.00  0.00     0.118 C 
BRANCH  28  29
HETATM   29  N5  UNL     1      23.951   5.441  51.056  1.00  0.00    -0.412 N 
HETATM   30  C20 UNL     1      25.144   5.372  50.303  1.00  0.00     0.117 C 
HETATM   31  C21 UNL     1      25.165   4.147  49.393  1.00  0.00     0.019 C 
HETATM   32  C22 UNL     1      25.158   2.949  50.352  1.00  0.00     0.003 C 
HETATM   33  C23 UNL     1      23.829   2.968  51.026  1.00  0.00     0.019 C 
HETATM   34  C24 UNL     1      23.508   4.282  51.706  1.00  0.00     0.117 C 
ENDBRANCH  28  29
ENDBRANCH  27  28
ENDBRANCH  26  27
ENDBRANCH  15  26
TORSDOF 6
ENDMDL
MODEL 3
REMARK VINA RESULT:      -7.9      2.187      3.901
REMARK  6 active torsions:
REMARK  status: ('A' for Active; 'I' for Inactive)
REMARK    1  A    between atoms: C6_6  and  N1_7 
REMARK    2  A    between atoms: N1_7  and  C7_8 
REMARK    3  A    between atoms: N4_22  and  C17_23 
REMARK    4  A    between atoms: C17_23  and  C18_24 
REMARK    5  A    between atoms: C18_24  and  C19_25 
REMARK    6  A    between atoms: C19_25  and  N5_26 
ROOT
HETATM    1  C7  UNL     1      25.507   2.187  52.623  1.00  0.00     0.128 C 
HETATM    2  C8  UNL     1      24.522   3.101  53.346  1.00  0.00     0.115 C 
HETATM    3  N2  UNL     1      23.767   4.052  52.799  1.00  0.00    -0.263 NA
HETATM    4  C9  UNL     1      23.648   4.374  51.320  1.00  0.00     0.081 C 
HETATM    5  C10 UNL     1      24.534   5.047  50.584  1.00  0.00     0.099 C 
HETATM    6  C11 UNL     1      25.072   3.808  49.904  1.00  0.00     0.120 C 
HETATM    7  C12 UNL     1      24.371   2.724  50.397  1.00  0.00     0.043 C 
HETATM    8  C13 UNL     1      24.714   1.625  51.419  1.00  0.00     0.090 C 
HETATM    9  N3  UNL     1      23.002   2.689  49.761  1.00  0.00    -0.385 N 
HETATM   10  C14 UNL     1      22.419   3.776  50.602  1.00  0.00     0.181 C 
HETATM   11  O1  UNL     1      26.129   4.052  48.960  1.00  0.00    -0.338 OA
HETATM   12  C15 UNL     1      26.922   5.205  49.060  1.00  0.00     0.279 C 
HETATM   13  C16 UNL     1      26.135   6.446  49.265  1.00  0.00     0.248 C 
HETATM   14  O2  UNL     1      26.150   7.610  48.790  1.00  0.00    -0.271 OA
HETATM   15  N4  UNL     1      25.100   6.335  50.228  1.00  0.00    -0.312 N 
HETATM   16  H12 UNL     1      22.174   2.426  49.131  1.00  0.00     0.159 HD
ENDROOT
BRANCH   1  17
HETATM   17  N1  UNL     1      25.706   1.050  53.484  1.00  0.00    -0.380 N 
HETATM   18  H7  UNL     1      25.173   0.941  54.400  1.00  0.00     0.160 HD
BRANCH  17  19
HETATM   19  C6  UNL     1      26.596  -0.057  53.271  1.00  0.00     0.029 A 
HETATM   20  C5  UNL     1      26.220  -1.296  52.741  1.00  0.00     0.029 A 
HETATM   21  C4  UNL     1      27.159  -2.290  52.591  1.00  0.00     0.003 A 
HETATM   22  C3  UNL     1      28.467  -2.147  52.931  1.00  0.00     0.007 A 
HETATM   23  C2  UNL     1      28.868  -0.937  53.455  1.00  0.00    -0.060 A 
HETATM   24  C1  UNL     1      30.300  -0.802  53.820  1.00  0.00     0.048 C 
HETATM   25  C25 UNL     1      27.930   0.055  53.605  1.00  0.00     0.036 A 
ENDBRANCH  17  19
ENDBRANCH   1  17
BRANCH  15  26
HETATM   26  C17 UNL     1      24.468   7.412  50.940  1.00  0.00     0.134 C 
BRANCH  26  27
HETATM   27  C18 UNL     1      23.031   7.610  50.589  1.00  0.00     0.040 C 
BRANCH  27  28
HETATM   28  C19 UNL     1      22.774   8.445  49.389  1.00  0.00     0.118 C 
BRANCH  28  29
HETATM   29  N5  UNL     1      22.203   7.819  48.269  1.00  0.00    -0.412 N 
HETATM   30  C20 UNL     1      20.805   7.626  48.296  1.00  0.00     0.117 C 
HETATM   31  C21 UNL     1      20.442   6.158  48.493  1.00  0.00     0.019 C 
HETATM   32  C22 UNL     1      20.977   5.452  47.239  1.00  0.00     0.003 C 
HETATM   33  C23 UNL     1      22.463   5.548  47.315  1.00  0.00     0.019 C 
HETATM   34  C24 UNL     1      22.976   6.964  47.473  1.00  0.00     0.117 C 
ENDBRANCH  28  29
ENDBRANCH  27  28
ENDBRANCH  26  27
ENDBRANCH  15  26
TORSDOF 6
ENDMDL
MODEL 4
REMARK VINA RESULT:      -7.9      2.724      6.633
REMARK  6 active torsions:
REMARK  status: ('A' for Active; 'I' for Inactive)
REMARK    1  A    between atoms: C6_6  and  N1_7 
REMARK    2  A    between atoms: N1_7  and  C7_8 
REMARK    3  A    between atoms: N4_22  and  C17_23 
REMARK    4  A    between atoms: C17_23  and  C18_24 
REMARK    5  A    between atoms: C18_24  and  C19_25 
REMARK    6  A    between atoms: C19_25  and  N5_26 
ROOT
HETATM    1  C7  UNL     1      25.331   5.849  49.760  1.00  0.00     0.128 C 
HETATM    2  C8  UNL     1      24.630   6.177  51.075  1.00  0.00     0.115 C 
HETATM    3  N2  UNL     1      23.796   5.391  51.753  1.00  0.00    -0.263 NA
HETATM    4  C9  UNL     1      23.431   3.956  51.417  1.00  0.00     0.081 C 
HETATM    5  C10 UNL     1      22.585   3.558  50.465  1.00  0.00     0.099 C 
HETATM    6  C11 UNL     1      23.684   3.121  49.521  1.00  0.00     0.120 C 
HETATM    7  C12 UNL     1      24.892   3.361  50.148  1.00  0.00     0.043 C 
HETATM    8  C13 UNL     1      25.963   4.455  49.987  1.00  0.00     0.090 C 
HETATM    9  N3  UNL     1      25.128   2.295  51.192  1.00  0.00    -0.385 N 
HETATM   10  C14 UNL     1      24.194   2.870  52.205  1.00  0.00     0.181 C 
HETATM   11  O1  UNL     1      23.222   2.593  48.266  1.00  0.00    -0.338 OA
HETATM   12  C15 UNL     1      21.958   2.941  47.767  1.00  0.00     0.279 C 
HETATM   13  C16 UNL     1      20.878   2.845  48.780  1.00  0.00     0.248 C 
HETATM   14  O2  UNL     1      19.708   2.387  48.808  1.00  0.00    -0.271 OA
HETATM   15  N4  UNL     1      21.206   3.397  50.045  1.00  0.00    -0.312 N 
HETATM   16  H12 UNL     1      25.497   1.424  51.697  1.00  0.00     0.159 HD
ENDROOT
BRANCH   1  17
HETATM   17  N1  UNL     1      26.457   6.743  49.671  1.00  0.00    -0.380 N 
HETATM   18  H7  UNL     1      26.907   7.164  50.540  1.00  0.00     0.160 HD
BRANCH  17  19
HETATM   19  C6  UNL     1      27.120   7.190  48.478  1.00  0.00     0.029 A 
HETATM   20  C5  UNL     1      26.510   7.915  47.448  1.00  0.00     0.029 A 
HETATM   21  C4  UNL     1      27.243   8.282  46.343  1.00  0.00     0.003 A 
HETATM   22  C3  UNL     1      28.558   7.980  46.178  1.00  0.00     0.007 A 
HETATM   23  C2  UNL     1      29.185   7.267  47.176  1.00  0.00    -0.060 A 
HETATM   24  C1  UNL     1      30.621   6.948  46.975  1.00  0.00     0.048 C 
HETATM   25  C25 UNL     1      28.453   6.900  48.279  1.00  0.00     0.036 A 
ENDBRANCH  17  19
ENDBRANCH   1  17
BRANCH  15  26
HETATM   26  C17 UNL     1      20.284   3.834  51.058  1.00  0.00     0.134 C 
BRANCH  26  27
HETATM   27  C18 UNL     1      20.226   2.939  52.251  1.00  0.00     0.040 C 
BRANCH  27  28
HETATM   28  C19 UNL     1      19.472   1.674  52.067  1.00  0.00     0.118 C 
BRANCH  28  29
HETATM   29  N5  UNL     1      20.144   0.470  52.329  1.00  0.00    -0.412 N 
HETATM   30  C20 UNL     1      19.885  -0.141  53.576  1.00  0.00     0.117 C 
HETATM   31  C21 UNL     1      21.077  -0.022  54.520  1.00  0.00     0.019 C 
HETATM   32  C22 UNL     1      22.195  -0.825  53.840  1.00  0.00     0.003 C 
HETATM   33  C23 UNL     1      22.545  -0.075  52.600  1.00  0.00     0.019 C 
HETATM   34  C24 UNL     1      21.362   0.192  51.694  1.00  0.00     0.117 C 
ENDBRANCH  28  29
ENDBRANCH  27  28
ENDBRANCH  26  27
ENDBRANCH  15  26
TORSDOF 6
ENDMDL
MODEL 5
REMARK VINA RESULT:      -7.7      5.010      9.425
REMARK  6 active torsions:
REMARK  status: ('A' for Active; 'I' for Inactive)
REMARK    1  A    between atoms: C6_6  and  N1_7 
REMARK    2  A    between atoms: N1_7  and  C7_8 
REMARK    3  A    between atoms: N4_22  and  C17_23 
REMARK    4  A    between atoms: C17_23  and  C18_24 
REMARK    5  A    between atoms: C18_24  and  C19_25 
REMARK    6  A    between atoms: C19_25  and  N5_26 
ROOT
HETATM    1  C7  UNL     1      15.852   2.431  52.068  1.00  0.00     0.128 C 
HETATM    2  C8  UNL     1      16.962   3.475  51.995  1.00  0.00     0.115 C 
HETATM    3  N2  UNL     1      18.239   3.260  51.687  1.00  0.00    -0.263 NA
HETATM    4  C9  UNL     1      18.855   1.945  51.246  1.00  0.00     0.081 C 
HETATM    5  C10 UNL     1      19.165   0.913  52.034  1.00  0.00     0.099 C 
HETATM    6  C11 UNL     1      17.973   0.088  51.603  1.00  0.00     0.120 C 
HETATM    7  C12 UNL     1      17.268   0.826  50.672  1.00  0.00     0.043 C 
HETATM    8  C13 UNL     1      15.964   1.641  50.743  1.00  0.00     0.090 C 
HETATM    9  N3  UNL     1      17.996   0.780  49.350  1.00  0.00    -0.385 N 
HETATM   10  C14 UNL     1      19.047   1.773  49.723  1.00  0.00     0.181 C 
HETATM   11  O1  UNL     1      17.872  -1.198  52.239  1.00  0.00    -0.338 OA
HETATM   12  C15 UNL     1      18.480  -1.428  53.483  1.00  0.00     0.279 C 
HETATM   13  C16 UNL     1      19.880  -0.942  53.553  1.00  0.00     0.248 C 
HETATM   14  O2  UNL     1      20.970  -1.394  53.987  1.00  0.00    -0.271 OA
HETATM   15  N4  UNL     1      20.082   0.352  53.008  1.00  0.00    -0.312 N 
HETATM   16  H12 UNL     1      18.275   0.529  48.345  1.00  0.00     0.159 HD
ENDROOT
BRANCH   1  17
HETATM   17  N1  UNL     1      14.612   3.155  51.950  1.00  0.00    -0.380 N 
HETATM   18  H7  UNL     1      14.357   3.688  51.064  1.00  0.00     0.160 HD
BRANCH  17  19
HETATM   19  C6  UNL     1      13.577   3.274  52.939  1.00  0.00     0.029 A 
HETATM   20  C5  UNL     1      12.994   4.480  53.346  1.00  0.00     0.029 A 
HETATM   21  C4  UNL     1      12.015   4.474  54.312  1.00  0.00     0.003 A 
HETATM   22  C3  UNL     1      11.560   3.344  54.917  1.00  0.00     0.007 A 
HETATM   23  C2  UNL     1      12.115   2.142  54.537  1.00  0.00    -0.060 A 
HETATM   24  C1  UNL     1      11.605   0.922  55.210  1.00  0.00     0.048 C 
HETATM   25  C25 UNL     1      13.093   2.148  53.572  1.00  0.00     0.036 A 
ENDBRANCH  17  19
ENDBRANCH   1  17
BRANCH  15  26
HETATM   26  C17 UNL     1      21.172   1.245  53.293  1.00  0.00     0.134 C 
BRANCH  26  27
HETATM   27  C18 UNL     1      22.411   0.959  52.512  1.00  0.00     0.040 C 
BRANCH  27  28
HETATM   28  C19 UNL     1      23.575   1.829  52.815  1.00  0.00     0.118 C 
BRANCH  28  29
HETATM   29  N5  UNL     1      24.858   1.289  52.632  1.00  0.00    -0.412 N 
HETATM   30  C20 UNL     1      25.060  -0.032  53.088  1.00  0.00     0.117 C 
HETATM   31  C21 UNL     1      25.930  -0.068  54.340  1.00  0.00     0.019 C 
HETATM   32  C22 UNL     1      27.293   0.472  53.884  1.00  0.00     0.003 C 
HETATM   33  C23 UNL     1      27.075   1.907  53.546  1.00  0.00     0.019 C 
HETATM   34  C24 UNL     1      25.970   2.136  52.537  1.00  0.00     0.117 C 
ENDBRANCH  28  29
ENDBRANCH  27  28
ENDBRANCH  26  27
ENDBRANCH  15  26
TORSDOF 6
ENDMDL
MODEL 6
REMARK VINA RESULT:      -7.7      2.724      5.100
REMARK  6 active torsions:
REMARK  status: ('A' for Active; 'I' for Inactive)
REMARK    1  A    between atoms: C6_6  and  N1_7 
REMARK    2  A    between atoms: N1_7  and  C7_8 
REMARK    3  A    between atoms: N4_22  and  C17_23 
REMARK    4  A    between atoms: C17_23  and  C18_24 
REMARK    5  A    between atoms: C18_24  and  C19_25 
REMARK    6  A    between atoms: C19_25  and  N5_26 
ROOT
HETATM    1  C7  UNL     1      24.137   2.995  50.779  1.00  0.00     0.128 C 
HETATM    2  C8  UNL     1      24.962   3.532  49.613  1.00  0.00     0.115 C 
HETATM    3  N2  UNL     1      24.933   4.768  49.118  1.00  0.00    -0.263 NA
HETATM    4  C9  UNL     1      24.143   5.943  49.665  1.00  0.00     0.081 C 
HETATM    5  C10 UNL     1      22.834   6.154  49.514  1.00  0.00     0.099 C 
HETATM    6  C11 UNL     1      22.494   5.731  50.925  1.00  0.00     0.120 C 
HETATM    7  C12 UNL     1      23.675   5.386  51.554  1.00  0.00     0.043 C 
HETATM    8  C13 UNL     1      24.324   4.036  51.908  1.00  0.00     0.090 C 
HETATM    9  N3  UNL     1      24.422   6.644  51.928  1.00  0.00    -0.385 N 
HETATM   10  C14 UNL     1      24.935   6.926  50.554  1.00  0.00     0.181 C 
HETATM   11  O1  UNL     1      21.093   5.787  51.247  1.00  0.00    -0.338 OA
HETATM   12  C15 UNL     1      20.125   5.717  50.235  1.00  0.00     0.279 C 
HETATM   13  C16 UNL     1      20.411   6.607  49.083  1.00  0.00     0.248 C 
HETATM   14  O2  UNL     1      19.747   7.404  48.374  1.00  0.00    -0.271 OA
HETATM   15  N4  UNL     1      21.758   6.582  48.639  1.00  0.00    -0.312 N 
HETATM   16  H12 UNL     1      24.831   7.461  52.490  1.00  0.00     0.159 HD
ENDROOT
BRANCH   1  17
HETATM   17  N1  UNL     1      24.828   1.823  51.253  1.00  0.00    -0.380 N 
HETATM   18  H7  UNL     1      25.765   1.522  50.844  1.00  0.00     0.160 HD
BRANCH  17  19
HETATM   19  C6  UNL     1      24.403   0.922  52.288  1.00  0.00     0.029 A 
HETATM   20  C5  UNL     1      25.259   0.270  53.183  1.00  0.00     0.029 A 
HETATM   21  C4  UNL     1      24.738  -0.582  54.129  1.00  0.00     0.003 A 
HETATM   22  C3  UNL     1      23.410  -0.841  54.260  1.00  0.00     0.007 A 
HETATM   23  C2  UNL     1      22.543  -0.214  53.393  1.00  0.00    -0.060 A 
HETATM   24  C1  UNL     1      21.098  -0.511  53.552  1.00  0.00     0.048 C 
HETATM   25  C25 UNL     1      23.063   0.637  52.447  1.00  0.00     0.036 A 
ENDBRANCH  17  19
ENDBRANCH   1  17
BRANCH  15  26
HETATM   26  C17 UNL     1      22.245   6.974  47.345  1.00  0.00     0.134 C 
BRANCH  26  27
HETATM   27  C18 UNL     1      22.498   5.831  46.420  1.00  0.00     0.040 C 
BRANCH  27  28
HETATM   28  C19 UNL     1      21.287   5.150  45.897  1.00  0.00     0.118 C 
BRANCH  28  29
HETATM   29  N5  UNL     1      21.042   3.835  46.325  1.00  0.00    -0.412 N 
HETATM   30  C20 UNL     1      19.692   3.424  46.364  1.00  0.00     0.117 C 
HETATM   31  C21 UNL     1      19.184   3.295  47.797  1.00  0.00     0.019 C 
HETATM   32  C22 UNL     1      20.024   2.166  48.409  1.00  0.00     0.003 C 
HETATM   33  C23 UNL     1      21.419   2.687  48.486  1.00  0.00     0.019 C 
HETATM   34  C24 UNL     1      21.958   3.187  47.163  1.00  0.00     0.117 C 
ENDBRANCH  28  29
ENDBRANCH  27  28
ENDBRANCH  26  27
ENDBRANCH  15  26
TORSDOF 6
ENDMDL
MODEL 7
REMARK VINA RESULT:      -7.7      2.244      3.991
REMARK  6 active torsions:
REMARK  status: ('A' for Active; 'I' for Inactive)
REMARK    1  A    between atoms: C6_6  and  N1_7 
REMARK    2  A    between atoms: N1_7  and  C7_8 
REMARK    3  A    between atoms: N4_22  and  C17_23 
REMARK    4  A    between atoms: C17_23  and  C18_24 
REMARK    5  A    between atoms: C18_24  and  C19_25 
REMARK    6  A    between atoms: C19_25  and  N5_26 
ROOT
HETATM    1  C7  UNL     1      24.638   2.136  52.827  1.00  0.00     0.128 C 
HETATM    2  C8  UNL     1      25.349   2.375  51.498  1.00  0.00     0.115 C 
HETATM    3  N2  UNL     1      25.004   3.249  50.555  1.00  0.00    -0.263 NA
HETATM    4  C9  UNL     1      23.882   4.270  50.633  1.00  0.00     0.081 C 
HETATM    5  C10 UNL     1      22.579   4.024  50.486  1.00  0.00     0.099 C 
HETATM    6  C11 UNL     1      22.284   4.119  51.967  1.00  0.00     0.120 C 
HETATM    7  C12 UNL     1      23.474   4.402  52.612  1.00  0.00     0.043 C 
HETATM    8  C13 UNL     1      24.454   3.547  53.435  1.00  0.00     0.090 C 
HETATM    9  N3  UNL     1      23.812   5.860  52.410  1.00  0.00    -0.385 N 
HETATM   10  C14 UNL     1      24.309   5.705  51.010  1.00  0.00     0.181 C 
HETATM   11  O1  UNL     1      20.908   3.901  52.321  1.00  0.00    -0.338 OA
HETATM   12  C15 UNL     1      20.063   3.164  51.477  1.00  0.00     0.279 C 
HETATM   13  C16 UNL     1      20.158   3.564  50.052  1.00  0.00     0.248 C 
HETATM   14  O2  UNL     1      19.341   3.791  49.124  1.00  0.00    -0.271 OA
HETATM   15  N4  UNL     1      21.482   3.746  49.578  1.00  0.00    -0.312 N 
HETATM   16  H12 UNL     1      23.938   6.912  52.576  1.00  0.00     0.159 HD
ENDROOT
BRANCH   1  17
HETATM   17  N1  UNL     1      25.600   1.497  53.687  1.00  0.00    -0.380 N 
HETATM   18  H7  UNL     1      25.798   1.858  54.670  1.00  0.00     0.160 HD
BRANCH  17  19
HETATM   19  C6  UNL     1      26.403   0.345  53.389  1.00  0.00     0.029 A 
HETATM   20  C5  UNL     1      25.909  -0.868  52.893  1.00  0.00     0.029 A 
HETATM   21  C4  UNL     1      26.773  -1.911  52.653  1.00  0.00     0.003 A 
HETATM   22  C3  UNL     1      28.114  -1.844  52.870  1.00  0.00     0.007 A 
HETATM   23  C2  UNL     1      28.628  -0.663  53.358  1.00  0.00    -0.060 A 
HETATM   24  C1  UNL     1      30.094  -0.611  53.588  1.00  0.00     0.048 C 
HETATM   25  C25 UNL     1      27.766   0.379  53.598  1.00  0.00     0.036 A 
ENDBRANCH  17  19
ENDBRANCH   1  17
BRANCH  15  26
HETATM   26  C17 UNL     1      21.918   3.712  48.208  1.00  0.00     0.134 C 
BRANCH  26  27
HETATM   27  C18 UNL     1      22.323   5.043  47.668  1.00  0.00     0.040 C 
BRANCH  27  28
HETATM   28  C19 UNL     1      21.210   5.984  47.381  1.00  0.00     0.118 C 
BRANCH  28  29
HETATM   29  N5  UNL     1      20.779   6.820  48.423  1.00  0.00    -0.412 N 
HETATM   30  C20 UNL     1      19.486   7.372  48.297  1.00  0.00     0.117 C 
HETATM   31  C21 UNL     1      19.538   8.866  47.990  1.00  0.00     0.019 C 
HETATM   32  C22 UNL     1      20.186   9.497  49.230  1.00  0.00     0.003 C 
HETATM   33  C23 UNL     1      21.594   9.006  49.253  1.00  0.00     0.019 C 
HETATM   34  C24 UNL     1      21.716   7.498  49.214  1.00  0.00     0.117 C 
ENDBRANCH  28  29
ENDBRANCH  27  28
ENDBRANCH  26  27
ENDBRANCH  15  26
TORSDOF 6
ENDMDL
MODEL 8
REMARK VINA RESULT:      -7.6      2.378      4.187
REMARK  6 active torsions:
REMARK  status: ('A' for Active; 'I' for Inactive)
REMARK    1  A    between atoms: C6_6  and  N1_7 
REMARK    2  A    between atoms: N1_7  and  C7_8 
REMARK    3  A    between atoms: N4_22  and  C17_23 
REMARK    4  A    between atoms: C17_23  and  C18_24 
REMARK    5  A    between atoms: C18_24  and  C19_25 
REMARK    6  A    between atoms: C19_25  and  N5_26 
ROOT
HETATM    1  C7  UNL     1      24.388   2.866  52.690  1.00  0.00     0.128 C 
HETATM    2  C8  UNL     1      24.810   2.911  51.224  1.00  0.00     0.115 C 
HETATM    3  N2  UNL     1      24.071   3.316  50.194  1.00  0.00    -0.263 NA
HETATM    4  C9  UNL     1      22.677   3.914  50.259  1.00  0.00     0.081 C 
HETATM    5  C10 UNL     1      21.538   3.245  50.450  1.00  0.00     0.099 C 
HETATM    6  C11 UNL     1      21.401   3.675  51.893  1.00  0.00     0.120 C 
HETATM    7  C12 UNL     1      22.478   4.489  52.190  1.00  0.00     0.043 C 
HETATM    8  C13 UNL     1      23.785   4.263  52.970  1.00  0.00     0.090 C 
HETATM    9  N3  UNL     1      22.250   5.853  51.582  1.00  0.00    -0.385 N 
HETATM   10  C14 UNL     1      22.606   5.455  50.187  1.00  0.00     0.181 C 
HETATM   11  O1  UNL     1      20.243   3.155  52.567  1.00  0.00    -0.338 OA
HETATM   12  C15 UNL     1      19.625   1.978  52.119  1.00  0.00     0.279 C 
HETATM   13  C16 UNL     1      19.407   1.950  50.651  1.00  0.00     0.248 C 
HETATM   14  O2  UNL     1      18.462   1.628  49.888  1.00  0.00    -0.271 OA
HETATM   15  N4  UNL     1      20.516   2.386  49.883  1.00  0.00    -0.312 N 
HETATM   16  H12 UNL     1      22.012   6.892  51.463  1.00  0.00     0.159 HD
ENDROOT
BRANCH   1  17
HETATM   17  N1  UNL     1      25.607   2.840  53.458  1.00  0.00    -0.380 N 
HETATM   18  H7  UNL     1      25.837   3.600  54.168  1.00  0.00     0.160 HD
BRANCH  17  19
HETATM   19  C6  UNL     1      26.649   1.854  53.402  1.00  0.00     0.029 A 
HETATM   20  C5  UNL     1      28.006   2.109  53.631  1.00  0.00     0.029 A 
HETATM   21  C4  UNL     1      28.919   1.085  53.540  1.00  0.00     0.003 A 
HETATM   22  C3  UNL     1      28.585  -0.197  53.234  1.00  0.00     0.007 A 
HETATM   23  C2  UNL     1      27.257  -0.479  53.003  1.00  0.00    -0.060 A 
HETATM   24  C1  UNL     1      26.915  -1.884  52.670  1.00  0.00     0.048 C 
HETATM   25  C25 UNL     1      26.344   0.544  53.094  1.00  0.00     0.036 A 
ENDBRANCH  17  19
ENDBRANCH   1  17
BRANCH  15  26
HETATM   26  C17 UNL     1      20.775   2.087  48.500  1.00  0.00     0.134 C 
BRANCH  26  27
HETATM   27  C18 UNL     1      20.711   3.276  47.601  1.00  0.00     0.040 C 
BRANCH  27  28
HETATM   28  C19 UNL     1      21.868   3.451  46.687  1.00  0.00     0.118 C 
BRANCH  28  29
HETATM   29  N5  UNL     1      21.695   4.281  45.568  1.00  0.00    -0.412 N 
HETATM   30  C20 UNL     1      22.050   5.639  45.726  1.00  0.00     0.117 C 
HETATM   31  C21 UNL     1      20.822   6.541  45.775  1.00  0.00     0.019 C 
HETATM   32  C22 UNL     1      20.174   6.395  44.391  1.00  0.00     0.003 C 
HETATM   33  C23 UNL     1      19.681   4.991  44.313  1.00  0.00     0.019 C 
HETATM   34  C24 UNL     1      20.748   3.952  44.589  1.00  0.00     0.117 C 
ENDBRANCH  28  29
ENDBRANCH  27  28
ENDBRANCH  26  27
ENDBRANCH  15  26
TORSDOF 6
ENDMDL
MODEL 9
REMARK VINA RESULT:      -7.6      1.745      2.374
REMARK  6 active torsions:
REMARK  status: ('A' for Active; 'I' for Inactive)
REMARK    1  A    between atoms: C6_6  and  N1_7 
REMARK    2  A    between atoms: N1_7  and  C7_8 
REMARK    3  A    between atoms: N4_22  and  C17_23 
REMARK    4  A    between atoms: C17_23  and  C18_24 
REMARK    5  A    between atoms: C18_24  and  C19_25 
REMARK    6  A    between atoms: C19_25  and  N5_26 
ROOT
HETATM    1  C7  UNL     1      24.340   1.667  51.856  1.00  0.00     0.128 C 
HETATM    2  C8  UNL     1      25.332   2.523  51.075  1.00  0.00     0.115 C 
HETATM    3  N2  UNL     1      25.100   3.716  50.531  1.00  0.00    -0.263 NA
HETATM    4  C9  UNL     1      23.825   4.533  50.649  1.00  0.00     0.081 C 
HETATM    5  C10 UNL     1      22.687   4.322  49.985  1.00  0.00     0.099 C 
HETATM    6  C11 UNL     1      21.981   3.711  51.175  1.00  0.00     0.120 C 
HETATM    7  C12 UNL     1      22.866   3.720  52.236  1.00  0.00     0.043 C 
HETATM    8  C13 UNL     1      23.724   2.628  52.900  1.00  0.00     0.090 C 
HETATM    9  N3  UNL     1      22.958   5.121  52.792  1.00  0.00    -0.385 N 
HETATM   10  C14 UNL     1      23.844   5.651  51.714  1.00  0.00     0.181 C 
HETATM   11  O1  UNL     1      20.630   3.291  50.919  1.00  0.00    -0.338 OA
HETATM   12  C15 UNL     1      20.212   2.986  49.615  1.00  0.00     0.279 C 
HETATM   13  C16 UNL     1      20.619   4.002  48.613  1.00  0.00     0.248 C 
HETATM   14  O2  UNL     1      20.065   4.592  47.652  1.00  0.00    -0.271 OA
HETATM   15  N4  UNL     1      21.962   4.443  48.735  1.00  0.00    -0.312 N 
HETATM   16  H12 UNL     1      22.827   5.983  53.417  1.00  0.00     0.159 HD
ENDROOT
BRANCH   1  17
HETATM   17  N1  UNL     1      25.130   0.748  52.636  1.00  0.00    -0.380 N 
HETATM   18  H7  UNL     1      24.723  -0.164  53.007  1.00  0.00     0.160 HD
BRANCH  17  19
HETATM   19  C6  UNL     1      26.505   0.895  53.021  1.00  0.00     0.029 A 
HETATM   20  C5  UNL     1      27.111   2.105  53.381  1.00  0.00     0.029 A 
HETATM   21  C4  UNL     1      28.443   2.128  53.723  1.00  0.00     0.003 A 
HETATM   22  C3  UNL     1      29.235   1.023  53.738  1.00  0.00     0.007 A 
HETATM   23  C2  UNL     1      28.667  -0.182  53.389  1.00  0.00    -0.060 A 
HETATM   24  C1  UNL     1      29.550  -1.375  53.411  1.00  0.00     0.048 C 
HETATM   25  C25 UNL     1      27.337  -0.205  53.047  1.00  0.00     0.036 A 
ENDBRANCH  17  19
ENDBRANCH   1  17
BRANCH  15  26
HETATM   26  C17 UNL     1      22.759   5.064  47.712  1.00  0.00     0.134 C 
BRANCH  26  27
HETATM   27  C18 UNL     1      22.813   6.552  47.805  1.00  0.00     0.040 C 
BRANCH  27  28
HETATM   28  C19 UNL     1      23.874   7.207  47.000  1.00  0.00     0.118 C 
BRANCH  28  29
HETATM   29  N5  UNL     1      24.839   7.963  47.685  1.00  0.00    -0.412 N 
HETATM   30  C20 UNL     1      26.139   7.417  47.756  1.00  0.00     0.117 C 
HETATM   31  C21 UNL     1      26.468   6.923  49.161  1.00  0.00     0.019 C 
HETATM   32  C22 UNL     1      26.454   8.187  50.032  1.00  0.00     0.003 C 
HETATM   33  C23 UNL     1      25.040   8.657  50.054  1.00  0.00     0.019 C 
HETATM   34  C24 UNL     1      24.445   8.870  48.679  1.00  0.00     0.117 C 
ENDBRANCH  28  29
ENDBRANCH  27  28
ENDBRANCH  26  27
ENDBRANCH  15  26
TORSDOF 6
ENDMDL
