MODEL 1
REMARK VINA RESULT:      -7.8      0.000      0.000
REMARK  5 active torsions:
REMARK  status: ('A' for Active; 'I' for Inactive)
REMARK    1  A    between atoms: C6_8  and  N3_9 
REMARK    2  A    between atoms: N3_9  and  C7_10 
REMARK    3  A    between atoms: C10_13  and  O1_14 
REMARK    4  A    between atoms: O1_14  and  C11_15 
REMARK    5  A    between atoms: C11_15  and  C12_16 
ROOT
HETATM    1  C1  UNL     1      22.404  -1.259  54.507  1.00  0.00     0.070 C 
HETATM    2  C2  UNL     1      22.704  -0.099  53.653  1.00  0.00     0.030 C 
HETATM    3  N1  UNL     1      24.020  -0.196  53.659  1.00  0.00    -0.265 NA
HETATM    4  C3  UNL     1      24.689   0.820  52.881  1.00  0.00     0.139 C 
HETATM    5  C4  UNL     1      25.187   1.762  52.121  1.00  0.00     0.088 C 
HETATM    6  C5  UNL     1      26.577   2.036  52.310  1.00  0.00     0.101 C 
HETATM    7  N2  UNL     1      27.686   2.276  52.465  1.00  0.00    -0.191 NA
HETATM    8  C6  UNL     1      24.153   2.366  51.216  1.00  0.00     0.268 C 
HETATM    9  O2  UNL     1      23.464   3.340  51.843  1.00  0.00    -0.358 OA
HETATM   10  C18 UNL     1      22.118   3.185  51.866  1.00  0.00     0.198 C 
HETATM   11  C19 UNL     1      21.623   1.962  52.515  1.00  0.00     0.001 C 
HETATM   12  C20 UNL     1      21.686   0.804  53.144  1.00  0.00     0.025 C 
ENDROOT
BRANCH   8  13
HETATM   13  N3  UNL     1      24.829   2.924  50.030  1.00  0.00    -0.359 N 
HETATM   14  H6  UNL     1      25.030   2.314  49.224  1.00  0.00     0.162 HD
BRANCH  13  15
HETATM   15  C7  UNL     1      25.249   4.254  49.865  1.00  0.00     0.032 A 
HETATM   16  C8  UNL     1      26.423   4.319  49.167  1.00  0.00     0.032 A 
HETATM   17  C9  UNL     1      26.862   5.579  48.996  1.00  0.00     0.041 A 
HETATM   18  C10 UNL     1      26.604   6.864  49.242  1.00  0.00     0.091 A 
HETATM   19  C16 UNL     1      25.319   6.686  49.997  1.00  0.00     0.069 A 
HETATM   20 CL1  UNL     1      24.123   7.766  50.798  1.00  0.00    -0.081 Cl
HETATM   21  C17 UNL     1      24.657   5.438  50.303  1.00  0.00     0.056 A 
BRANCH  18  22
HETATM   22  O1  UNL     1      26.338   8.163  49.494  1.00  0.00    -0.344 OA
BRANCH  22  23
HETATM   23  C11 UNL     1      27.276   9.048  50.077  1.00  0.00     0.222 C 
BRANCH  23  24
HETATM   24  C12 UNL     1      28.386   9.273  49.136  1.00  0.00     0.006 A 
HETATM   25  C13 UNL     1      29.712   9.058  49.240  1.00  0.00     0.017 A 
HETATM   26  C14 UNL     1      30.584   9.332  48.232  1.00  0.00     0.008 A 
HETATM   27  C15 UNL     1      29.929   9.886  47.025  1.00  0.00     0.050 A 
HETATM   28  S1  UNL     1      28.117   9.923  47.545  1.00  0.00    -0.104 SA
ENDBRANCH  23  24
ENDBRANCH  22  23
ENDBRANCH  18  22
ENDBRANCH  13  15
ENDBRANCH   8  13
TORSDOF 5
ENDMDL
MODEL 2
REMARK VINA RESULT:      -7.7      5.064     10.084
REMARK  5 active torsions:
REMARK  status: ('A' for Active; 'I' for Inactive)
REMARK    1  A    between atoms: C6_8  and  N3_9 
REMARK    2  A    between atoms: N3_9  and  C7_10 
REMARK    3  A    between atoms: C10_13  and  O1_14 
REMARK    4  A    between atoms: O1_14  and  C11_15 
REMARK    5  A    between atoms: C11_15  and  C12_16 
ROOT
HETATM    1  C1  UNL     1      27.269   5.166  48.811  1.00  0.00     0.070 C 
HETATM    2  C2  UNL     1      26.272   4.298  49.456  1.00  0.00     0.030 C 
HETATM    3  N1  UNL     1      27.100   3.553  50.162  1.00  0.00    -0.265 NA
HETATM    4  C3  UNL     1      26.446   2.546  50.967  1.00  0.00     0.139 C 
HETATM    5  C4  UNL     1      25.750   1.699  51.680  1.00  0.00     0.088 C 
HETATM    6  C5  UNL     1      26.481   0.588  52.204  1.00  0.00     0.101 C 
HETATM    7  N2  UNL     1      27.053  -0.315  52.615  1.00  0.00    -0.191 NA
HETATM    8  C6  UNL     1      24.303   2.087  51.769  1.00  0.00     0.268 C 
HETATM    9  O2  UNL     1      23.611   1.642  50.702  1.00  0.00    -0.358 OA
HETATM   10  C18 UNL     1      22.940   2.590  50.002  1.00  0.00     0.198 C 
HETATM   11  C19 UNL     1      23.758   3.672  49.436  1.00  0.00     0.001 C 
HETATM   12  C20 UNL     1      24.849   4.363  49.168  1.00  0.00     0.025 C 
ENDROOT
BRANCH   8  13
HETATM   13  N3  UNL     1      23.733   1.512  53.002  1.00  0.00    -0.359 N 
HETATM   14  H6  UNL     1      24.276   1.544  53.877  1.00  0.00     0.162 HD
BRANCH  13  15
HETATM   15  C7  UNL     1      22.476   0.899  53.125  1.00  0.00     0.032 A 
HETATM   16  C8  UNL     1      22.569  -0.292  53.789  1.00  0.00     0.032 A 
HETATM   17  C9  UNL     1      21.384  -0.914  53.920  1.00  0.00     0.041 A 
HETATM   18  C10 UNL     1      20.080  -0.839  53.652  1.00  0.00     0.091 A 
HETATM   19  C16 UNL     1      20.083   0.480  52.936  1.00  0.00     0.069 A 
HETATM   20 CL1  UNL     1      18.854   1.530  52.144  1.00  0.00    -0.081 Cl
HETATM   21  C17 UNL     1      21.226   1.326  52.676  1.00  0.00     0.056 A 
BRANCH  18  22
HETATM   22  O1  UNL     1      18.761  -0.757  53.378  1.00  0.00    -0.344 OA
BRANCH  22  23
HETATM   23  C11 UNL     1      17.883  -1.864  53.454  1.00  0.00     0.222 C 
BRANCH  23  24
HETATM   24  C12 UNL     1      16.787  -1.686  52.486  1.00  0.00     0.006 A 
HETATM   25  C13 UNL     1      16.581  -0.772  51.518  1.00  0.00     0.017 A 
HETATM   26  C14 UNL     1      15.484  -0.788  50.712  1.00  0.00     0.008 A 
HETATM   27  C15 UNL     1      14.555  -1.903  51.008  1.00  0.00     0.050 A 
HETATM   28  S1  UNL     1      15.429  -2.772  52.435  1.00  0.00    -0.104 SA
ENDBRANCH  23  24
ENDBRANCH  22  23
ENDBRANCH  18  22
ENDBRANCH  13  15
ENDBRANCH   8  13
TORSDOF 5
ENDMDL
MODEL 3
REMARK VINA RESULT:      -7.7      3.707      9.201
REMARK  5 active torsions:
REMARK  status: ('A' for Active; 'I' for Inactive)
REMARK    1  A    between atoms: C6_8  and  N3_9 
REMARK    2  A    between atoms: N3_9  and  C7_10 
REMARK    3  A    between atoms: C10_13  and  O1_14 
REMARK    4  A    between atoms: O1_14  and  C11_15 
REMARK    5  A    between atoms: C11_15  and  C12_16 
ROOT
HETATM    1  C1  UNL     1      32.439  11.140  47.491  1.00  0.00     0.070 C 
HETATM    2  C2  UNL     1      31.565   9.979  47.722  1.00  0.00     0.030 C 
HETATM    3  N1  UNL     1      30.508  10.626  48.173  1.00  0.00    -0.265 NA
HETATM    4  C3  UNL     1      29.395   9.770  48.512  1.00  0.00     0.139 C 
HETATM    5  C4  UNL     1      28.440   8.907  48.751  1.00  0.00     0.088 C 
HETATM    6  C5  UNL     1      27.378   9.378  49.583  1.00  0.00     0.101 C 
HETATM    7  N2  UNL     1      26.530   9.739  50.264  1.00  0.00    -0.191 NA
HETATM    8  C6  UNL     1      28.697   7.582  48.095  1.00  0.00     0.268 C 
HETATM    9  O2  UNL     1      29.489   6.804  48.859  1.00  0.00    -0.358 OA
HETATM   10  C18 UNL     1      30.620   6.355  48.262  1.00  0.00     0.198 C 
HETATM   11  C19 UNL     1      31.545   7.389  47.776  1.00  0.00     0.001 C 
HETATM   12  C20 UNL     1      31.995   8.604  47.529  1.00  0.00     0.025 C 
ENDROOT
BRANCH   8  13
HETATM   13  N3  UNL     1      27.405   6.905  47.873  1.00  0.00    -0.359 N 
HETATM   14  H6  UNL     1      26.851   7.127  47.033  1.00  0.00     0.162 HD
BRANCH  13  15
HETATM   15  C7  UNL     1      26.817   5.947  48.715  1.00  0.00     0.032 A 
HETATM   16  C8  UNL     1      27.440   4.735  48.596  1.00  0.00     0.032 A 
HETATM   17  C9  UNL     1      26.900   3.788  49.383  1.00  0.00     0.041 A 
HETATM   18  C10 UNL     1      25.950   3.534  50.284  1.00  0.00     0.091 A 
HETATM   19  C16 UNL     1      25.335   4.901  50.342  1.00  0.00     0.069 A 
HETATM   20 CL1  UNL     1      23.976   5.678  51.231  1.00  0.00    -0.081 Cl
HETATM   21  C17 UNL     1      25.742   6.069  49.594  1.00  0.00     0.056 A 
BRANCH  18  22
HETATM   22  O1  UNL     1      24.987   3.282  51.195  1.00  0.00    -0.344 OA
BRANCH  22  23
HETATM   23  C11 UNL     1      24.575   1.974  51.548  1.00  0.00     0.222 C 
BRANCH  23  24
HETATM   24  C12 UNL     1      25.655   1.306  52.293  1.00  0.00     0.006 A 
HETATM   25  C13 UNL     1      26.435   0.248  51.994  1.00  0.00     0.017 A 
HETATM   26  C14 UNL     1      27.399  -0.217  52.834  1.00  0.00     0.008 A 
HETATM   27  C15 UNL     1      27.499   0.553  54.096  1.00  0.00     0.050 A 
HETATM   28  S1  UNL     1      26.156   1.856  53.865  1.00  0.00    -0.104 SA
ENDBRANCH  23  24
ENDBRANCH  22  23
ENDBRANCH  18  22
ENDBRANCH  13  15
ENDBRANCH   8  13
TORSDOF 5
ENDMDL
MODEL 4
REMARK VINA RESULT:      -7.5      6.360     10.626
REMARK  5 active torsions:
REMARK  status: ('A' for Active; 'I' for Inactive)
REMARK    1  A    between atoms: C6_8  and  N3_9 
REMARK    2  A    between atoms: N3_9  and  C7_10 
REMARK    3  A    between atoms: C10_13  and  O1_14 
REMARK    4  A    between atoms: O1_14  and  C11_15 
REMARK    5  A    between atoms: C11_15  and  C12_16 
ROOT
HETATM    1  C1  UNL     1      26.010  -0.713  53.848  1.00  0.00     0.070 C 
HETATM    2  C2  UNL     1      24.626  -0.327  53.535  1.00  0.00     0.030 C 
HETATM    3  N1  UNL     1      24.884   0.543  52.578  1.00  0.00    -0.265 NA
HETATM    4  C3  UNL     1      23.708   1.150  52.001  1.00  0.00     0.139 C 
HETATM    5  C4  UNL     1      22.577   1.608  51.527  1.00  0.00     0.088 C 
HETATM    6  C5  UNL     1      22.671   2.812  50.764  1.00  0.00     0.101 C 
HETATM    7  N2  UNL     1      22.732   3.786  50.165  1.00  0.00    -0.191 NA
HETATM    8  C6  UNL     1      21.409   0.751  51.922  1.00  0.00     0.268 C 
HETATM    9  O2  UNL     1      20.947   1.087  53.142  1.00  0.00    -0.358 OA
HETATM   10  C18 UNL     1      20.899   0.079  54.048  1.00  0.00     0.198 C 
HETATM   11  C19 UNL     1      22.179  -0.577  54.349  1.00  0.00     0.001 C 
HETATM   12  C20 UNL     1      23.473  -0.821  54.269  1.00  0.00     0.025 C 
ENDROOT
BRANCH   8  13
HETATM   13  N3  UNL     1      20.336   0.923  50.923  1.00  0.00    -0.359 N 
HETATM   14  H6  UNL     1      20.566   0.894  49.920  1.00  0.00     0.162 HD
BRANCH  13  15
HETATM   15  C7  UNL     1      18.975   1.131  51.199  1.00  0.00     0.032 A 
HETATM   16  C8  UNL     1      18.299  -0.055  51.274  1.00  0.00     0.032 A 
HETATM   17  C9  UNL     1      16.989   0.103  51.529  1.00  0.00     0.041 A 
HETATM   18  C10 UNL     1      16.024   0.997  51.752  1.00  0.00     0.091 A 
HETATM   19  C16 UNL     1      16.854   2.242  51.650  1.00  0.00     0.069 A 
HETATM   20 CL1  UNL     1      16.561   4.013  51.778  1.00  0.00    -0.081 Cl
HETATM   21  C17 UNL     1      18.273   2.321  51.385  1.00  0.00     0.056 A 
BRANCH  18  22
HETATM   22  O1  UNL     1      15.052   1.905  51.977  1.00  0.00    -0.344 OA
BRANCH  22  23
HETATM   23  C11 UNL     1      13.673   1.583  51.976  1.00  0.00     0.222 C 
BRANCH  23  24
HETATM   24  C12 UNL     1      12.991   2.348  53.033  1.00  0.00     0.006 A 
HETATM   25  C13 UNL     1      12.259   1.960  54.096  1.00  0.00     0.017 A 
HETATM   26  C14 UNL     1      11.711   2.843  54.974  1.00  0.00     0.008 A 
HETATM   27  C15 UNL     1      12.002   4.257  54.643  1.00  0.00     0.050 A 
HETATM   28  S1  UNL     1      13.044   4.086  53.081  1.00  0.00    -0.104 SA
ENDBRANCH  23  24
ENDBRANCH  22  23
ENDBRANCH  18  22
ENDBRANCH  13  15
ENDBRANCH   8  13
TORSDOF 5
ENDMDL
MODEL 5
REMARK VINA RESULT:      -7.5      4.131      8.176
REMARK  5 active torsions:
REMARK  status: ('A' for Active; 'I' for Inactive)
REMARK    1  A    between atoms: C6_8  and  N3_9 
REMARK    2  A    between atoms: N3_9  and  C7_10 
REMARK    3  A    between atoms: C10_13  and  O1_14 
REMARK    4  A    between atoms: O1_14  and  C11_15 
REMARK    5  A    between atoms: C11_15  and  C12_16 
ROOT
HETATM    1  C1  UNL     1      22.437  10.355  47.820  1.00  0.00     0.070 C 
HETATM    2  C2  UNL     1      23.032   9.129  48.372  1.00  0.00     0.030 C 
HETATM    3  N1  UNL     1      22.067   8.290  48.048  1.00  0.00    -0.265 NA
HETATM    4  C3  UNL     1      22.318   6.923  48.443  1.00  0.00     0.139 C 
HETATM    5  C4  UNL     1      22.664   5.716  48.813  1.00  0.00     0.088 C 
HETATM    6  C5  UNL     1      21.601   4.764  48.882  1.00  0.00     0.101 C 
HETATM    7  N2  UNL     1      20.754   3.996  48.957  1.00  0.00    -0.191 NA
HETATM    8  C6  UNL     1      24.132   5.613  49.107  1.00  0.00     0.268 C 
HETATM    9  O2  UNL     1      24.407   5.997  50.369  1.00  0.00    -0.358 OA
HETATM   10  C18 UNL     1      25.322   6.990  50.493  1.00  0.00     0.198 C 
HETATM   11  C19 UNL     1      24.989   8.258  49.828  1.00  0.00     0.001 C 
HETATM   12  C20 UNL     1      24.286   9.108  49.106  1.00  0.00     0.025 C 
ENDROOT
BRANCH   8  13
HETATM   13  N3  UNL     1      24.557   4.213  48.913  1.00  0.00    -0.359 N 
HETATM   14  H6  UNL     1      24.672   3.843  47.959  1.00  0.00     0.162 HD
BRANCH  13  15
HETATM   15  C7  UNL     1      24.835   3.285  49.929  1.00  0.00     0.032 A 
HETATM   16  C8  UNL     1      26.182   3.165  50.135  1.00  0.00     0.032 A 
HETATM   17  C9  UNL     1      26.489   2.277  51.097  1.00  0.00     0.041 A 
HETATM   18  C10 UNL     1      25.987   1.417  51.984  1.00  0.00     0.091 A 
HETATM   19  C16 UNL     1      24.531   1.620  51.684  1.00  0.00     0.069 A 
HETATM   20 CL1  UNL     1      22.974   0.955  52.293  1.00  0.00    -0.081 Cl
HETATM   21  C17 UNL     1      23.964   2.515  50.699  1.00  0.00     0.056 A 
BRANCH  18  22
HETATM   22  O1  UNL     1      25.474   0.548  52.880  1.00  0.00    -0.344 OA
BRANCH  22  23
HETATM   23  C11 UNL     1      26.090   0.260  54.122  1.00  0.00     0.222 C 
BRANCH  23  24
HETATM   24  C12 UNL     1      27.437  -0.286  53.885  1.00  0.00     0.006 A 
HETATM   25  C13 UNL     1      27.861  -1.384  53.230  1.00  0.00     0.017 A 
HETATM   26  C14 UNL     1      29.176  -1.714  53.118  1.00  0.00     0.008 A 
HETATM   27  C15 UNL     1      30.081  -0.748  53.784  1.00  0.00     0.050 A 
HETATM   28  S1  UNL     1      28.863   0.511  54.482  1.00  0.00    -0.104 SA
ENDBRANCH  23  24
ENDBRANCH  22  23
ENDBRANCH  18  22
ENDBRANCH  13  15
ENDBRANCH   8  13
TORSDOF 5
ENDMDL
MODEL 6
REMARK VINA RESULT:      -7.4      8.446     11.951
REMARK  5 active torsions:
REMARK  status: ('A' for Active; 'I' for Inactive)
REMARK    1  A    between atoms: C6_8  and  N3_9 
REMARK    2  A    between atoms: N3_9  and  C7_10 
REMARK    3  A    between atoms: C10_13  and  O1_14 
REMARK    4  A    between atoms: O1_14  and  C11_15 
REMARK    5  A    between atoms: C11_15  and  C12_16 
ROOT
HETATM    1  C1  UNL     1      29.237   2.338  38.772  1.00  0.00     0.070 C 
HETATM    2  C2  UNL     1      30.537   2.709  39.351  1.00  0.00     0.030 C 
HETATM    3  N1  UNL     1      30.351   4.013  39.409  1.00  0.00    -0.265 NA
HETATM    4  C3  UNL     1      31.470   4.744  39.959  1.00  0.00     0.139 C 
HETATM    5  C4  UNL     1      32.524   5.298  40.503  1.00  0.00     0.088 C 
HETATM    6  C5  UNL     1      32.652   6.707  40.302  1.00  0.00     0.101 C 
HETATM    7  N2  UNL     1      32.773   7.833  40.133  1.00  0.00    -0.191 NA
HETATM    8  C6  UNL     1      33.387   4.297  41.213  1.00  0.00     0.268 C 
HETATM    9  O2  UNL     1      34.239   3.693  40.361  1.00  0.00    -0.358 OA
HETATM   10  C18 UNL     1      34.174   2.339  40.329  1.00  0.00     0.198 C 
HETATM   11  C19 UNL     1      32.872   1.766  39.957  1.00  0.00     0.001 C 
HETATM   12  C20 UNL     1      31.601   1.753  39.609  1.00  0.00     0.025 C 
ENDROOT
BRANCH   8  13
HETATM   13  N3  UNL     1      34.153   4.994  42.264  1.00  0.00    -0.359 N 
HETATM   14  H6  UNL     1      35.095   5.354  42.054  1.00  0.00     0.162 HD
BRANCH  13  15
HETATM   15  C7  UNL     1      33.724   5.233  43.580  1.00  0.00     0.032 A 
HETATM   16  C8  UNL     1      33.919   6.539  43.933  1.00  0.00     0.032 A 
HETATM   17  C9  UNL     1      33.527   6.806  45.192  1.00  0.00     0.041 A 
HETATM   18  C10 UNL     1      32.994   6.287  46.299  1.00  0.00     0.091 A 
HETATM   19  C16 UNL     1      32.821   4.877  45.815  1.00  0.00     0.069 A 
HETATM   20 CL1  UNL     1      32.196   3.336  46.502  1.00  0.00    -0.081 Cl
HETATM   21  C17 UNL     1      33.168   4.357  44.511  1.00  0.00     0.056 A 
BRANCH  18  22
HETATM   22  O1  UNL     1      32.455   5.757  47.416  1.00  0.00    -0.344 OA
BRANCH  22  23
HETATM   23  C11 UNL     1      31.955   6.540  48.484  1.00  0.00     0.222 C 
BRANCH  23  24
HETATM   24  C12 UNL     1      30.485   6.582  48.414  1.00  0.00     0.006 A 
HETATM   25  C13 UNL     1      29.564   5.615  48.235  1.00  0.00     0.017 A 
HETATM   26  C14 UNL     1      28.227   5.867  48.208  1.00  0.00     0.008 A 
HETATM   27  C15 UNL     1      27.897   7.299  48.393  1.00  0.00     0.050 A 
HETATM   28  S1  UNL     1      29.605   8.073  48.583  1.00  0.00    -0.104 SA
ENDBRANCH  23  24
ENDBRANCH  22  23
ENDBRANCH  18  22
ENDBRANCH  13  15
ENDBRANCH   8  13
TORSDOF 5
ENDMDL
MODEL 7
REMARK VINA RESULT:      -7.4      3.848      9.283
REMARK  5 active torsions:
REMARK  status: ('A' for Active; 'I' for Inactive)
REMARK    1  A    between atoms: C6_8  and  N3_9 
REMARK    2  A    between atoms: N3_9  and  C7_10 
REMARK    3  A    between atoms: C10_13  and  O1_14 
REMARK    4  A    between atoms: O1_14  and  C11_15 
REMARK    5  A    between atoms: C11_15  and  C12_16 
ROOT
HETATM    1  C1  UNL     1      30.158  12.260  48.990  1.00  0.00     0.070 C 
HETATM    2  C2  UNL     1      29.839  10.940  48.424  1.00  0.00     0.030 C 
HETATM    3  N1  UNL     1      30.626  10.211  49.190  1.00  0.00    -0.265 NA
HETATM    4  C3  UNL     1      30.569   8.794  48.914  1.00  0.00     0.139 C 
HETATM    5  C4  UNL     1      30.411   7.532  48.605  1.00  0.00     0.088 C 
HETATM    6  C5  UNL     1      31.440   6.652  49.062  1.00  0.00     0.101 C 
HETATM    7  N2  UNL     1      32.268   5.940  49.409  1.00  0.00    -0.191 NA
HETATM    8  C6  UNL     1      29.164   7.297  47.804  1.00  0.00     0.268 C 
HETATM    9  O2  UNL     1      29.378   7.514  46.491  1.00  0.00    -0.358 OA
HETATM   10  C18 UNL     1      28.558   8.422  45.906  1.00  0.00     0.198 C 
HETATM   11  C19 UNL     1      28.591   9.778  46.474  1.00  0.00     0.001 C 
HETATM   12  C20 UNL     1      28.954  10.751  47.286  1.00  0.00     0.025 C 
ENDROOT
BRANCH   8  13
HETATM   13  N3  UNL     1      28.725   5.903  48.008  1.00  0.00    -0.359 N 
HETATM   14  H6  UNL     1      29.340   5.128  47.722  1.00  0.00     0.162 HD
BRANCH  13  15
HETATM   15  C7  UNL     1      27.508   5.494  48.577  1.00  0.00     0.032 A 
HETATM   16  C8  UNL     1      26.532   6.432  48.383  1.00  0.00     0.032 A 
HETATM   17  C9  UNL     1      25.352   6.078  48.921  1.00  0.00     0.041 A 
HETATM   18  C10 UNL     1      24.707   5.132  49.605  1.00  0.00     0.091 A 
HETATM   19  C16 UNL     1      25.845   4.167  49.764  1.00  0.00     0.069 A 
HETATM   20 CL1  UNL     1      26.086   2.558  50.534  1.00  0.00    -0.081 Cl
HETATM   21  C17 UNL     1      27.196   4.328  49.275  1.00  0.00     0.056 A 
BRANCH  18  22
HETATM   22  O1  UNL     1      24.060   4.171  50.297  1.00  0.00    -0.344 OA
BRANCH  22  23
HETATM   23  C11 UNL     1      22.995   4.441  51.190  1.00  0.00     0.222 C 
BRANCH  23  24
HETATM   24  C12 UNL     1      22.320   3.181  51.542  1.00  0.00     0.006 A 
HETATM   25  C13 UNL     1      22.715   1.895  51.463  1.00  0.00     0.017 A 
HETATM   26  C14 UNL     1      21.928   0.857  51.854  1.00  0.00     0.008 A 
HETATM   27  C15 UNL     1      20.607   1.285  52.369  1.00  0.00     0.050 A 
HETATM   28  S1  UNL     1      20.712   3.160  52.204  1.00  0.00    -0.104 SA
ENDBRANCH  23  24
ENDBRANCH  22  23
ENDBRANCH  18  22
ENDBRANCH  13  15
ENDBRANCH   8  13
TORSDOF 5
ENDMDL
MODEL 8
REMARK VINA RESULT:      -7.3      5.627      9.625
REMARK  5 active torsions:
REMARK  status: ('A' for Active; 'I' for Inactive)
REMARK    1  A    between atoms: C6_8  and  N3_9 
REMARK    2  A    between atoms: N3_9  and  C7_10 
REMARK    3  A    between atoms: C10_13  and  O1_14 
REMARK    4  A    between atoms: O1_14  and  C11_15 
REMARK    5  A    between atoms: C11_15  and  C12_16 
ROOT
HETATM    1  C1  UNL     1      28.360  -0.141  53.430  1.00  0.00     0.070 C 
HETATM    2  C2  UNL     1      26.948   0.152  53.136  1.00  0.00     0.030 C 
HETATM    3  N1  UNL     1      27.128   1.247  52.425  1.00  0.00    -0.265 NA
HETATM    4  C3  UNL     1      25.904   1.839  51.937  1.00  0.00     0.139 C 
HETATM    5  C4  UNL     1      24.740   2.268  51.517  1.00  0.00     0.088 C 
HETATM    6  C5  UNL     1      24.709   3.622  51.062  1.00  0.00     0.101 C 
HETATM    7  N2  UNL     1      24.669   4.711  50.711  1.00  0.00    -0.191 NA
HETATM    8  C6  UNL     1      23.674   1.217  51.633  1.00  0.00     0.268 C 
HETATM    9  O2  UNL     1      23.138   1.198  52.870  1.00  0.00    -0.358 OA
HETATM   10  C18 UNL     1      23.186   0.005  53.512  1.00  0.00     0.198 C 
HETATM   11  C19 UNL     1      24.528  -0.556  53.726  1.00  0.00     0.001 C 
HETATM   12  C20 UNL     1      25.843  -0.628  53.667  1.00  0.00     0.025 C 
ENDROOT
BRANCH   8  13
HETATM   13  N3  UNL     1      22.619   1.501  50.642  1.00  0.00    -0.359 N 
HETATM   14  H6  UNL     1      22.862   1.557  49.642  1.00  0.00     0.162 HD
BRANCH  13  15
HETATM   15  C7  UNL     1      21.259   1.711  50.918  1.00  0.00     0.032 A 
HETATM   16  C8  UNL     1      20.994   3.038  51.116  1.00  0.00     0.032 A 
HETATM   17  C9  UNL     1      19.700   3.279  51.391  1.00  0.00     0.041 A 
HETATM   18  C10 UNL     1      18.501   2.720  51.559  1.00  0.00     0.091 A 
HETATM   19  C16 UNL     1      18.893   1.291  51.326  1.00  0.00     0.069 A 
HETATM   20 CL1  UNL     1      18.055  -0.302  51.317  1.00  0.00    -0.081 Cl
HETATM   21  C17 UNL     1      20.215   0.792  51.017  1.00  0.00     0.056 A 
BRANCH  18  22
HETATM   22  O1  UNL     1      17.290   2.149  51.728  1.00  0.00    -0.344 OA
BRANCH  22  23
HETATM   23  C11 UNL     1      16.072   2.858  51.592  1.00  0.00     0.222 C 
BRANCH  23  24
HETATM   24  C12 UNL     1      15.013   2.158  52.337  1.00  0.00     0.006 A 
HETATM   25  C13 UNL     1      14.855   0.863  52.674  1.00  0.00     0.017 A 
HETATM   26  C14 UNL     1      13.786   0.412  53.385  1.00  0.00     0.008 A 
HETATM   27  C15 UNL     1      12.827   1.482  53.744  1.00  0.00     0.050 A 
HETATM   28  S1  UNL     1      13.637   3.005  52.983  1.00  0.00    -0.104 SA
ENDBRANCH  23  24
ENDBRANCH  22  23
ENDBRANCH  18  22
ENDBRANCH  13  15
ENDBRANCH   8  13
TORSDOF 5
ENDMDL
MODEL 9
REMARK VINA RESULT:      -7.3      3.329      8.676
REMARK  5 active torsions:
REMARK  status: ('A' for Active; 'I' for Inactive)
REMARK    1  A    between atoms: C6_8  and  N3_9 
REMARK    2  A    between atoms: N3_9  and  C7_10 
REMARK    3  A    between atoms: C10_13  and  O1_14 
REMARK    4  A    between atoms: O1_14  and  C11_15 
REMARK    5  A    between atoms: C11_15  and  C12_16 
ROOT
HETATM    1  C1  UNL     1      30.828  11.366  49.259  1.00  0.00     0.070 C 
HETATM    2  C2  UNL     1      30.111  10.162  48.811  1.00  0.00     0.030 C 
HETATM    3  N1  UNL     1      31.028   9.268  49.129  1.00  0.00    -0.265 NA
HETATM    4  C3  UNL     1      30.652   7.906  48.826  1.00  0.00     0.139 C 
HETATM    5  C4  UNL     1      30.196   6.713  48.545  1.00  0.00     0.088 C 
HETATM    6  C5  UNL     1      31.178   5.678  48.472  1.00  0.00     0.101 C 
HETATM    7  N2  UNL     1      31.960   4.844  48.394  1.00  0.00    -0.191 NA
HETATM    8  C6  UNL     1      28.709   6.709  48.338  1.00  0.00     0.268 C 
HETATM    9  O2  UNL     1      28.390   7.047  47.073  1.00  0.00    -0.358 OA
HETATM   10  C18 UNL     1      27.546   8.100  46.943  1.00  0.00     0.198 C 
HETATM   11  C19 UNL     1      28.011   9.372  47.517  1.00  0.00     0.001 C 
HETATM   12  C20 UNL     1      28.818  10.201  48.149  1.00  0.00     0.025 C 
ENDROOT
BRANCH   8  13
HETATM   13  N3  UNL     1      28.193   5.359  48.633  1.00  0.00    -0.359 N 
HETATM   14  H6  UNL     1      28.779   4.535  48.435  1.00  0.00     0.162 HD
BRANCH  13  15
HETATM   15  C7  UNL     1      26.936   5.054  49.180  1.00  0.00     0.032 A 
HETATM   16  C8  UNL     1      26.732   3.703  49.230  1.00  0.00     0.032 A 
HETATM   17  C9  UNL     1      25.533   3.372  49.741  1.00  0.00     0.041 A 
HETATM   18  C10 UNL     1      24.397   3.851  50.250  1.00  0.00     0.091 A 
HETATM   19  C16 UNL     1      24.716   5.314  50.152  1.00  0.00     0.069 A 
HETATM   20 CL1  UNL     1      23.879   6.855  50.554  1.00  0.00    -0.081 Cl
HETATM   21  C17 UNL     1      25.932   5.906  49.641  1.00  0.00     0.056 A 
BRANCH  18  22
HETATM   22  O1  UNL     1      23.250   4.341  50.763  1.00  0.00    -0.344 OA
BRANCH  22  23
HETATM   23  C11 UNL     1      22.562   3.736  51.843  1.00  0.00     0.222 C 
BRANCH  23  24
HETATM   24  C12 UNL     1      23.352   2.603  52.352  1.00  0.00     0.006 A 
HETATM   25  C13 UNL     1      23.268   1.276  52.133  1.00  0.00     0.017 A 
HETATM   26  C14 UNL     1      24.116   0.379  52.707  1.00  0.00     0.008 A 
HETATM   27  C15 UNL     1      25.127   1.009  53.587  1.00  0.00     0.050 A 
HETATM   28  S1  UNL     1      24.686   2.837  53.444  1.00  0.00    -0.104 SA
ENDBRANCH  23  24
ENDBRANCH  22  23
ENDBRANCH  18  22
ENDBRANCH  13  15
ENDBRANCH   8  13
TORSDOF 5
ENDMDL
