MODEL 1
REMARK VINA RESULT:      -8.4      0.000      0.000
REMARK  4 active torsions:
REMARK  status: ('A' for Active; 'I' for Inactive)
REMARK    1  A    between atoms: N1_1  and  C1_2 
REMARK    2  A    between atoms: C6_8  and  O1_9 
REMARK    3  A    between atoms: O1_9  and  C7_10 
REMARK    4  A    between atoms: C10_13  and  C11_14 
ROOT
HETATM    1  C7  UNL     1      23.308   0.560  52.609  1.00  0.00     0.091 A 
HETATM    2  C8  UNL     1      23.686  -0.394  53.520  1.00  0.00     0.039 A 
HETATM    3  C9  UNL     1      25.007  -0.711  53.759  1.00  0.00     0.016 A 
HETATM    4  C10 UNL     1      26.015  -0.082  53.089  1.00  0.00    -0.005 A 
HETATM    5  C15 UNL     1      25.658   0.879  52.168  1.00  0.00     0.040 A 
HETATM    6  C16 UNL     1      24.341   1.206  51.920  1.00  0.00     0.068 A 
HETATM    7 CL1  UNL     1      23.991   2.452  50.721  1.00  0.00    -0.081 Cl
ENDROOT
BRANCH   1   8
HETATM    8  O1  UNL     1      22.025   0.955  52.292  1.00  0.00    -0.334 OA
BRANCH   8   9
HETATM    9  C6  UNL     1      20.942   0.114  52.048  1.00  0.00     0.202 C 
HETATM   10  C1  UNL     1      20.177  -0.120  53.317  1.00  0.00     0.051 C 
HETATM   11  C2  UNL     1      19.049  -0.806  53.235  1.00  0.00     0.043 C 
HETATM   12  C3  UNL     1      18.258  -0.621  52.191  1.00  0.00     0.129 C 
HETATM   13  F1  UNL     1      17.136  -1.382  52.179  1.00  0.00    -0.205 F 
HETATM   14  C4  UNL     1      18.665   0.356  51.187  1.00  0.00     0.042 C 
HETATM   15  C5  UNL     1      19.953   0.729  51.095  1.00  0.00     0.014 C 
BRANCH  10  16
HETATM   16  N1  UNL     1      20.290   0.187  54.705  1.00  0.00    -0.399 N 
HETATM   17  H1  UNL     1      19.951  -0.674  55.211  1.00  0.00     0.156 HD
HETATM   18  H2  UNL     1      20.659   1.137  54.958  1.00  0.00     0.156 HD
ENDBRANCH  10  16
ENDBRANCH   8   9
ENDBRANCH   1   8
BRANCH   4  19
HETATM   19  C11 UNL     1      27.439  -0.344  53.268  1.00  0.00     0.069 A 
HETATM   20  C12 UNL     1      28.364   0.651  53.507  1.00  0.00     0.052 A 
HETATM   21  C13 UNL     1      29.713   0.426  53.679  1.00  0.00     0.120 A 
HETATM   22  N2  UNL     1      30.161  -0.841  53.611  1.00  0.00    -0.254 NA
HETATM   23  C14 UNL     1      29.266  -1.835  53.377  1.00  0.00     0.233 A 
HETATM   24  N3  UNL     1      27.960  -1.586  53.213  1.00  0.00    -0.241 NA
ENDBRANCH   4  19
TORSDOF 4
ENDMDL
MODEL 2
REMARK VINA RESULT:      -8.1      3.269      7.849
REMARK  4 active torsions:
REMARK  status: ('A' for Active; 'I' for Inactive)
REMARK    1  A    between atoms: N1_1  and  C1_2 
REMARK    2  A    between atoms: C6_8  and  O1_9 
REMARK    3  A    between atoms: O1_9  and  C7_10 
REMARK    4  A    between atoms: C10_13  and  C11_14 
ROOT
HETATM    1  C7  UNL     1      24.319   1.263  52.289  1.00  0.00     0.091 A 
HETATM    2  C8  UNL     1      23.834   0.466  53.295  1.00  0.00     0.039 A 
HETATM    3  C9  UNL     1      22.523   0.039  53.338  1.00  0.00     0.016 A 
HETATM    4  C10 UNL     1      21.634   0.394  52.366  1.00  0.00    -0.005 A 
HETATM    5  C15 UNL     1      22.100   1.196  51.346  1.00  0.00     0.040 A 
HETATM    6  C16 UNL     1      23.408   1.630  51.292  1.00  0.00     0.068 A 
HETATM    7 CL1  UNL     1      23.903   2.652  49.942  1.00  0.00    -0.081 Cl
ENDROOT
BRANCH   1   8
HETATM    8  O1  UNL     1      25.604   1.746  52.148  1.00  0.00    -0.334 OA
BRANCH   8   9
HETATM    9  C6  UNL     1      26.770   0.987  52.126  1.00  0.00     0.202 C 
HETATM   10  C1  UNL     1      27.733   1.495  53.159  1.00  0.00     0.051 C 
HETATM   11  C2  UNL     1      28.848   0.808  53.347  1.00  0.00     0.043 C 
HETATM   12  C3  UNL     1      28.806  -0.513  53.296  1.00  0.00     0.129 C 
HETATM   13  F1  UNL     1      29.999  -1.133  53.478  1.00  0.00    -0.205 F 
HETATM   14  C4  UNL     1      27.516  -1.150  53.054  1.00  0.00     0.042 C 
HETATM   15  C5  UNL     1      26.516  -0.450  52.491  1.00  0.00     0.014 C 
BRANCH  10  16
HETATM   16  N1  UNL     1      27.837   2.576  54.082  1.00  0.00    -0.399 N 
HETATM   17  H1  UNL     1      27.472   3.421  53.566  1.00  0.00     0.156 HD
HETATM   18  H2  UNL     1      28.226   2.361  55.033  1.00  0.00     0.156 HD
ENDBRANCH  10  16
ENDBRANCH   8   9
ENDBRANCH   1   8
BRANCH   4  19
HETATM   19  C11 UNL     1      20.231  -0.004  52.320  1.00  0.00     0.069 A 
HETATM   20  C12 UNL     1      19.381   0.351  51.293  1.00  0.00     0.052 A 
HETATM   21  C13 UNL     1      18.053  -0.014  51.229  1.00  0.00     0.120 A 
HETATM   22  N2  UNL     1      17.551  -0.763  52.227  1.00  0.00    -0.254 NA
HETATM   23  C14 UNL     1      18.371  -1.123  53.247  1.00  0.00     0.233 A 
HETATM   24  N3  UNL     1      19.658  -0.753  53.283  1.00  0.00    -0.241 NA
ENDBRANCH   4  19
TORSDOF 4
ENDMDL
MODEL 3
REMARK VINA RESULT:      -8.0      1.885      2.345
REMARK  4 active torsions:
REMARK  status: ('A' for Active; 'I' for Inactive)
REMARK    1  A    between atoms: N1_1  and  C1_2 
REMARK    2  A    between atoms: C6_8  and  O1_9 
REMARK    3  A    between atoms: O1_9  and  C7_10 
REMARK    4  A    between atoms: C10_13  and  C11_14 
ROOT
HETATM    1  C7  UNL     1      22.361   0.702  53.298  1.00  0.00     0.091 A 
HETATM    2  C8  UNL     1      23.276   1.606  52.819  1.00  0.00     0.039 A 
HETATM    3  C9  UNL     1      24.637   1.430  52.959  1.00  0.00     0.016 A 
HETATM    4  C10 UNL     1      25.145   0.332  53.590  1.00  0.00    -0.005 A 
HETATM    5  C15 UNL     1      24.244  -0.588  54.079  1.00  0.00     0.040 A 
HETATM    6  C16 UNL     1      22.881  -0.425  53.946  1.00  0.00     0.068 A 
HETATM    7 CL1  UNL     1      21.813  -1.664  54.608  1.00  0.00    -0.081 Cl
ENDROOT
BRANCH   1   8
HETATM    8  O1  UNL     1      20.986   0.776  53.215  1.00  0.00    -0.334 OA
BRANCH   8   9
HETATM    9  C6  UNL     1      20.214   0.496  52.092  1.00  0.00     0.202 C 
HETATM   10  C1  UNL     1      19.003  -0.298  52.485  1.00  0.00     0.051 C 
HETATM   11  C2  UNL     1      18.103  -0.549  51.549  1.00  0.00     0.043 C 
HETATM   12  C3  UNL     1      17.830   0.386  50.653  1.00  0.00     0.129 C 
HETATM   13  F1  UNL     1      16.913   0.034  49.718  1.00  0.00    -0.205 F 
HETATM   14  C4  UNL     1      18.526   1.664  50.760  1.00  0.00     0.042 C 
HETATM   15  C5  UNL     1      19.678   1.746  51.448  1.00  0.00     0.014 C 
BRANCH  10  16
HETATM   16  N1  UNL     1      18.468  -0.924  53.649  1.00  0.00    -0.399 N 
HETATM   17  H1  UNL     1      18.961  -0.469  54.463  1.00  0.00     0.156 HD
HETATM   18  H2  UNL     1      17.738  -1.664  53.505  1.00  0.00     0.156 HD
ENDBRANCH  10  16
ENDBRANCH   8   9
ENDBRANCH   1   8
BRANCH   4  19
HETATM   19  C11 UNL     1      26.564   0.055  53.788  1.00  0.00     0.069 A 
HETATM   20  C12 UNL     1      27.266  -0.858  53.030  1.00  0.00     0.052 A 
HETATM   21  C13 UNL     1      28.606  -1.136  53.199  1.00  0.00     0.120 A 
HETATM   22  N2  UNL     1      29.274  -0.478  54.163  1.00  0.00    -0.254 NA
HETATM   23  C14 UNL     1      28.601   0.426  54.921  1.00  0.00     0.233 A 
HETATM   24  N3  UNL     1      27.298   0.674  54.733  1.00  0.00    -0.241 NA
ENDBRANCH   4  19
TORSDOF 4
ENDMDL
MODEL 4
REMARK VINA RESULT:      -7.8      2.493      3.111
REMARK  4 active torsions:
REMARK  status: ('A' for Active; 'I' for Inactive)
REMARK    1  A    between atoms: N1_1  and  C1_2 
REMARK    2  A    between atoms: C6_8  and  O1_9 
REMARK    3  A    between atoms: O1_9  and  C7_10 
REMARK    4  A    between atoms: C10_13  and  C11_14 
ROOT
HETATM    1  C7  UNL     1      22.536   0.908  53.050  1.00  0.00     0.091 A 
HETATM    2  C8  UNL     1      23.494   1.844  52.747  1.00  0.00     0.039 A 
HETATM    3  C9  UNL     1      24.839   1.623  52.953  1.00  0.00     0.016 A 
HETATM    4  C10 UNL     1      25.289   0.446  53.475  1.00  0.00    -0.005 A 
HETATM    5  C15 UNL     1      24.345  -0.508  53.787  1.00  0.00     0.040 A 
HETATM    6  C16 UNL     1      22.996  -0.300  53.586  1.00  0.00     0.068 A 
HETATM    7 CL1  UNL     1      21.870  -1.587  54.020  1.00  0.00    -0.081 Cl
ENDROOT
BRANCH   1   8
HETATM    8  O1  UNL     1      21.171   1.022  52.887  1.00  0.00    -0.334 OA
BRANCH   8   9
HETATM    9  C6  UNL     1      20.494   1.133  51.676  1.00  0.00     0.202 C 
HETATM   10  C1  UNL     1      20.280   2.579  51.338  1.00  0.00     0.051 C 
HETATM   11  C2  UNL     1      19.751   2.861  50.158  1.00  0.00     0.043 C 
HETATM   12  C3  UNL     1      20.102   2.138  49.107  1.00  0.00     0.129 C 
HETATM   13  F1  UNL     1      19.493   2.483  47.945  1.00  0.00    -0.205 F 
HETATM   14  C4  UNL     1      21.080   1.073  49.302  1.00  0.00     0.042 C 
HETATM   15  C5  UNL     1      21.289   0.569  50.530  1.00  0.00     0.014 C 
BRANCH  10  16
HETATM   16  N1  UNL     1      20.483   3.857  51.935  1.00  0.00    -0.399 N 
HETATM   17  H1  UNL     1      20.194   4.558  51.202  1.00  0.00     0.156 HD
HETATM   18  H2  UNL     1      20.854   3.876  52.918  1.00  0.00     0.156 HD
ENDBRANCH  10  16
ENDBRANCH   8   9
ENDBRANCH   1   8
BRANCH   4  19
HETATM   19  C11 UNL     1      26.687   0.116  53.730  1.00  0.00     0.069 A 
HETATM   20  C12 UNL     1      27.366  -0.868  53.042  1.00  0.00     0.052 A 
HETATM   21  C13 UNL     1      28.687  -1.196  53.265  1.00  0.00     0.120 A 
HETATM   22  N2  UNL     1      29.359  -0.517  54.213  1.00  0.00    -0.254 NA
HETATM   23  C14 UNL     1      28.708   0.455  54.902  1.00  0.00     0.233 A 
HETATM   24  N3  UNL     1      27.424   0.752  54.662  1.00  0.00    -0.241 NA
ENDBRANCH   4  19
TORSDOF 4
ENDMDL
MODEL 5
REMARK VINA RESULT:      -7.8      5.827      8.422
REMARK  4 active torsions:
REMARK  status: ('A' for Active; 'I' for Inactive)
REMARK    1  A    between atoms: N1_1  and  C1_2 
REMARK    2  A    between atoms: C6_8  and  O1_9 
REMARK    3  A    between atoms: O1_9  and  C7_10 
REMARK    4  A    between atoms: C10_13  and  C11_14 
ROOT
HETATM    1  C7  UNL     1      25.776   2.749  50.996  1.00  0.00     0.091 A 
HETATM    2  C8  UNL     1      26.624   3.160  49.998  1.00  0.00     0.039 A 
HETATM    3  C9  UNL     1      26.394   4.294  49.247  1.00  0.00     0.016 A 
HETATM    4  C10 UNL     1      25.295   5.072  49.464  1.00  0.00    -0.005 A 
HETATM    5  C15 UNL     1      24.429   4.678  50.461  1.00  0.00     0.040 A 
HETATM    6  C16 UNL     1      24.648   3.547  51.220  1.00  0.00     0.068 A 
HETATM    7 CL1  UNL     1      23.478   3.130  52.473  1.00  0.00    -0.081 Cl
ENDROOT
BRANCH   1   8
HETATM    8  O1  UNL     1      25.908   1.639  51.803  1.00  0.00    -0.334 OA
BRANCH   8   9
HETATM    9  C6  UNL     1      27.069   0.897  51.999  1.00  0.00     0.202 C 
HETATM   10  C1  UNL     1      27.867   1.479  53.128  1.00  0.00     0.051 C 
HETATM   11  C2  UNL     1      28.946   0.822  53.520  1.00  0.00     0.043 C 
HETATM   12  C3  UNL     1      28.920  -0.501  53.544  1.00  0.00     0.129 C 
HETATM   13  F1  UNL     1      30.076  -1.091  53.935  1.00  0.00    -0.205 F 
HETATM   14  C4  UNL     1      27.682  -1.170  53.155  1.00  0.00     0.042 C 
HETATM   15  C5  UNL     1      26.772  -0.519  52.410  1.00  0.00     0.014 C 
BRANCH  10  16
HETATM   16  N1  UNL     1      27.829   2.615  53.989  1.00  0.00    -0.399 N 
HETATM   17  H1  UNL     1      27.400   2.271  54.889  1.00  0.00     0.156 HD
HETATM   18  H2  UNL     1      28.203   3.519  53.609  1.00  0.00     0.156 HD
ENDBRANCH  10  16
ENDBRANCH   8   9
ENDBRANCH   1   8
BRANCH   4  19
HETATM   19  C11 UNL     1      24.962   6.287  48.727  1.00  0.00     0.069 A 
HETATM   20  C12 UNL     1      25.907   7.066  48.095  1.00  0.00     0.052 A 
HETATM   21  C13 UNL     1      25.615   8.217  47.393  1.00  0.00     0.120 A 
HETATM   22  N2  UNL     1      24.330   8.607  47.318  1.00  0.00    -0.254 NA
HETATM   23  C14 UNL     1      23.384   7.853  47.934  1.00  0.00     0.233 A 
HETATM   24  N3  UNL     1      23.698   6.739  48.609  1.00  0.00    -0.241 NA
ENDBRANCH   4  19
TORSDOF 4
ENDMDL
MODEL 6
REMARK VINA RESULT:      -7.7      4.912      8.367
REMARK  4 active torsions:
REMARK  status: ('A' for Active; 'I' for Inactive)
REMARK    1  A    between atoms: N1_1  and  C1_2 
REMARK    2  A    between atoms: C6_8  and  O1_9 
REMARK    3  A    between atoms: O1_9  and  C7_10 
REMARK    4  A    between atoms: C10_13  and  C11_14 
ROOT
HETATM    1  C7  UNL     1      26.053   2.539  51.508  1.00  0.00     0.091 A 
HETATM    2  C8  UNL     1      26.485   3.183  50.376  1.00  0.00     0.039 A 
HETATM    3  C9  UNL     1      25.620   3.624  49.396  1.00  0.00     0.016 A 
HETATM    4  C10 UNL     1      24.273   3.437  49.508  1.00  0.00    -0.005 A 
HETATM    5  C15 UNL     1      23.817   2.792  50.638  1.00  0.00     0.040 A 
HETATM    6  C16 UNL     1      24.671   2.347  51.625  1.00  0.00     0.068 A 
HETATM    7 CL1  UNL     1      23.985   1.532  53.032  1.00  0.00    -0.081 Cl
ENDROOT
BRANCH   1   8
HETATM    8  O1  UNL     1      26.825   2.059  52.546  1.00  0.00    -0.334 OA
BRANCH   8   9
HETATM    9  C6  UNL     1      27.730   1.004  52.478  1.00  0.00     0.202 C 
HETATM   10  C1  UNL     1      28.693   1.078  53.625  1.00  0.00     0.051 C 
HETATM   11  C2  UNL     1      29.549   0.080  53.773  1.00  0.00     0.043 C 
HETATM   12  C3  UNL     1      29.145  -1.156  53.526  1.00  0.00     0.129 C 
HETATM   13  F1  UNL     1      30.094  -2.111  53.681  1.00  0.00    -0.205 F 
HETATM   14  C4  UNL     1      27.757  -1.356  53.122  1.00  0.00     0.042 C 
HETATM   15  C5  UNL     1      27.051  -0.332  52.613  1.00  0.00     0.014 C 
BRANCH  10  16
HETATM   16  N1  UNL     1      29.007   1.959  54.701  1.00  0.00    -0.399 N 
HETATM   17  H1  UNL     1      29.348   1.337  55.482  1.00  0.00     0.156 HD
HETATM   18  H2  UNL     1      28.857   2.986  54.542  1.00  0.00     0.156 HD
ENDBRANCH  10  16
ENDBRANCH   8   9
ENDBRANCH   1   8
BRANCH   4  19
HETATM   19  C11 UNL     1      23.278   3.864  48.531  1.00  0.00     0.069 A 
HETATM   20  C12 UNL     1      22.394   2.995  47.928  1.00  0.00     0.052 A 
HETATM   21  C13 UNL     1      21.445   3.376  47.003  1.00  0.00     0.120 A 
HETATM   22  N2  UNL     1      21.374   4.676  46.664  1.00  0.00    -0.254 NA
HETATM   23  C14 UNL     1      22.235   5.549  47.247  1.00  0.00     0.233 A 
HETATM   24  N3  UNL     1      23.147   5.148  48.143  1.00  0.00    -0.241 NA
ENDBRANCH   4  19
TORSDOF 4
ENDMDL
MODEL 7
REMARK VINA RESULT:      -7.7      3.971      8.157
REMARK  4 active torsions:
REMARK  status: ('A' for Active; 'I' for Inactive)
REMARK    1  A    between atoms: N1_1  and  C1_2 
REMARK    2  A    between atoms: C6_8  and  O1_9 
REMARK    3  A    between atoms: O1_9  and  C7_10 
REMARK    4  A    between atoms: C10_13  and  C11_14 
ROOT
HETATM    1  C7  UNL     1      24.391   0.180  52.810  1.00  0.00     0.091 A 
HETATM    2  C8  UNL     1      24.502   1.131  51.827  1.00  0.00     0.039 A 
HETATM    3  C9  UNL     1      23.448   1.939  51.452  1.00  0.00     0.016 A 
HETATM    4  C10 UNL     1      22.227   1.828  52.051  1.00  0.00    -0.005 A 
HETATM    5  C15 UNL     1      22.093   0.878  53.040  1.00  0.00     0.040 A 
HETATM    6  C16 UNL     1      23.139   0.064  53.424  1.00  0.00     0.068 A 
HETATM    7 CL1  UNL     1      22.862  -1.120  54.703  1.00  0.00    -0.081 Cl
ENDROOT
BRANCH   1   8
HETATM    8  O1  UNL     1      25.373  -0.677  53.262  1.00  0.00    -0.334 OA
BRANCH   8   9
HETATM    9  C6  UNL     1      26.733  -0.593  52.978  1.00  0.00     0.202 C 
HETATM   10  C1  UNL     1      27.447   0.116  54.091  1.00  0.00     0.051 C 
HETATM   11  C2  UNL     1      28.767   0.178  54.031  1.00  0.00     0.043 C 
HETATM   12  C3  UNL     1      29.440  -0.867  53.578  1.00  0.00     0.129 C 
HETATM   13  F1  UNL     1      30.786  -0.707  53.530  1.00  0.00    -0.205 F 
HETATM   14  C4  UNL     1      28.685  -2.053  53.186  1.00  0.00     0.042 C 
HETATM   15  C5  UNL     1      27.378  -1.949  52.891  1.00  0.00     0.014 C 
BRANCH  10  16
HETATM   16  N1  UNL     1      27.127   0.804  55.298  1.00  0.00    -0.399 N 
HETATM   17  H1  UNL     1      26.075   0.871  55.312  1.00  0.00     0.156 HD
HETATM   18  H2  UNL     1      27.928   1.099  55.910  1.00  0.00     0.156 HD
ENDBRANCH  10  16
ENDBRANCH   8   9
ENDBRANCH   1   8
BRANCH   4  19
HETATM   19  C11 UNL     1      21.054   2.632  51.728  1.00  0.00     0.069 A 
HETATM   20  C12 UNL     1      19.765   2.230  52.010  1.00  0.00     0.052 A 
HETATM   21  C13 UNL     1      18.642   2.973  51.715  1.00  0.00     0.120 A 
HETATM   22  N2  UNL     1      18.808   4.165  51.114  1.00  0.00    -0.254 NA
HETATM   23  C14 UNL     1      20.069   4.579  50.827  1.00  0.00     0.233 A 
HETATM   24  N3  UNL     1      21.142   3.835  51.127  1.00  0.00    -0.241 NA
ENDBRANCH   4  19
TORSDOF 4
ENDMDL
MODEL 8
REMARK VINA RESULT:      -7.6      3.556      8.353
REMARK  4 active torsions:
REMARK  status: ('A' for Active; 'I' for Inactive)
REMARK    1  A    between atoms: N1_1  and  C1_2 
REMARK    2  A    between atoms: C6_8  and  O1_9 
REMARK    3  A    between atoms: O1_9  and  C7_10 
REMARK    4  A    between atoms: C10_13  and  C11_14 
ROOT
HETATM    1  C7  UNL     1      22.915  -0.053  52.949  1.00  0.00     0.091 A 
HETATM    2  C8  UNL     1      22.352   0.571  51.864  1.00  0.00     0.039 A 
HETATM    3  C9  UNL     1      20.991   0.586  51.639  1.00  0.00     0.016 A 
HETATM    4  C10 UNL     1      20.127  -0.027  52.498  1.00  0.00    -0.005 A 
HETATM    5  C15 UNL     1      20.671  -0.660  53.595  1.00  0.00     0.040 A 
HETATM    6  C16 UNL     1      22.030  -0.683  53.832  1.00  0.00     0.068 A 
HETATM    7 CL1  UNL     1      22.623  -1.520  55.267  1.00  0.00    -0.081 Cl
ENDROOT
BRANCH   1   8
HETATM    8  O1  UNL     1      24.254  -0.130  53.271  1.00  0.00    -0.334 OA
BRANCH   8   9
HETATM    9  C6  UNL     1      25.160   0.926  53.279  1.00  0.00     0.202 C 
HETATM   10  C1  UNL     1      26.302   0.616  54.202  1.00  0.00     0.051 C 
HETATM   11  C2  UNL     1      27.312   1.470  54.236  1.00  0.00     0.043 C 
HETATM   12  C3  UNL     1      27.707   2.045  53.111  1.00  0.00     0.129 C 
HETATM   13  F1  UNL     1      28.732   2.922  53.245  1.00  0.00    -0.205 F 
HETATM   14  C4  UNL     1      27.017   1.684  51.878  1.00  0.00     0.042 C 
HETATM   15  C5  UNL     1      25.787   1.144  51.929  1.00  0.00     0.014 C 
BRANCH  10  16
HETATM   16  N1  UNL     1      26.678  -0.394  55.135  1.00  0.00    -0.399 N 
HETATM   17  H1  UNL     1      26.887   0.117  56.033  1.00  0.00     0.156 HD
HETATM   18  H2  UNL     1      26.680  -1.387  54.793  1.00  0.00     0.156 HD
ENDBRANCH  10  16
ENDBRANCH   8   9
ENDBRANCH   1   8
BRANCH   4  19
HETATM   19  C11 UNL     1      18.677  -0.067  52.350  1.00  0.00     0.069 A 
HETATM   20  C12 UNL     1      17.896  -1.081  52.864  1.00  0.00     0.052 A 
HETATM   21  C13 UNL     1      16.524  -1.139  52.736  1.00  0.00     0.120 A 
HETATM   22  N2  UNL     1      15.905  -0.148  52.071  1.00  0.00    -0.254 NA
HETATM   23  C14 UNL     1      16.656   0.860  51.558  1.00  0.00     0.233 A 
HETATM   24  N3  UNL     1      17.988   0.889  51.697  1.00  0.00    -0.241 NA
ENDBRANCH   4  19
TORSDOF 4
ENDMDL
MODEL 9
REMARK VINA RESULT:      -7.5      3.736      8.236
REMARK  4 active torsions:
REMARK  status: ('A' for Active; 'I' for Inactive)
REMARK    1  A    between atoms: N1_1  and  C1_2 
REMARK    2  A    between atoms: C6_8  and  O1_9 
REMARK    3  A    between atoms: O1_9  and  C7_10 
REMARK    4  A    between atoms: C10_13  and  C11_14 
ROOT
HETATM    1  C7  UNL     1      23.008   0.141  52.779  1.00  0.00     0.091 A 
HETATM    2  C8  UNL     1      22.900   1.056  51.761  1.00  0.00     0.039 A 
HETATM    3  C9  UNL     1      21.702   1.645  51.416  1.00  0.00     0.016 A 
HETATM    4  C10 UNL     1      20.550   1.343  52.081  1.00  0.00    -0.005 A 
HETATM    5  C15 UNL     1      20.635   0.427  53.107  1.00  0.00     0.040 A 
HETATM    6  C16 UNL     1      21.827  -0.170  53.462  1.00  0.00     0.068 A 
HETATM    7 CL1  UNL     1      21.827  -1.330  54.791  1.00  0.00    -0.081 Cl
ENDROOT
BRANCH   1   8
HETATM    8  O1  UNL     1      24.148  -0.507  53.206  1.00  0.00    -0.334 OA
BRANCH   8   9
HETATM    9  C6  UNL     1      25.398   0.072  53.405  1.00  0.00     0.202 C 
HETATM   10  C1  UNL     1      25.911  -0.269  54.773  1.00  0.00     0.051 C 
HETATM   11  C2  UNL     1      27.142   0.109  55.078  1.00  0.00     0.043 C 
HETATM   12  C3  UNL     1      28.083   0.045  54.150  1.00  0.00     0.129 C 
HETATM   13  F1  UNL     1      29.307   0.474  54.545  1.00  0.00    -0.205 F 
HETATM   14  C4  UNL     1      27.715  -0.465  52.834  1.00  0.00     0.042 C 
HETATM   15  C5  UNL     1      26.428  -0.463  52.448  1.00  0.00     0.014 C 
BRANCH  10  16
HETATM   16  N1  UNL     1      25.454  -0.929  55.951  1.00  0.00    -0.399 N 
HETATM   17  H1  UNL     1      26.159  -0.689  56.698  1.00  0.00     0.156 HD
HETATM   18  H2  UNL     1      24.571  -1.492  55.875  1.00  0.00     0.156 HD
ENDBRANCH  10  16
ENDBRANCH   8   9
ENDBRANCH   1   8
BRANCH   4  19
HETATM   19  C11 UNL     1      19.237   1.911  51.795  1.00  0.00     0.069 A 
HETATM   20  C12 UNL     1      19.019   3.263  51.635  1.00  0.00     0.052 A 
HETATM   21  C13 UNL     1      17.788   3.820  51.363  1.00  0.00     0.120 A 
HETATM   22  N2  UNL     1      16.730   2.998  51.246  1.00  0.00    -0.254 NA
HETATM   23  C14 UNL     1      16.922   1.663  51.400  1.00  0.00     0.233 A 
HETATM   24  N3  UNL     1      18.132   1.150  51.664  1.00  0.00    -0.241 NA
ENDBRANCH   4  19
TORSDOF 4
ENDMDL
