MODEL 1
REMARK VINA RESULT:      -8.1      0.000      0.000
REMARK  5 active torsions:
REMARK  status: ('A' for Active; 'I' for Inactive)
REMARK    1  A    between atoms: C5_6  and  C6_7 
REMARK    2  A    between atoms: C6_7  and  O1_8 
REMARK    3  A    between atoms: O1_8  and  C7_9 
REMARK    4  A    between atoms: C10_12  and  N1_13 
REMARK    5  A    between atoms: N1_13  and  C11_14 
ROOT
HETATM    1  C7  UNL     1      21.950   0.752  53.018  1.00  0.00     0.091 A 
HETATM    2  C8  UNL     1      22.573   1.565  52.094  1.00  0.00     0.041 A 
HETATM    3  C9  UNL     1      23.923   1.372  51.898  1.00  0.00     0.032 A 
HETATM    4  C10 UNL     1      24.717   0.453  52.527  1.00  0.00     0.035 A 
HETATM    5  C15 UNL     1      24.038  -0.329  53.438  1.00  0.00     0.056 A 
HETATM    6  C16 UNL     1      22.692  -0.193  53.687  1.00  0.00     0.069 A 
HETATM    7 CL1  UNL     1      21.926  -1.238  54.865  1.00  0.00    -0.081 Cl
ENDROOT
BRANCH   1   8
HETATM    8  O1  UNL     1      20.588   0.895  53.264  1.00  0.00    -0.345 OA
BRANCH   8   9
HETATM    9  C6  UNL     1      19.675   0.934  52.182  1.00  0.00     0.214 C 
BRANCH   9  10
HETATM   10  C5  UNL     1      18.580  -0.055  52.315  1.00  0.00    -0.031 A 
HETATM   11  C4  UNL     1      17.449  -0.009  51.540  1.00  0.00     0.009 A 
HETATM   12  C3  UNL     1      16.407  -0.908  51.631  1.00  0.00     0.004 A 
HETATM   13  C2  UNL     1      16.531  -1.912  52.570  1.00  0.00     0.042 A 
HETATM   14  C1  UNL     1      17.635  -2.007  53.368  1.00  0.00     0.117 A 
HETATM   15  F1  UNL     1      17.817  -2.973  54.311  1.00  0.00    -0.206 F 
HETATM   16  C17 UNL     1      18.654  -1.081  53.238  1.00  0.00     0.051 A 
ENDBRANCH   9  10
ENDBRANCH   8   9
ENDBRANCH   1   8
BRANCH   4  17
HETATM   17  N1  UNL     1      26.095   0.261  52.321  1.00  0.00    -0.341 N 
HETATM   18  H8  UNL     1      26.380  -0.273  51.461  1.00  0.00     0.167 HD
BRANCH  17  19
HETATM   19  C11 UNL     1      27.164   0.704  53.141  1.00  0.00     0.130 A 
HETATM   20  C12 UNL     1      27.705   1.964  52.983  1.00  0.00     0.070 A 
HETATM   21  C13 UNL     1      28.729   2.490  53.713  1.00  0.00     0.122 A 
HETATM   22  N2  UNL     1      29.255   1.691  54.679  1.00  0.00    -0.254 NA
HETATM   23  C14 UNL     1      28.769   0.447  54.884  1.00  0.00     0.234 A 
HETATM   24  N3  UNL     1      27.775   0.028  54.125  1.00  0.00    -0.225 NA
ENDBRANCH  17  19
ENDBRANCH   4  17
TORSDOF 5
ENDMDL
MODEL 2
REMARK VINA RESULT:      -7.8      4.419      9.105
REMARK  5 active torsions:
REMARK  status: ('A' for Active; 'I' for Inactive)
REMARK    1  A    between atoms: C5_6  and  C6_7 
REMARK    2  A    between atoms: C6_7  and  O1_8 
REMARK    3  A    between atoms: O1_8  and  C7_9 
REMARK    4  A    between atoms: C10_12  and  N1_13 
REMARK    5  A    between atoms: N1_13  and  C11_14 
ROOT
HETATM    1  C7  UNL     1      23.489  -0.134  53.868  1.00  0.00     0.091 A 
HETATM    2  C8  UNL     1      23.007  -1.175  54.635  1.00  0.00     0.041 A 
HETATM    3  C9  UNL     1      21.645  -1.380  54.629  1.00  0.00     0.032 A 
HETATM    4  C10 UNL     1      20.712  -0.656  53.939  1.00  0.00     0.035 A 
HETATM    5  C15 UNL     1      21.255   0.370  53.193  1.00  0.00     0.056 A 
HETATM    6  C16 UNL     1      22.604   0.635  53.150  1.00  0.00     0.069 A 
HETATM    7 CL1  UNL     1      23.189   1.962  52.169  1.00  0.00    -0.081 Cl
ENDROOT
BRANCH   1   8
HETATM    8  O1  UNL     1      24.855   0.126  53.830  1.00  0.00    -0.345 OA
BRANCH   8   9
HETATM    9  C6  UNL     1      25.712  -0.701  53.062  1.00  0.00     0.214 C 
BRANCH   9  10
HETATM   10  C5  UNL     1      27.145  -0.385  53.257  1.00  0.00    -0.031 A 
HETATM   11  C4  UNL     1      28.124  -1.343  53.193  1.00  0.00     0.009 A 
HETATM   12  C3  UNL     1      29.470  -1.094  53.368  1.00  0.00     0.004 A 
HETATM   13  C2  UNL     1      29.833   0.214  53.623  1.00  0.00     0.042 A 
HETATM   14  C1  UNL     1      28.900   1.208  53.696  1.00  0.00     0.117 A 
HETATM   15  F1  UNL     1      29.194   2.516  53.943  1.00  0.00    -0.206 F 
HETATM   16  C17 UNL     1      27.563   0.908  53.513  1.00  0.00     0.051 A 
ENDBRANCH   9  10
ENDBRANCH   8   9
ENDBRANCH   1   8
BRANCH   4  17
HETATM   17  N1  UNL     1      19.322  -0.870  53.938  1.00  0.00    -0.341 N 
HETATM   18  H8  UNL     1      18.883  -1.161  54.849  1.00  0.00     0.167 HD
BRANCH  17  19
HETATM   19  C11 UNL     1      18.426  -0.744  52.847  1.00  0.00     0.130 A 
HETATM   20  C12 UNL     1      17.155  -1.280  52.907  1.00  0.00     0.070 A 
HETATM   21  C13 UNL     1      16.215  -1.217  51.922  1.00  0.00     0.122 A 
HETATM   22  N2  UNL     1      16.575  -0.565  50.784  1.00  0.00    -0.254 NA
HETATM   23  C14 UNL     1      17.805  -0.018  50.664  1.00  0.00     0.234 A 
HETATM   24  N3  UNL     1      18.645  -0.132  51.675  1.00  0.00    -0.225 NA
ENDBRANCH  17  19
ENDBRANCH   4  17
TORSDOF 5
ENDMDL
MODEL 3
REMARK VINA RESULT:      -7.7      4.476      9.073
REMARK  5 active torsions:
REMARK  status: ('A' for Active; 'I' for Inactive)
REMARK    1  A    between atoms: C5_6  and  C6_7 
REMARK    2  A    between atoms: C6_7  and  O1_8 
REMARK    3  A    between atoms: O1_8  and  C7_9 
REMARK    4  A    between atoms: C10_12  and  N1_13 
REMARK    5  A    between atoms: N1_13  and  C11_14 
ROOT
HETATM    1  C7  UNL     1      23.088  -0.404  53.206  1.00  0.00     0.091 A 
HETATM    2  C8  UNL     1      22.396   0.096  52.122  1.00  0.00     0.041 A 
HETATM    3  C9  UNL     1      21.022   0.118  52.211  1.00  0.00     0.032 A 
HETATM    4  C10 UNL     1      20.264  -0.306  53.268  1.00  0.00     0.035 A 
HETATM    5  C15 UNL     1      21.012  -0.794  54.319  1.00  0.00     0.056 A 
HETATM    6  C16 UNL     1      22.386  -0.848  54.301  1.00  0.00     0.069 A 
HETATM    7 CL1  UNL     1      23.240  -1.487  55.690  1.00  0.00    -0.081 Cl
ENDROOT
BRANCH   1   8
HETATM    8  O1  UNL     1      24.478  -0.454  53.180  1.00  0.00    -0.345 OA
BRANCH   8   9
HETATM    9  C6  UNL     1      25.234   0.682  53.561  1.00  0.00     0.214 C 
BRANCH   9  10
HETATM   10  C5  UNL     1      26.690   0.417  53.610  1.00  0.00    -0.031 A 
HETATM   11  C4  UNL     1      27.241  -0.750  53.145  1.00  0.00     0.009 A 
HETATM   12  C3  UNL     1      28.591  -1.038  53.172  1.00  0.00     0.004 A 
HETATM   13  C2  UNL     1      29.422  -0.074  53.706  1.00  0.00     0.042 A 
HETATM   14  C1  UNL     1      28.928   1.106  54.182  1.00  0.00     0.117 A 
HETATM   15  F1  UNL     1      29.695   2.096  54.720  1.00  0.00    -0.206 F 
HETATM   16  C17 UNL     1      27.568   1.348  54.133  1.00  0.00     0.051 A 
ENDBRANCH   9  10
ENDBRANCH   8   9
ENDBRANCH   1   8
BRANCH   4  17
HETATM   17  N1  UNL     1      18.860  -0.281  53.353  1.00  0.00    -0.341 N 
HETATM   18  H8  UNL     1      18.409   0.656  53.515  1.00  0.00     0.167 HD
BRANCH  17  19
HETATM   19  C11 UNL     1      17.965  -1.375  53.246  1.00  0.00     0.130 A 
HETATM   20  C12 UNL     1      16.782  -1.257  52.544  1.00  0.00     0.070 A 
HETATM   21  C13 UNL     1      15.852  -2.240  52.377  1.00  0.00     0.122 A 
HETATM   22  N2  UNL     1      16.128  -3.437  52.959  1.00  0.00    -0.254 NA
HETATM   23  C14 UNL     1      17.270  -3.616  53.659  1.00  0.00     0.234 A 
HETATM   24  N3  UNL     1      18.108  -2.603  53.764  1.00  0.00    -0.225 NA
ENDBRANCH  17  19
ENDBRANCH   4  17
TORSDOF 5
ENDMDL
MODEL 4
REMARK VINA RESULT:      -7.7      6.047      8.219
REMARK  5 active torsions:
REMARK  status: ('A' for Active; 'I' for Inactive)
REMARK    1  A    between atoms: C5_6  and  C6_7 
REMARK    2  A    between atoms: C6_7  and  O1_8 
REMARK    3  A    between atoms: O1_8  and  C7_9 
REMARK    4  A    between atoms: C10_12  and  N1_13 
REMARK    5  A    between atoms: N1_13  and  C11_14 
ROOT
HETATM    1  C7  UNL     1      25.463   2.399  51.257  1.00  0.00     0.091 A 
HETATM    2  C8  UNL     1      26.555   2.606  50.440  1.00  0.00     0.041 A 
HETATM    3  C9  UNL     1      26.594   3.785  49.730  1.00  0.00     0.032 A 
HETATM    4  C10 UNL     1      25.657   4.782  49.750  1.00  0.00     0.035 A 
HETATM    5  C15 UNL     1      24.590   4.518  50.584  1.00  0.00     0.056 A 
HETATM    6  C16 UNL     1      24.483   3.362  51.322  1.00  0.00     0.069 A 
HETATM    7 CL1  UNL     1      23.087   3.124  52.351  1.00  0.00    -0.081 Cl
ENDROOT
BRANCH   1   8
HETATM    8  O1  UNL     1      25.363   1.227  52.001  1.00  0.00    -0.345 OA
BRANCH   8   9
HETATM    9  C6  UNL     1      25.942   1.157  53.291  1.00  0.00     0.214 C 
BRANCH   9  10
HETATM   10  C5  UNL     1      27.202   0.382  53.317  1.00  0.00    -0.031 A 
HETATM   11  C4  UNL     1      28.414   0.957  53.604  1.00  0.00     0.009 A 
HETATM   12  C3  UNL     1      29.612   0.272  53.639  1.00  0.00     0.004 A 
HETATM   13  C2  UNL     1      29.564  -1.080  53.364  1.00  0.00     0.042 A 
HETATM   14  C1  UNL     1      28.385  -1.705  53.072  1.00  0.00     0.117 A 
HETATM   15  F1  UNL     1      28.272  -3.034  52.793  1.00  0.00    -0.206 F 
HETATM   16  C17 UNL     1      27.211  -0.975  53.050  1.00  0.00     0.051 A 
ENDBRANCH   9  10
ENDBRANCH   8   9
ENDBRANCH   1   8
BRANCH   4  17
HETATM   17  N1  UNL     1      25.702   5.985  49.023  1.00  0.00    -0.341 N 
HETATM   18  H8  UNL     1      24.991   6.108  48.258  1.00  0.00     0.167 HD
BRANCH  17  19
HETATM   19  C11 UNL     1      26.601   7.069  49.194  1.00  0.00     0.130 A 
HETATM   20  C12 UNL     1      27.773   7.140  48.467  1.00  0.00     0.070 A 
HETATM   21  C13 UNL     1      28.705   8.131  48.550  1.00  0.00     0.122 A 
HETATM   22  N2  UNL     1      28.443   9.133  49.432  1.00  0.00    -0.254 NA
HETATM   23  C14 UNL     1      27.313   9.121  50.172  1.00  0.00     0.234 A 
HETATM   24  N3  UNL     1      26.472   8.116  50.020  1.00  0.00    -0.225 NA
ENDBRANCH  17  19
ENDBRANCH   4  17
TORSDOF 5
ENDMDL
MODEL 5
REMARK VINA RESULT:      -7.7      4.169      8.805
REMARK  5 active torsions:
REMARK  status: ('A' for Active; 'I' for Inactive)
REMARK    1  A    between atoms: C5_6  and  C6_7 
REMARK    2  A    between atoms: C6_7  and  O1_8 
REMARK    3  A    between atoms: O1_8  and  C7_9 
REMARK    4  A    between atoms: C10_12  and  N1_13 
REMARK    5  A    between atoms: N1_13  and  C11_14 
ROOT
HETATM    1  C7  UNL     1      23.913  -0.227  53.508  1.00  0.00     0.091 A 
HETATM    2  C8  UNL     1      23.805   0.693  52.486  1.00  0.00     0.041 A 
HETATM    3  C9  UNL     1      22.570   1.272  52.291  1.00  0.00     0.032 A 
HETATM    4  C10 UNL     1      21.431   1.030  53.009  1.00  0.00     0.035 A 
HETATM    5  C15 UNL     1      21.603   0.103  54.015  1.00  0.00     0.056 A 
HETATM    6  C16 UNL     1      22.805  -0.517  54.268  1.00  0.00     0.069 A 
HETATM    7 CL1  UNL     1      22.915  -1.681  55.572  1.00  0.00    -0.081 Cl
ENDROOT
BRANCH   1   8
HETATM    8  O1  UNL     1      25.132  -0.849  53.758  1.00  0.00    -0.345 OA
BRANCH   8   9
HETATM    9  C6  UNL     1      26.075  -1.002  52.711  1.00  0.00     0.214 C 
BRANCH   9  10
HETATM   10  C5  UNL     1      27.412  -0.468  53.056  1.00  0.00    -0.031 A 
HETATM   11  C4  UNL     1      28.506  -1.277  53.226  1.00  0.00     0.009 A 
HETATM   12  C3  UNL     1      29.768  -0.821  53.548  1.00  0.00     0.004 A 
HETATM   13  C2  UNL     1      29.917   0.542  53.703  1.00  0.00     0.042 A 
HETATM   14  C1  UNL     1      28.863   1.395  53.544  1.00  0.00     0.117 A 
HETATM   15  F1  UNL     1      28.945   2.748  53.683  1.00  0.00    -0.206 F 
HETATM   16  C17 UNL     1      27.617   0.890  53.222  1.00  0.00     0.051 A 
ENDBRANCH   9  10
ENDBRANCH   8   9
ENDBRANCH   1   8
BRANCH   4  17
HETATM   17  N1  UNL     1      20.174   1.625  52.805  1.00  0.00    -0.341 N 
HETATM   18  H8  UNL     1      19.870   2.353  53.502  1.00  0.00     0.167 HD
BRANCH  17  19
HETATM   19  C11 UNL     1      19.249   1.363  51.762  1.00  0.00     0.130 A 
HETATM   20  C12 UNL     1      18.535   0.183  51.727  1.00  0.00     0.070 A 
HETATM   21  C13 UNL     1      17.624  -0.171  50.776  1.00  0.00     0.122 A 
HETATM   22  N2  UNL     1      17.411   0.729  49.780  1.00  0.00    -0.254 NA
HETATM   23  C14 UNL     1      18.079   1.903  49.757  1.00  0.00     0.234 A 
HETATM   24  N3  UNL     1      18.941   2.154  50.724  1.00  0.00    -0.225 NA
ENDBRANCH  17  19
ENDBRANCH   4  17
TORSDOF 5
ENDMDL
MODEL 6
REMARK VINA RESULT:      -7.6      1.797      2.133
REMARK  5 active torsions:
REMARK  status: ('A' for Active; 'I' for Inactive)
REMARK    1  A    between atoms: C5_6  and  C6_7 
REMARK    2  A    between atoms: C6_7  and  O1_8 
REMARK    3  A    between atoms: O1_8  and  C7_9 
REMARK    4  A    between atoms: C10_12  and  N1_13 
REMARK    5  A    between atoms: N1_13  and  C11_14 
ROOT
HETATM    1  C7  UNL     1      22.588   0.455  52.036  1.00  0.00     0.091 A 
HETATM    2  C8  UNL     1      22.565  -0.465  53.064  1.00  0.00     0.041 A 
HETATM    3  C9  UNL     1      23.687  -0.547  53.858  1.00  0.00     0.032 A 
HETATM    4  C10 UNL     1      24.831   0.194  53.736  1.00  0.00     0.035 A 
HETATM    5  C15 UNL     1      24.793   1.094  52.692  1.00  0.00     0.056 A 
HETATM    6  C16 UNL     1      23.708   1.231  51.857  1.00  0.00     0.069 A 
HETATM    7 CL1  UNL     1      23.764   2.406  50.560  1.00  0.00    -0.081 Cl
ENDROOT
BRANCH   1   8
HETATM    8  O1  UNL     1      21.486   0.587  51.197  1.00  0.00    -0.345 OA
BRANCH   8   9
HETATM    9  C6  UNL     1      20.346   1.305  51.634  1.00  0.00     0.214 C 
BRANCH   9  10
HETATM   10  C5  UNL     1      19.127   0.467  51.704  1.00  0.00    -0.031 A 
HETATM   11  C4  UNL     1      18.160   0.493  50.731  1.00  0.00     0.009 A 
HETATM   12  C3  UNL     1      17.011  -0.270  50.757  1.00  0.00     0.004 A 
HETATM   13  C2  UNL     1      16.843  -1.108  51.841  1.00  0.00     0.042 A 
HETATM   14  C1  UNL     1      17.774  -1.175  52.837  1.00  0.00     0.117 A 
HETATM   15  F1  UNL     1      17.667  -1.981  53.931  1.00  0.00    -0.206 F 
HETATM   16  C17 UNL     1      18.910  -0.390  52.767  1.00  0.00     0.051 A 
ENDBRANCH   9  10
ENDBRANCH   8   9
ENDBRANCH   1   8
BRANCH   4  17
HETATM   17  N1  UNL     1      25.974   0.105  54.551  1.00  0.00    -0.341 N 
HETATM   18  H8  UNL     1      25.838   0.261  55.582  1.00  0.00     0.167 HD
BRANCH  17  19
HETATM   19  C11 UNL     1      27.306  -0.170  54.150  1.00  0.00     0.130 A 
HETATM   20  C12 UNL     1      28.281   0.804  54.214  1.00  0.00     0.070 A 
HETATM   21  C13 UNL     1      29.588   0.650  53.856  1.00  0.00     0.122 A 
HETATM   22  N2  UNL     1      29.947  -0.579  53.399  1.00  0.00    -0.254 NA
HETATM   23  C14 UNL     1      29.039  -1.575  53.313  1.00  0.00     0.234 A 
HETATM   24  N3  UNL     1      27.797  -1.327  53.683  1.00  0.00    -0.225 NA
ENDBRANCH  17  19
ENDBRANCH   4  17
TORSDOF 5
ENDMDL
MODEL 7
REMARK VINA RESULT:      -7.5      4.059      4.909
REMARK  5 active torsions:
REMARK  status: ('A' for Active; 'I' for Inactive)
REMARK    1  A    between atoms: C5_6  and  C6_7 
REMARK    2  A    between atoms: C6_7  and  O1_8 
REMARK    3  A    between atoms: O1_8  and  C7_9 
REMARK    4  A    between atoms: C10_12  and  N1_13 
REMARK    5  A    between atoms: N1_13  and  C11_14 
ROOT
HETATM    1  C7  UNL     1      24.802   3.692  51.514  1.00  0.00     0.091 A 
HETATM    2  C8  UNL     1      24.272   3.528  52.777  1.00  0.00     0.041 A 
HETATM    3  C9  UNL     1      24.881   2.604  53.597  1.00  0.00     0.032 A 
HETATM    4  C10 UNL     1      25.964   1.826  53.290  1.00  0.00     0.035 A 
HETATM    5  C15 UNL     1      26.447   2.036  52.015  1.00  0.00     0.056 A 
HETATM    6  C16 UNL     1      25.891   2.941  51.141  1.00  0.00     0.069 A 
HETATM    7 CL1  UNL     1      26.583   3.130  49.544  1.00  0.00    -0.081 Cl
ENDROOT
BRANCH   1   8
HETATM    8  O1  UNL     1      24.233   4.610  50.636  1.00  0.00    -0.345 OA
BRANCH   8   9
HETATM    9  C6  UNL     1      22.840   4.577  50.383  1.00  0.00     0.214 C 
BRANCH   9  10
HETATM   10  C5  UNL     1      22.401   3.322  49.731  1.00  0.00    -0.031 A 
HETATM   11  C4  UNL     1      22.722   3.016  48.433  1.00  0.00     0.009 A 
HETATM   12  C3  UNL     1      22.334   1.860  47.787  1.00  0.00     0.004 A 
HETATM   13  C2  UNL     1      21.575   0.965  48.514  1.00  0.00     0.042 A 
HETATM   14  C1  UNL     1      21.227   1.218  49.810  1.00  0.00     0.117 A 
HETATM   15  F1  UNL     1      20.481   0.376  50.580  1.00  0.00    -0.206 F 
HETATM   16  C17 UNL     1      21.640   2.391  50.414  1.00  0.00     0.051 A 
ENDBRANCH   9  10
ENDBRANCH   8   9
ENDBRANCH   1   8
BRANCH   4  17
HETATM   17  N1  UNL     1      26.581   0.884  54.132  1.00  0.00    -0.341 N 
HETATM   18  H8  UNL     1      26.486   1.037  55.169  1.00  0.00     0.167 HD
BRANCH  17  19
HETATM   19  C11 UNL     1      27.326  -0.262  53.754  1.00  0.00     0.130 A 
HETATM   20  C12 UNL     1      28.696  -0.300  53.912  1.00  0.00     0.070 A 
HETATM   21  C13 UNL     1      29.508  -1.345  53.583  1.00  0.00     0.122 A 
HETATM   22  N2  UNL     1      28.899  -2.440  53.056  1.00  0.00    -0.254 NA
HETATM   23  C14 UNL     1      27.560  -2.465  52.877  1.00  0.00     0.234 A 
HETATM   24  N3  UNL     1      26.860  -1.402  53.226  1.00  0.00    -0.225 NA
ENDBRANCH  17  19
ENDBRANCH   4  17
TORSDOF 5
ENDMDL
MODEL 8
REMARK VINA RESULT:      -7.4      6.361      8.190
REMARK  5 active torsions:
REMARK  status: ('A' for Active; 'I' for Inactive)
REMARK    1  A    between atoms: C5_6  and  C6_7 
REMARK    2  A    between atoms: C6_7  and  O1_8 
REMARK    3  A    between atoms: O1_8  and  C7_9 
REMARK    4  A    between atoms: C10_12  and  N1_13 
REMARK    5  A    between atoms: N1_13  and  C11_14 
ROOT
HETATM    1  C7  UNL     1      25.372   3.654  50.445  1.00  0.00     0.091 A 
HETATM    2  C8  UNL     1      26.533   3.329  49.774  1.00  0.00     0.041 A 
HETATM    3  C9  UNL     1      27.131   4.326  49.036  1.00  0.00     0.032 A 
HETATM    4  C10 UNL     1      26.692   5.614  48.895  1.00  0.00     0.035 A 
HETATM    5  C15 UNL     1      25.529   5.877  49.588  1.00  0.00     0.056 A 
HETATM    6  C16 UNL     1      24.876   4.932  50.345  1.00  0.00     0.069 A 
HETATM    7 CL1  UNL     1      23.404   5.371  51.186  1.00  0.00    -0.081 Cl
ENDROOT
BRANCH   1   8
HETATM    8  O1  UNL     1      24.718   2.692  51.209  1.00  0.00    -0.345 OA
BRANCH   8   9
HETATM    9  C6  UNL     1      25.031   2.548  52.583  1.00  0.00     0.214 C 
BRANCH   9  10
HETATM   10  C5  UNL     1      25.968   1.432  52.848  1.00  0.00    -0.031 A 
HETATM   11  C4  UNL     1      25.982   0.288  52.092  1.00  0.00     0.009 A 
HETATM   12  C3  UNL     1      26.837  -0.774  52.304  1.00  0.00     0.004 A 
HETATM   13  C2  UNL     1      27.728  -0.657  53.351  1.00  0.00     0.042 A 
HETATM   14  C1  UNL     1      27.759   0.460  54.136  1.00  0.00     0.117 A 
HETATM   15  F1  UNL     1      28.613   0.636  55.183  1.00  0.00    -0.206 F 
HETATM   16  C17 UNL     1      26.882   1.498  53.884  1.00  0.00     0.051 A 
ENDBRANCH   9  10
ENDBRANCH   8   9
ENDBRANCH   1   8
BRANCH   4  17
HETATM   17  N1  UNL     1      27.308   6.628  48.139  1.00  0.00    -0.341 N 
HETATM   18  H8  UNL     1      26.903   6.827  47.189  1.00  0.00     0.167 HD
BRANCH  17  19
HETATM   19  C11 UNL     1      28.422   7.426  48.502  1.00  0.00     0.130 A 
HETATM   20  C12 UNL     1      28.248   8.691  49.026  1.00  0.00     0.070 A 
HETATM   21  C13 UNL     1      29.243   9.541  49.408  1.00  0.00     0.122 A 
HETATM   22  N2  UNL     1      30.516   9.087  49.254  1.00  0.00    -0.254 NA
HETATM   23  C14 UNL     1      30.753   7.858  48.747  1.00  0.00     0.234 A 
HETATM   24  N3  UNL     1      29.721   7.109  48.406  1.00  0.00    -0.225 NA
ENDBRANCH  17  19
ENDBRANCH   4  17
TORSDOF 5
ENDMDL
MODEL 9
REMARK VINA RESULT:      -7.3      5.690      8.063
REMARK  5 active torsions:
REMARK  status: ('A' for Active; 'I' for Inactive)
REMARK    1  A    between atoms: C5_6  and  C6_7 
REMARK    2  A    between atoms: C6_7  and  O1_8 
REMARK    3  A    between atoms: O1_8  and  C7_9 
REMARK    4  A    between atoms: C10_12  and  N1_13 
REMARK    5  A    between atoms: N1_13  and  C11_14 
ROOT
HETATM    1  C7  UNL     1      24.207   3.766  50.779  1.00  0.00     0.091 A 
HETATM    2  C8  UNL     1      23.325   3.459  51.794  1.00  0.00     0.041 A 
HETATM    3  C9  UNL     1      23.703   2.472  52.676  1.00  0.00     0.032 A 
HETATM    4  C10 UNL     1      24.869   1.757  52.653  1.00  0.00     0.035 A 
HETATM    5  C15 UNL     1      25.709   2.109  51.616  1.00  0.00     0.056 A 
HETATM    6  C16 UNL     1      25.398   3.085  50.697  1.00  0.00     0.069 A 
HETATM    7 CL1  UNL     1      26.536   3.455  49.419  1.00  0.00    -0.081 Cl
ENDROOT
BRANCH   1   8
HETATM    8  O1  UNL     1      23.886   4.755  49.854  1.00  0.00    -0.345 OA
BRANCH   8   9
HETATM    9  C6  UNL     1      23.922   6.119  50.235  1.00  0.00     0.214 C 
BRANCH   9  10
HETATM   10  C5  UNL     1      25.085   6.844  49.674  1.00  0.00    -0.031 A 
HETATM   11  C4  UNL     1      25.515   6.660  48.385  1.00  0.00     0.009 A 
HETATM   12  C3  UNL     1      26.592   7.314  47.823  1.00  0.00     0.004 A 
HETATM   13  C2  UNL     1      27.268   8.208  48.630  1.00  0.00     0.042 A 
HETATM   14  C1  UNL     1      26.883   8.431  49.921  1.00  0.00     0.117 A 
HETATM   15  F1  UNL     1      27.507   9.299  50.766  1.00  0.00    -0.206 F 
HETATM   16  C17 UNL     1      25.797   7.751  50.438  1.00  0.00     0.051 A 
ENDBRANCH   9  10
ENDBRANCH   8   9
ENDBRANCH   1   8
BRANCH   4  17
HETATM   17  N1  UNL     1      25.249   0.749  53.557  1.00  0.00    -0.341 N 
HETATM   18  H8  UNL     1      24.484   0.304  54.125  1.00  0.00     0.167 HD
BRANCH  17  19
HETATM   19  C11 UNL     1      26.554   0.251  53.804  1.00  0.00     0.130 A 
HETATM   20  C12 UNL     1      27.055  -0.813  53.082  1.00  0.00     0.070 A 
HETATM   21  C13 UNL     1      28.290  -1.370  53.235  1.00  0.00     0.122 A 
HETATM   22  N2  UNL     1      29.089  -0.817  54.186  1.00  0.00    -0.254 NA
HETATM   23  C14 UNL     1      28.656   0.228  54.925  1.00  0.00     0.234 A 
HETATM   24  N3  UNL     1      27.443   0.697  54.702  1.00  0.00    -0.225 NA
ENDBRANCH  17  19
ENDBRANCH   4  17
TORSDOF 5
ENDMDL
