MODEL 1
REMARK VINA RESULT:      -8.3      0.000      0.000
REMARK  7 active torsions:
REMARK  status: ('A' for Active; 'I' for Inactive)
REMARK    1  A    between atoms: C2_2  and  N1_3 
REMARK    2  A    between atoms: N1_3  and  C4_5 
REMARK    3  A    between atoms: C4_5  and  C5_6 
REMARK    4  A    between atoms: C6_7  and  C7_8 
REMARK       I    between atoms: C7_8  and  N2_10 
REMARK    5  A    between atoms: N2_10  and  C8_11 
REMARK    6  A    between atoms: C13_17  and  N4_18 
REMARK    7  A    between atoms: N4_18  and  C14_19 
ROOT
HETATM    1  C8  UNL     1      19.466  -0.240  52.600  1.00  0.00     0.013 C 
HETATM    2  C9  UNL     1      19.661  -1.190  53.509  1.00  0.00     0.027 C 
HETATM    3  C10 UNL     1      20.790  -1.451  54.395  1.00  0.00     0.034 C 
HETATM    4  C11 UNL     1      22.082  -1.144  54.416  1.00  0.00     0.064 A 
HETATM    5  N3  UNL     1      22.932  -1.573  55.467  1.00  0.00    -0.262 NA
HETATM    6  C12 UNL     1      24.156  -1.145  55.269  1.00  0.00     0.120 A 
HETATM    7  C13 UNL     1      24.259  -0.345  54.005  1.00  0.00     0.158 A 
HETATM    8  C20 UNL     1      22.890  -0.380  53.493  1.00  0.00    -0.005 A 
HETATM    9  C21 UNL     1      22.673   0.264  52.333  1.00  0.00    -0.014 C 
HETATM   10  C22 UNL     1      21.542   0.516  51.436  1.00  0.00     0.034 C 
HETATM   11  C23 UNL     1      20.271   0.924  52.107  1.00  0.00     0.061 C 
ENDROOT
BRANCH   1  12
HETATM   12  N2  UNL     1      18.214  -0.327  51.934  1.00  0.00    -0.320 N 
HETATM   13  C7  UNL     1      16.841  -0.522  52.298  1.00  0.00     0.300 C 
HETATM   14  O1  UNL     1      16.435  -0.676  53.459  1.00  0.00    -0.258 OA
HETATM   15  H11 UNL     1      18.483  -0.200  50.920  1.00  0.00     0.169 HD
BRANCH  13  16
HETATM   16  C6  UNL     1      15.893  -0.538  51.220  1.00  0.00    -0.004 C 
HETATM   17  C5  UNL     1      15.071  -0.562  50.311  1.00  0.00    -0.066 C 
BRANCH  17  18
HETATM   18  C4  UNL     1      14.068  -0.606  49.232  1.00  0.00     0.365 C 
BRANCH  18  19
HETATM   19  N1  UNL     1      14.159  -1.853  48.495  1.00  0.00     0.094 N 
HETATM   20  C3  UNL     1      14.032  -2.989  49.393  1.00  0.00     0.310 C 
BRANCH  19  21
HETATM   21  C2  UNL     1      15.451  -1.937  47.802  1.00  0.00     0.268 C 
HETATM   22  C1  UNL     1      15.300  -3.035  46.778  1.00  0.00     0.037 C 
ENDBRANCH  19  21
ENDBRANCH  18  19
ENDBRANCH  17  18
ENDBRANCH  13  16
ENDBRANCH   1  12
BRANCH   7  23
HETATM   23  N4  UNL     1      25.231  -1.017  53.170  1.00  0.00    -0.376 N 
HETATM   24  H16 UNL     1      24.928  -1.739  52.481  1.00  0.00     0.160 HD
BRANCH  23  25
HETATM   25  C14 UNL     1      26.614  -0.716  53.264  1.00  0.00     0.030 A 
HETATM   26  C15 UNL     1      27.616  -1.658  53.181  1.00  0.00     0.032 A 
HETATM   27  C16 UNL     1      28.964  -1.388  53.264  1.00  0.00     0.046 A 
HETATM   28  C17 UNL     1      29.361  -0.073  53.446  1.00  0.00     0.138 A 
HETATM   29  F1  UNL     1      30.706   0.150  53.522  1.00  0.00    -0.204 F 
HETATM   30  C18 UNL     1      28.392   0.901  53.534  1.00  0.00     0.074 A 
HETATM   31 CL1  UNL     1      28.970   2.540  53.764  1.00  0.00    -0.081 Cl
HETATM   32  C19 UNL     1      27.056   0.577  53.445  1.00  0.00     0.056 A 
ENDBRANCH  23  25
ENDBRANCH   7  23
TORSDOF 7
ENDMDL
MODEL 2
REMARK VINA RESULT:      -8.2      4.066      4.933
REMARK  7 active torsions:
REMARK  status: ('A' for Active; 'I' for Inactive)
REMARK    1  A    between atoms: C2_2  and  N1_3 
REMARK    2  A    between atoms: N1_3  and  C4_5 
REMARK    3  A    between atoms: C4_5  and  C5_6 
REMARK    4  A    between atoms: C6_7  and  C7_8 
REMARK       I    between atoms: C7_8  and  N2_10 
REMARK    5  A    between atoms: N2_10  and  C8_11 
REMARK    6  A    between atoms: C13_17  and  N4_18 
REMARK    7  A    between atoms: N4_18  and  C14_19 
ROOT
HETATM    1  C8  UNL     1      20.979  -0.809  53.778  1.00  0.00     0.013 C 
HETATM    2  C9  UNL     1      22.105  -1.397  54.171  1.00  0.00     0.027 C 
HETATM    3  C10 UNL     1      23.465  -0.881  54.287  1.00  0.00     0.034 C 
HETATM    4  C11 UNL     1      24.155   0.127  53.767  1.00  0.00     0.064 A 
HETATM    5  N3  UNL     1      25.513   0.354  54.106  1.00  0.00    -0.262 NA
HETATM    6  C12 UNL     1      25.974   1.405  53.471  1.00  0.00     0.120 A 
HETATM    7  C13 UNL     1      24.922   2.022  52.599  1.00  0.00     0.158 A 
HETATM    8  C20 UNL     1      23.769   1.153  52.825  1.00  0.00    -0.005 A 
HETATM    9  C21 UNL     1      22.649   1.464  52.150  1.00  0.00    -0.014 C 
HETATM   10  C22 UNL     1      21.286   0.940  52.023  1.00  0.00     0.034 C 
HETATM   11  C23 UNL     1      20.622   0.568  53.308  1.00  0.00     0.061 C 
ENDROOT
BRANCH   1  12
HETATM   12  N2  UNL     1      19.843  -1.662  53.807  1.00  0.00    -0.320 N 
HETATM   13  C7  UNL     1      18.498  -1.637  53.310  1.00  0.00     0.300 C 
HETATM   14  O1  UNL     1      18.004  -0.707  52.656  1.00  0.00    -0.258 OA
HETATM   15  H11 UNL     1      20.193  -2.493  54.356  1.00  0.00     0.169 HD
BRANCH  13  16
HETATM   16  C6  UNL     1      17.688  -2.785  53.610  1.00  0.00    -0.004 C 
HETATM   17  C5  UNL     1      17.014  -3.774  53.872  1.00  0.00    -0.066 C 
BRANCH  17  18
HETATM   18  C4  UNL     1      16.224  -4.976  54.195  1.00  0.00     0.365 C 
BRANCH  18  19
HETATM   19  N1  UNL     1      14.833  -4.791  53.827  1.00  0.00     0.094 N 
HETATM   20  C3  UNL     1      13.956  -5.238  54.896  1.00  0.00     0.310 C 
BRANCH  19  21
HETATM   21  C2  UNL     1      14.525  -5.554  52.611  1.00  0.00     0.268 C 
HETATM   22  C1  UNL     1      14.175  -4.531  51.558  1.00  0.00     0.037 C 
ENDBRANCH  19  21
ENDBRANCH  18  19
ENDBRANCH  17  18
ENDBRANCH  13  16
ENDBRANCH   1  12
BRANCH   7  23
HETATM   23  N4  UNL     1      25.440   1.994  51.247  1.00  0.00    -0.376 N 
HETATM   24  H16 UNL     1      25.779   1.101  50.829  1.00  0.00     0.160 HD
BRANCH  23  25
HETATM   25  C14 UNL     1      25.502   3.172  50.459  1.00  0.00     0.030 A 
HETATM   26  C15 UNL     1      24.426   3.997  50.218  1.00  0.00     0.032 A 
HETATM   27  C16 UNL     1      24.464   5.147  49.461  1.00  0.00     0.046 A 
HETATM   28  C17 UNL     1      25.671   5.517  48.890  1.00  0.00     0.138 A 
HETATM   29  F1  UNL     1      25.664   6.663  48.147  1.00  0.00    -0.204 F 
HETATM   30  C18 UNL     1      26.774   4.721  49.105  1.00  0.00     0.074 A 
HETATM   31 CL1  UNL     1      28.264   5.254  48.350  1.00  0.00    -0.081 Cl
HETATM   32  C19 UNL     1      26.680   3.580  49.871  1.00  0.00     0.056 A 
ENDBRANCH  23  25
ENDBRANCH   7  23
TORSDOF 7
ENDMDL
MODEL 3
REMARK VINA RESULT:      -8.1      3.669      5.005
REMARK  7 active torsions:
REMARK  status: ('A' for Active; 'I' for Inactive)
REMARK    1  A    between atoms: C2_2  and  N1_3 
REMARK    2  A    between atoms: N1_3  and  C4_5 
REMARK    3  A    between atoms: C4_5  and  C5_6 
REMARK    4  A    between atoms: C6_7  and  C7_8 
REMARK       I    between atoms: C7_8  and  N2_10 
REMARK    5  A    between atoms: N2_10  and  C8_11 
REMARK    6  A    between atoms: C13_17  and  N4_18 
REMARK    7  A    between atoms: N4_18  and  C14_19 
ROOT
HETATM    1  C8  UNL     1      20.549   2.332  50.992  1.00  0.00     0.013 C 
HETATM    2  C9  UNL     1      21.000   3.534  50.648  1.00  0.00     0.027 C 
HETATM    3  C10 UNL     1      22.340   3.990  50.294  1.00  0.00     0.034 C 
HETATM    4  C11 UNL     1      23.581   3.566  50.500  1.00  0.00     0.064 A 
HETATM    5  N3  UNL     1      24.703   4.273  49.997  1.00  0.00    -0.262 NA
HETATM    6  C12 UNL     1      25.815   3.660  50.324  1.00  0.00     0.120 A 
HETATM    7  C13 UNL     1      25.542   2.418  51.119  1.00  0.00     0.158 A 
HETATM    8  C20 UNL     1      24.083   2.409  51.206  1.00  0.00    -0.005 A 
HETATM    9  C21 UNL     1      23.535   1.388  51.888  1.00  0.00    -0.014 C 
HETATM   10  C22 UNL     1      22.190   0.937  52.255  1.00  0.00     0.034 C 
HETATM   11  C23 UNL     1      21.177   0.982  51.158  1.00  0.00     0.061 C 
ENDROOT
BRANCH   1  12
HETATM   12  N2  UNL     1      19.155   2.295  51.266  1.00  0.00    -0.320 N 
HETATM   13  C7  UNL     1      17.936   2.258  50.512  1.00  0.00     0.300 C 
HETATM   14  O1  UNL     1      17.873   2.252  49.274  1.00  0.00    -0.258 OA
HETATM   15  H11 UNL     1      19.128   2.297  52.322  1.00  0.00     0.169 HD
BRANCH  13  16
HETATM   16  C6  UNL     1      16.718   2.231  51.272  1.00  0.00    -0.004 C 
HETATM   17  C5  UNL     1      15.689   2.209  51.938  1.00  0.00    -0.066 C 
BRANCH  17  18
HETATM   18  C4  UNL     1      14.466   2.184  52.759  1.00  0.00     0.365 C 
BRANCH  18  19
HETATM   19  N1  UNL     1      13.801   3.473  52.730  1.00  0.00     0.094 N 
HETATM   20  C3  UNL     1      14.463   4.411  53.621  1.00  0.00     0.310 C 
BRANCH  19  21
HETATM   21  C2  UNL     1      12.401   3.329  53.148  1.00  0.00     0.268 C 
HETATM   22  C1  UNL     1      12.274   4.096  54.442  1.00  0.00     0.037 C 
ENDBRANCH  19  21
ENDBRANCH  18  19
ENDBRANCH  17  18
ENDBRANCH  13  16
ENDBRANCH   1  12
BRANCH   7  23
HETATM   23  N4  UNL     1      26.219   2.584  52.387  1.00  0.00    -0.376 N 
HETATM   24  H16 UNL     1      26.010   3.404  52.996  1.00  0.00     0.160 HD
BRANCH  23  25
HETATM   25  C14 UNL     1      27.181   1.643  52.835  1.00  0.00     0.030 A 
HETATM   26  C15 UNL     1      28.330   1.979  53.518  1.00  0.00     0.032 A 
HETATM   27  C16 UNL     1      29.275   1.083  53.967  1.00  0.00     0.046 A 
HETATM   28  C17 UNL     1      29.070  -0.266  53.721  1.00  0.00     0.138 A 
HETATM   29  F1  UNL     1      30.031  -1.119  54.183  1.00  0.00    -0.204 F 
HETATM   30  C18 UNL     1      27.935  -0.647  53.041  1.00  0.00     0.074 A 
HETATM   31 CL1  UNL     1      27.745  -2.368  52.768  1.00  0.00    -0.081 Cl
HETATM   32  C19 UNL     1      27.021   0.292  52.613  1.00  0.00     0.056 A 
ENDBRANCH  23  25
ENDBRANCH   7  23
TORSDOF 7
ENDMDL
MODEL 4
REMARK VINA RESULT:      -8.1      1.715      2.382
REMARK  7 active torsions:
REMARK  status: ('A' for Active; 'I' for Inactive)
REMARK    1  A    between atoms: C2_2  and  N1_3 
REMARK    2  A    between atoms: N1_3  and  C4_5 
REMARK    3  A    between atoms: C4_5  and  C5_6 
REMARK    4  A    between atoms: C6_7  and  C7_8 
REMARK       I    between atoms: C7_8  and  N2_10 
REMARK    5  A    between atoms: N2_10  and  C8_11 
REMARK    6  A    between atoms: C13_17  and  N4_18 
REMARK    7  A    between atoms: N4_18  and  C14_19 
ROOT
HETATM    1  C8  UNL     1      19.596   0.120  52.668  1.00  0.00     0.013 C 
HETATM    2  C9  UNL     1      19.716  -0.910  53.501  1.00  0.00     0.027 C 
HETATM    3  C10 UNL     1      20.808  -1.306  54.383  1.00  0.00     0.034 C 
HETATM    4  C11 UNL     1      22.114  -1.078  54.453  1.00  0.00     0.064 A 
HETATM    5  N3  UNL     1      22.915  -1.639  55.480  1.00  0.00    -0.262 NA
HETATM    6  C12 UNL     1      24.165  -1.268  55.340  1.00  0.00     0.120 A 
HETATM    7  C13 UNL     1      24.341  -0.376  54.148  1.00  0.00     0.158 A 
HETATM    8  C20 UNL     1      22.985  -0.290  53.610  1.00  0.00    -0.005 A 
HETATM    9  C21 UNL     1      22.832   0.456  52.503  1.00  0.00    -0.014 C 
HETATM   10  C22 UNL     1      21.737   0.845  51.609  1.00  0.00     0.034 C 
HETATM   11  C23 UNL     1      20.477   1.271  52.287  1.00  0.00     0.061 C 
ENDROOT
BRANCH   1  12
HETATM   12  N2  UNL     1      18.357   0.160  51.974  1.00  0.00    -0.320 N 
HETATM   13  C7  UNL     1      17.902   0.480  50.653  1.00  0.00     0.300 C 
HETATM   14  O1  UNL     1      18.637   0.840  49.722  1.00  0.00    -0.258 OA
HETATM   15  H11 UNL     1      17.668  -0.142  52.716  1.00  0.00     0.169 HD
BRANCH  13  16
HETATM   16  C6  UNL     1      16.489   0.367  50.421  1.00  0.00    -0.004 C 
HETATM   17  C5  UNL     1      15.283   0.254  50.235  1.00  0.00    -0.066 C 
BRANCH  17  18
HETATM   18  C4  UNL     1      13.833   0.097  50.024  1.00  0.00     0.365 C 
BRANCH  18  19
HETATM   19  N1  UNL     1      13.085   0.756  51.079  1.00  0.00     0.094 N 
HETATM   20  C3  UNL     1      13.416   2.170  51.134  1.00  0.00     0.310 C 
BRANCH  19  21
HETATM   21  C2  UNL     1      13.396   0.144  52.377  1.00  0.00     0.268 C 
HETATM   22  C1  UNL     1      13.475   1.284  53.362  1.00  0.00     0.037 C 
ENDBRANCH  19  21
ENDBRANCH  18  19
ENDBRANCH  17  18
ENDBRANCH  13  16
ENDBRANCH   1  12
BRANCH   7  23
HETATM   23  N4  UNL     1      25.293  -1.034  53.279  1.00  0.00    -0.376 N 
HETATM   24  H16 UNL     1      24.975  -1.754  52.594  1.00  0.00     0.160 HD
BRANCH  23  25
HETATM   25  C14 UNL     1      26.676  -0.723  53.333  1.00  0.00     0.030 A 
HETATM   26  C15 UNL     1      27.682  -1.654  53.199  1.00  0.00     0.032 A 
HETATM   27  C16 UNL     1      29.031  -1.374  53.243  1.00  0.00     0.046 A 
HETATM   28  C17 UNL     1      29.422  -0.059  53.437  1.00  0.00     0.138 A 
HETATM   29  F1  UNL     1      30.767   0.174  53.474  1.00  0.00    -0.204 F 
HETATM   30  C18 UNL     1      28.449   0.905  53.576  1.00  0.00     0.074 A 
HETATM   31 CL1  UNL     1      29.021   2.544  53.818  1.00  0.00    -0.081 Cl
HETATM   32  C19 UNL     1      27.113   0.570  53.525  1.00  0.00     0.056 A 
ENDBRANCH  23  25
ENDBRANCH   7  23
TORSDOF 7
ENDMDL
MODEL 5
REMARK VINA RESULT:      -8.1      6.680      8.786
REMARK  7 active torsions:
REMARK  status: ('A' for Active; 'I' for Inactive)
REMARK    1  A    between atoms: C2_2  and  N1_3 
REMARK    2  A    between atoms: N1_3  and  C4_5 
REMARK    3  A    between atoms: C4_5  and  C5_6 
REMARK    4  A    between atoms: C6_7  and  C7_8 
REMARK       I    between atoms: C7_8  and  N2_10 
REMARK    5  A    between atoms: N2_10  and  C8_11 
REMARK    6  A    between atoms: C13_17  and  N4_18 
REMARK    7  A    between atoms: N4_18  and  C14_19 
ROOT
HETATM    1  C8  UNL     1      24.307   4.406  49.729  1.00  0.00     0.013 C 
HETATM    2  C9  UNL     1      24.181   5.730  49.738  1.00  0.00     0.027 C 
HETATM    3  C10 UNL     1      24.983   6.772  49.108  1.00  0.00     0.034 C 
HETATM    4  C11 UNL     1      26.222   6.878  48.641  1.00  0.00     0.064 A 
HETATM    5  N3  UNL     1      26.701   8.082  48.067  1.00  0.00    -0.262 NA
HETATM    6  C12 UNL     1      27.946   7.940  47.677  1.00  0.00     0.120 A 
HETATM    7  C13 UNL     1      28.454   6.558  47.962  1.00  0.00     0.158 A 
HETATM    8  C20 UNL     1      27.299   5.916  48.588  1.00  0.00    -0.005 A 
HETATM    9  C21 UNL     1      27.465   4.638  48.970  1.00  0.00    -0.014 C 
HETATM   10  C22 UNL     1      26.665   3.594  49.615  1.00  0.00     0.034 C 
HETATM   11  C23 UNL     1      25.270   3.447  49.101  1.00  0.00     0.061 C 
ENDROOT
BRANCH   1  12
HETATM   12  N2  UNL     1      23.307   3.727  50.477  1.00  0.00    -0.320 N 
HETATM   13  C7  UNL     1      22.927   3.603  51.854  1.00  0.00     0.300 C 
HETATM   14  O1  UNL     1      23.503   4.164  52.797  1.00  0.00    -0.258 OA
HETATM   15  H11 UNL     1      22.765   3.218  49.726  1.00  0.00     0.169 HD
BRANCH  13  16
HETATM   16  C6  UNL     1      21.796   2.761  52.128  1.00  0.00    -0.004 C 
HETATM   17  C5  UNL     1      20.822   2.051  52.347  1.00  0.00    -0.066 C 
BRANCH  17  18
HETATM   18  C4  UNL     1      19.638   1.208  52.590  1.00  0.00     0.365 C 
BRANCH  18  19
HETATM   19  N1  UNL     1      20.024  -0.072  53.154  1.00  0.00     0.094 N 
HETATM   20  C3  UNL     1      18.864  -0.933  53.314  1.00  0.00     0.310 C 
BRANCH  19  21
HETATM   21  C2  UNL     1      20.655   0.123  54.466  1.00  0.00     0.268 C 
HETATM   22  C1  UNL     1      21.697  -0.962  54.589  1.00  0.00     0.037 C 
ENDBRANCH  19  21
ENDBRANCH  18  19
ENDBRANCH  17  18
ENDBRANCH  13  16
ENDBRANCH   1  12
BRANCH   7  23
HETATM   23  N4  UNL     1      29.601   6.713  48.829  1.00  0.00    -0.376 N 
HETATM   24  H16 UNL     1      29.525   7.258  49.715  1.00  0.00     0.160 HD
BRANCH  23  25
HETATM   25  C14 UNL     1      30.853   6.132  48.503  1.00  0.00     0.030 A 
HETATM   26  C15 UNL     1      32.068   6.642  48.905  1.00  0.00     0.032 A 
HETATM   27  C16 UNL     1      33.296   6.093  48.604  1.00  0.00     0.046 A 
HETATM   28  C17 UNL     1      33.329   4.938  47.839  1.00  0.00     0.138 A 
HETATM   29  F1  UNL     1      34.565   4.428  47.564  1.00  0.00    -0.204 F 
HETATM   30  C18 UNL     1      32.137   4.394  47.415  1.00  0.00     0.074 A 
HETATM   31 CL1  UNL     1      32.259   2.935  46.452  1.00  0.00    -0.081 Cl
HETATM   32  C19 UNL     1      30.936   4.984  47.744  1.00  0.00     0.056 A 
ENDBRANCH  23  25
ENDBRANCH   7  23
TORSDOF 7
ENDMDL
MODEL 6
REMARK VINA RESULT:      -8.1      1.614      1.940
REMARK  7 active torsions:
REMARK  status: ('A' for Active; 'I' for Inactive)
REMARK    1  A    between atoms: C2_2  and  N1_3 
REMARK    2  A    between atoms: N1_3  and  C4_5 
REMARK    3  A    between atoms: C4_5  and  C5_6 
REMARK    4  A    between atoms: C6_7  and  C7_8 
REMARK       I    between atoms: C7_8  and  N2_10 
REMARK    5  A    between atoms: N2_10  and  C8_11 
REMARK    6  A    between atoms: C13_17  and  N4_18 
REMARK    7  A    between atoms: N4_18  and  C14_19 
ROOT
HETATM    1  C8  UNL     1      19.561  -0.274  52.929  1.00  0.00     0.013 C 
HETATM    2  C9  UNL     1      19.850  -1.239  53.797  1.00  0.00     0.027 C 
HETATM    3  C10 UNL     1      21.045  -1.479  54.598  1.00  0.00     0.034 C 
HETATM    4  C11 UNL     1      22.324  -1.126  54.541  1.00  0.00     0.064 A 
HETATM    5  N3  UNL     1      23.258  -1.550  55.520  1.00  0.00    -0.262 NA
HETATM    6  C12 UNL     1      24.450  -1.072  55.252  1.00  0.00     0.120 A 
HETATM    7  C13 UNL     1      24.438  -0.238  54.006  1.00  0.00     0.158 A 
HETATM    8  C20 UNL     1      23.040  -0.311  53.586  1.00  0.00    -0.005 A 
HETATM    9  C21 UNL     1      22.722   0.353  52.461  1.00  0.00    -0.014 C 
HETATM   10  C22 UNL     1      21.525   0.585  51.649  1.00  0.00     0.034 C 
HETATM   11  C23 UNL     1      20.289   0.930  52.414  1.00  0.00     0.061 C 
ENDROOT
BRANCH   1  12
HETATM   12  N2  UNL     1      18.270  -0.391  52.346  1.00  0.00    -0.320 N 
HETATM   13  C7  UNL     1      17.675  -0.185  51.057  1.00  0.00     0.300 C 
HETATM   14  O1  UNL     1      18.290   0.198  50.051  1.00  0.00    -0.258 OA
HETATM   15  H11 UNL     1      17.680  -0.720  53.158  1.00  0.00     0.169 HD
BRANCH  13  16
HETATM   16  C6  UNL     1      16.267  -0.446  50.957  1.00  0.00    -0.004 C 
HETATM   17  C5  UNL     1      15.064  -0.669  50.891  1.00  0.00    -0.066 C 
BRANCH  17  18
HETATM   18  C4  UNL     1      13.616  -0.938  50.838  1.00  0.00     0.365 C 
BRANCH  18  19
HETATM   19  N1  UNL     1      13.132  -1.405  52.123  1.00  0.00     0.094 N 
HETATM   20  C3  UNL     1      13.347  -0.397  53.148  1.00  0.00     0.310 C 
BRANCH  19  21
HETATM   21  C2  UNL     1      13.833  -2.635  52.512  1.00  0.00     0.268 C 
HETATM   22  C1  UNL     1      13.299  -3.718  51.607  1.00  0.00     0.037 C 
ENDBRANCH  19  21
ENDBRANCH  18  19
ENDBRANCH  17  18
ENDBRANCH  13  16
ENDBRANCH   1  12
BRANCH   7  23
HETATM   23  N4  UNL     1      25.375  -0.854  53.090  1.00  0.00    -0.376 N 
HETATM   24  H16 UNL     1      25.032  -1.427  52.289  1.00  0.00     0.160 HD
BRANCH  23  25
HETATM   25  C14 UNL     1      26.774  -0.697  53.254  1.00  0.00     0.030 A 
HETATM   26  C15 UNL     1      27.694  -1.698  53.032  1.00  0.00     0.032 A 
HETATM   27  C16 UNL     1      29.058  -1.568  53.180  1.00  0.00     0.046 A 
HETATM   28  C17 UNL     1      29.560  -0.341  53.583  1.00  0.00     0.138 A 
HETATM   29  F1  UNL     1      30.916  -0.255  53.717  1.00  0.00    -0.204 F 
HETATM   30  C18 UNL     1      28.676   0.689  53.816  1.00  0.00     0.074 A 
HETATM   31 CL1  UNL     1      29.385   2.209  54.323  1.00  0.00    -0.081 Cl
HETATM   32  C19 UNL     1      27.320   0.504  53.653  1.00  0.00     0.056 A 
ENDBRANCH  23  25
ENDBRANCH   7  23
TORSDOF 7
ENDMDL
MODEL 7
REMARK VINA RESULT:      -8.0      6.185     10.452
REMARK  7 active torsions:
REMARK  status: ('A' for Active; 'I' for Inactive)
REMARK    1  A    between atoms: C2_2  and  N1_3 
REMARK    2  A    between atoms: N1_3  and  C4_5 
REMARK    3  A    between atoms: C4_5  and  C5_6 
REMARK    4  A    between atoms: C6_7  and  C7_8 
REMARK       I    between atoms: C7_8  and  N2_10 
REMARK    5  A    between atoms: N2_10  and  C8_11 
REMARK    6  A    between atoms: C13_17  and  N4_18 
REMARK    7  A    between atoms: N4_18  and  C14_19 
ROOT
HETATM    1  C8  UNL     1      23.634   2.204  51.218  1.00  0.00     0.013 C 
HETATM    2  C9  UNL     1      23.997   1.999  52.481  1.00  0.00     0.027 C 
HETATM    3  C10 UNL     1      23.623   0.954  53.427  1.00  0.00     0.034 C 
HETATM    4  C11 UNL     1      22.616   0.097  53.560  1.00  0.00     0.064 A 
HETATM    5  N3  UNL     1      22.558  -0.822  54.638  1.00  0.00    -0.262 NA
HETATM    6  C12 UNL     1      21.478  -1.561  54.552  1.00  0.00     0.120 A 
HETATM    7  C13 UNL     1      20.661  -1.197  53.349  1.00  0.00     0.158 A 
HETATM    8  C20 UNL     1      21.441  -0.117  52.747  1.00  0.00    -0.005 A 
HETATM    9  C21 UNL     1      20.935   0.428  51.627  1.00  0.00    -0.014 C 
HETATM   10  C22 UNL     1      21.304   1.486  50.683  1.00  0.00     0.034 C 
HETATM   11  C23 UNL     1      22.734   1.493  50.254  1.00  0.00     0.061 C 
ENDROOT
BRANCH   1  12
HETATM   12  N2  UNL     1      24.227   3.352  50.627  1.00  0.00    -0.320 N 
HETATM   13  C7  UNL     1      24.181   4.774  50.814  1.00  0.00     0.300 C 
HETATM   14  O1  UNL     1      23.497   5.350  51.673  1.00  0.00    -0.258 OA
HETATM   15  H11 UNL     1      24.837   2.934  49.873  1.00  0.00     0.169 HD
BRANCH  13  16
HETATM   16  C6  UNL     1      24.994   5.559  49.927  1.00  0.00    -0.004 C 
HETATM   17  C5  UNL     1      25.680   6.218  49.155  1.00  0.00    -0.066 C 
BRANCH  17  18
HETATM   18  C4  UNL     1      26.497   6.997  48.208  1.00  0.00     0.365 C 
BRANCH  18  19
HETATM   19  N1  UNL     1      27.723   7.449  48.836  1.00  0.00     0.094 N 
HETATM   20  C3  UNL     1      27.645   8.866  49.152  1.00  0.00     0.310 C 
BRANCH  19  21
HETATM   21  C2  UNL     1      28.864   7.225  47.940  1.00  0.00     0.268 C 
HETATM   22  C1  UNL     1      29.241   5.773  48.104  1.00  0.00     0.037 C 
ENDBRANCH  19  21
ENDBRANCH  18  19
ENDBRANCH  17  18
ENDBRANCH  13  16
ENDBRANCH   1  12
BRANCH   7  23
HETATM   23  N4  UNL     1      19.360  -0.797  53.841  1.00  0.00    -0.376 N 
HETATM   24  H16 UNL     1      19.271  -0.020  54.531  1.00  0.00     0.160 HD
BRANCH  23  25
HETATM   25  C14 UNL     1      18.177  -1.446  53.403  1.00  0.00     0.030 A 
HETATM   26  C15 UNL     1      17.216  -0.850  52.616  1.00  0.00     0.032 A 
HETATM   27  C16 UNL     1      16.063  -1.461  52.175  1.00  0.00     0.046 A 
HETATM   28  C17 UNL     1      15.836  -2.778  52.543  1.00  0.00     0.138 A 
HETATM   29  F1  UNL     1      14.682  -3.345  52.085  1.00  0.00    -0.204 F 
HETATM   30  C18 UNL     1      16.771  -3.413  53.330  1.00  0.00     0.074 A 
HETATM   31 CL1  UNL     1      16.414  -5.076  53.755  1.00  0.00    -0.081 Cl
HETATM   32  C19 UNL     1      17.907  -2.754  53.744  1.00  0.00     0.056 A 
ENDBRANCH  23  25
ENDBRANCH   7  23
TORSDOF 7
ENDMDL
MODEL 8
REMARK VINA RESULT:      -8.0      6.568     11.336
REMARK  7 active torsions:
REMARK  status: ('A' for Active; 'I' for Inactive)
REMARK    1  A    between atoms: C2_2  and  N1_3 
REMARK    2  A    between atoms: N1_3  and  C4_5 
REMARK    3  A    between atoms: C4_5  and  C5_6 
REMARK    4  A    between atoms: C6_7  and  C7_8 
REMARK       I    between atoms: C7_8  and  N2_10 
REMARK    5  A    between atoms: N2_10  and  C8_11 
REMARK    6  A    between atoms: C13_17  and  N4_18 
REMARK    7  A    between atoms: N4_18  and  C14_19 
ROOT
HETATM    1  C8  UNL     1      26.116   3.200  50.311  1.00  0.00     0.013 C 
HETATM    2  C9  UNL     1      26.591   2.821  51.494  1.00  0.00     0.027 C 
HETATM    3  C10 UNL     1      26.163   1.765  52.404  1.00  0.00     0.034 C 
HETATM    4  C11 UNL     1      25.048   1.074  52.613  1.00  0.00     0.064 A 
HETATM    5  N3  UNL     1      24.966   0.078  53.619  1.00  0.00    -0.262 NA
HETATM    6  C12 UNL     1      23.772  -0.465  53.630  1.00  0.00     0.120 A 
HETATM    7  C13 UNL     1      22.888   0.138  52.581  1.00  0.00     0.158 A 
HETATM    8  C20 UNL     1      23.762   1.130  51.956  1.00  0.00    -0.005 A 
HETATM    9  C21 UNL     1      23.223   1.852  50.959  1.00  0.00    -0.014 C 
HETATM   10  C22 UNL     1      23.649   2.922  50.052  1.00  0.00     0.034 C 
HETATM   11  C23 UNL     1      24.995   2.738  49.432  1.00  0.00     0.061 C 
ENDROOT
BRANCH   1  12
HETATM   12  N2  UNL     1      26.821   4.288  49.729  1.00  0.00    -0.320 N 
HETATM   13  C7  UNL     1      26.498   5.479  48.997  1.00  0.00     0.300 C 
HETATM   14  O1  UNL     1      25.348   5.827  48.690  1.00  0.00    -0.258 OA
HETATM   15  H11 UNL     1      27.826   4.059  49.954  1.00  0.00     0.169 HD
BRANCH  13  16
HETATM   16  C6  UNL     1      27.605   6.303  48.603  1.00  0.00    -0.004 C 
HETATM   17  C5  UNL     1      28.562   6.998  48.279  1.00  0.00    -0.066 C 
BRANCH  17  18
HETATM   18  C4  UNL     1      29.727   7.821  47.908  1.00  0.00     0.365 C 
BRANCH  18  19
HETATM   19  N1  UNL     1      30.165   8.627  49.031  1.00  0.00     0.094 N 
HETATM   20  C3  UNL     1      30.201  10.035  48.668  1.00  0.00     0.310 C 
BRANCH  19  21
HETATM   21  C2  UNL     1      31.508   8.214  49.457  1.00  0.00     0.268 C 
HETATM   22  C1  UNL     1      32.172   7.637  48.231  1.00  0.00     0.037 C 
ENDBRANCH  19  21
ENDBRANCH  18  19
ENDBRANCH  17  18
ENDBRANCH  13  16
ENDBRANCH   1  12
BRANCH   7  23
HETATM   23  N4  UNL     1      21.746   0.694  53.275  1.00  0.00    -0.376 N 
HETATM   24  H16 UNL     1      21.880   1.385  54.044  1.00  0.00     0.160 HD
BRANCH  23  25
HETATM   25  C14 UNL     1      20.422   0.318  52.933  1.00  0.00     0.030 A 
HETATM   26  C15 UNL     1      19.633   1.004  52.036  1.00  0.00     0.032 A 
HETATM   27  C16 UNL     1      18.347   0.654  51.685  1.00  0.00     0.046 A 
HETATM   28  C17 UNL     1      17.789  -0.472  52.270  1.00  0.00     0.138 A 
HETATM   29  F1  UNL     1      16.514  -0.782  51.894  1.00  0.00    -0.204 F 
HETATM   30  C18 UNL     1      18.544  -1.188  53.173  1.00  0.00     0.074 A 
HETATM   31 CL1  UNL     1      17.772  -2.598  53.870  1.00  0.00    -0.081 Cl
HETATM   32  C19 UNL     1      19.826  -0.793  53.489  1.00  0.00     0.056 A 
ENDBRANCH  23  25
ENDBRANCH   7  23
TORSDOF 7
ENDMDL
MODEL 9
REMARK VINA RESULT:      -7.8      3.633      4.840
REMARK  7 active torsions:
REMARK  status: ('A' for Active; 'I' for Inactive)
REMARK    1  A    between atoms: C2_2  and  N1_3 
REMARK    2  A    between atoms: N1_3  and  C4_5 
REMARK    3  A    between atoms: C4_5  and  C5_6 
REMARK    4  A    between atoms: C6_7  and  C7_8 
REMARK       I    between atoms: C7_8  and  N2_10 
REMARK    5  A    between atoms: N2_10  and  C8_11 
REMARK    6  A    between atoms: C13_17  and  N4_18 
REMARK    7  A    between atoms: N4_18  and  C14_19 
ROOT
HETATM    1  C8  UNL     1      20.032   3.021  51.177  1.00  0.00     0.013 C 
HETATM    2  C9  UNL     1      20.796   4.103  51.292  1.00  0.00     0.027 C 
HETATM    3  C10 UNL     1      22.240   4.274  51.170  1.00  0.00     0.034 C 
HETATM    4  C11 UNL     1      23.308   3.491  51.264  1.00  0.00     0.064 A 
HETATM    5  N3  UNL     1      24.620   3.996  51.083  1.00  0.00    -0.262 NA
HETATM    6  C12 UNL     1      25.504   3.036  51.219  1.00  0.00     0.120 A 
HETATM    7  C13 UNL     1      24.844   1.724  51.521  1.00  0.00     0.158 A 
HETATM    8  C20 UNL     1      23.426   2.077  51.542  1.00  0.00    -0.005 A 
HETATM    9  C21 UNL     1      22.568   1.076  51.804  1.00  0.00    -0.014 C 
HETATM   10  C22 UNL     1      21.119   0.906  51.938  1.00  0.00     0.034 C 
HETATM   11  C23 UNL     1      20.295   1.575  50.887  1.00  0.00     0.061 C 
ENDROOT
BRANCH   1  12
HETATM   12  N2  UNL     1      18.646   3.271  51.367  1.00  0.00    -0.320 N 
HETATM   13  C7  UNL     1      17.640   4.113  50.787  1.00  0.00     0.300 C 
HETATM   14  O1  UNL     1      17.838   4.908  49.856  1.00  0.00    -0.258 OA
HETATM   15  H11 UNL     1      18.401   2.616  52.158  1.00  0.00     0.169 HD
BRANCH  13  16
HETATM   16  C6  UNL     1      16.322   4.006  51.344  1.00  0.00    -0.004 C 
HETATM   17  C5  UNL     1      15.188   3.916  51.802  1.00  0.00    -0.066 C 
BRANCH  17  18
HETATM   18  C4  UNL     1      13.816   3.810  52.328  1.00  0.00     0.365 C 
BRANCH  18  19
HETATM   19  N1  UNL     1      13.732   2.772  53.339  1.00  0.00     0.094 N 
HETATM   20  C3  UNL     1      13.914   1.459  52.742  1.00  0.00     0.310 C 
BRANCH  19  21
HETATM   21  C2  UNL     1      12.421   2.815  54.000  1.00  0.00     0.268 C 
HETATM   22  C1  UNL     1      12.156   4.270  54.299  1.00  0.00     0.037 C 
ENDBRANCH  19  21
ENDBRANCH  18  19
ENDBRANCH  17  18
ENDBRANCH  13  16
ENDBRANCH   1  12
BRANCH   7  23
HETATM   23  N4  UNL     1      25.373   1.280  52.793  1.00  0.00    -0.376 N 
HETATM   24  H16 UNL     1      25.053   1.721  53.682  1.00  0.00     0.160 HD
BRANCH  23  25
HETATM   25  C14 UNL     1      26.335   0.241  52.866  1.00  0.00     0.030 A 
HETATM   26  C15 UNL     1      26.053  -1.088  52.640  1.00  0.00     0.032 A 
HETATM   27  C16 UNL     1      26.972  -2.114  52.701  1.00  0.00     0.046 A 
HETATM   28  C17 UNL     1      28.285  -1.801  53.014  1.00  0.00     0.138 A 
HETATM   29  F1  UNL     1      29.162  -2.846  53.064  1.00  0.00    -0.204 F 
HETATM   30  C18 UNL     1      28.611  -0.484  53.248  1.00  0.00     0.074 A 
HETATM   31 CL1  UNL     1      30.291  -0.166  53.637  1.00  0.00    -0.081 Cl
HETATM   32  C19 UNL     1      27.653   0.503  53.174  1.00  0.00     0.056 A 
ENDBRANCH  23  25
ENDBRANCH   7  23
TORSDOF 7
ENDMDL
