MODEL 1
REMARK VINA RESULT:      -8.7      0.000      0.000
REMARK  2 active torsions:
REMARK  status: ('A' for Active; 'I' for Inactive)
REMARK    1  A    between atoms: C7_11  and  N3_12 
REMARK    2  A    between atoms: N3_12  and  C8_13 
ROOT
HETATM    1  F1  UNL     1      16.491  -0.381  50.048  1.00  0.00    -0.210 F 
HETATM    2  C1  UNL     1      17.494  -0.313  50.945  1.00  0.00     0.103 A 
HETATM    3  C2  UNL     1      17.376  -0.914  52.110  1.00  0.00     0.042 A 
HETATM    4  C3  UNL     1      18.298  -0.991  53.235  1.00  0.00     0.047 A 
HETATM    5  C4  UNL     1      19.472  -0.351  53.082  1.00  0.00     0.110 A 
HETATM    6  O1  UNL     1      20.406  -0.398  54.152  1.00  0.00    -0.283 OA
HETATM    7  C5  UNL     1      21.816  -0.370  54.022  1.00  0.00     0.202 A 
HETATM    8  N1  UNL     1      22.303  -1.111  55.036  1.00  0.00    -0.215 NA
HETATM    9  C6  UNL     1      23.615  -1.298  55.211  1.00  0.00     0.238 A 
HETATM   10  N2  UNL     1      24.447  -0.722  54.343  1.00  0.00    -0.222 NA
HETATM   11  C7  UNL     1      23.998   0.019  53.326  1.00  0.00     0.160 A 
HETATM   12  C14 UNL     1      22.646   0.221  53.133  1.00  0.00     0.133 A 
HETATM   13  N4  UNL     1      22.429   1.048  51.997  1.00  0.00    -0.354 N 
HETATM   14  C15 UNL     1      21.286   1.166  51.136  1.00  0.00     0.130 C 
HETATM   15  S1  UNL     1      19.839   0.545  51.545  1.00  0.00    -0.117 SA
HETATM   16  C16 UNL     1      18.570   0.522  50.272  1.00  0.00     0.146 A 
HETATM   17  H9  UNL     1      23.221   1.701  51.711  1.00  0.00     0.166 HD
ENDROOT
BRANCH  11  18
HETATM   18  N3  UNL     1      24.995   0.564  52.473  1.00  0.00    -0.339 N 
HETATM   19  H4  UNL     1      25.087   0.924  51.503  1.00  0.00     0.167 HD
BRANCH  18  20
HETATM   20  C8  UNL     1      26.329   0.721  52.933  1.00  0.00     0.035 A 
HETATM   21  C9  UNL     1      26.754   2.006  53.269  1.00  0.00     0.029 A 
HETATM   22  C10 UNL     1      28.028   2.268  53.700  1.00  0.00     0.004 A 
HETATM   23  C11 UNL     1      28.974   1.258  53.828  1.00  0.00     0.019 A 
HETATM   24  C12 UNL     1      28.590  -0.024  53.505  1.00  0.00     0.013 A 
HETATM   25 BR1  UNL     1      29.812  -1.464  53.647  1.00  0.00    -0.051 Br
HETATM   26  C13 UNL     1      27.303  -0.254  53.074  1.00  0.00     0.048 A 
ENDBRANCH  18  20
ENDBRANCH  11  18
TORSDOF 2
ENDMDL
MODEL 2
REMARK VINA RESULT:      -8.6      4.340      5.284
REMARK  2 active torsions:
REMARK  status: ('A' for Active; 'I' for Inactive)
REMARK    1  A    between atoms: C7_11  and  N3_12 
REMARK    2  A    between atoms: N3_12  and  C8_13 
ROOT
HETATM    1  F1  UNL     1      18.749  -0.746  52.276  1.00  0.00    -0.210 F 
HETATM    2  C1  UNL     1      19.929  -0.117  52.441  1.00  0.00     0.103 A 
HETATM    3  C2  UNL     1      20.642  -0.329  53.527  1.00  0.00     0.042 A 
HETATM    4  C3  UNL     1      21.927   0.217  53.939  1.00  0.00     0.047 A 
HETATM    5  C4  UNL     1      22.502   1.085  53.086  1.00  0.00     0.110 A 
HETATM    6  O1  UNL     1      23.758   1.645  53.444  1.00  0.00    -0.283 OA
HETATM    7  C5  UNL     1      24.778   2.033  52.541  1.00  0.00     0.202 A 
HETATM    8  N1  UNL     1      25.945   1.819  53.178  1.00  0.00    -0.215 NA
HETATM    9  C6  UNL     1      27.125   2.080  52.604  1.00  0.00     0.238 A 
HETATM   10  N2  UNL     1      27.118   2.567  51.363  1.00  0.00    -0.222 NA
HETATM   11  C7  UNL     1      25.979   2.791  50.702  1.00  0.00     0.160 A 
HETATM   12  C14 UNL     1      24.755   2.526  51.282  1.00  0.00     0.133 A 
HETATM   13  N4  UNL     1      23.702   2.856  50.384  1.00  0.00    -0.354 N 
HETATM   14  C15 UNL     1      22.355   2.367  50.308  1.00  0.00     0.130 C 
HETATM   15  S1  UNL     1      21.683   1.519  51.523  1.00  0.00    -0.117 SA
HETATM   16  C16 UNL     1      20.098   0.735  51.195  1.00  0.00     0.146 A 
HETATM   17  H9  UNL     1      23.912   3.585  49.635  1.00  0.00     0.166 HD
ENDROOT
BRANCH  11  18
HETATM   18  N3  UNL     1      26.120   3.301  49.384  1.00  0.00    -0.339 N 
HETATM   19  H4  UNL     1      26.015   2.980  48.401  1.00  0.00     0.167 HD
BRANCH  18  20
HETATM   20  C8  UNL     1      26.533   4.644  49.172  1.00  0.00     0.035 A 
HETATM   21  C9  UNL     1      27.764   4.855  48.552  1.00  0.00     0.029 A 
HETATM   22  C10 UNL     1      28.264   6.110  48.322  1.00  0.00     0.004 A 
HETATM   23  C11 UNL     1      27.565   7.250  48.698  1.00  0.00     0.019 A 
HETATM   24  C12 UNL     1      26.344   7.080  49.313  1.00  0.00     0.013 A 
HETATM   25 BR1  UNL     1      25.320   8.577  49.860  1.00  0.00    -0.051 Br
HETATM   26  C13 UNL     1      25.871   5.806  49.529  1.00  0.00     0.048 A 
ENDBRANCH  18  20
ENDBRANCH  11  18
TORSDOF 2
ENDMDL
MODEL 3
REMARK VINA RESULT:      -8.4      4.731      8.314
REMARK  2 active torsions:
REMARK  status: ('A' for Active; 'I' for Inactive)
REMARK    1  A    between atoms: C7_11  and  N3_12 
REMARK    2  A    between atoms: N3_12  and  C8_13 
ROOT
HETATM    1  F1  UNL     1      30.668  -0.654  53.788  1.00  0.00    -0.210 F 
HETATM    2  C1  UNL     1      29.479  -0.020  53.810  1.00  0.00     0.103 A 
HETATM    3  C2  UNL     1      29.417   1.251  54.144  1.00  0.00     0.042 A 
HETATM    4  C3  UNL     1      28.276   2.151  54.245  1.00  0.00     0.047 A 
HETATM    5  C4  UNL     1      27.075   1.617  53.952  1.00  0.00     0.110 A 
HETATM    6  O1  UNL     1      25.931   2.455  54.035  1.00  0.00    -0.283 OA
HETATM    7  C5  UNL     1      24.764   2.344  53.240  1.00  0.00     0.202 A 
HETATM    8  N1  UNL     1      24.295   3.597  53.082  1.00  0.00    -0.215 NA
HETATM    9  C6  UNL     1      23.191   3.856  52.373  1.00  0.00     0.238 A 
HETATM   10  N2  UNL     1      22.553   2.827  51.816  1.00  0.00    -0.222 NA
HETATM   11  C7  UNL     1      22.991   1.573  51.951  1.00  0.00     0.160 A 
HETATM   12  C14 UNL     1      24.129   1.289  52.681  1.00  0.00     0.133 A 
HETATM   13  N4  UNL     1      24.377  -0.111  52.683  1.00  0.00    -0.354 N 
HETATM   14  C15 UNL     1      25.599  -0.840  52.873  1.00  0.00     0.130 C 
HETATM   15  S1  UNL     1      26.936  -0.128  53.466  1.00  0.00    -0.117 SA
HETATM   16  C16 UNL     1      28.464  -1.074  53.400  1.00  0.00     0.146 A 
HETATM   17  H9  UNL     1      23.542  -0.754  52.523  1.00  0.00     0.166 HD
ENDROOT
BRANCH  11  18
HETATM   18  N3  UNL     1      22.221   0.575  51.296  1.00  0.00    -0.339 N 
HETATM   19  H4  UNL     1      22.285  -0.051  50.469  1.00  0.00     0.167 HD
BRANCH  18  20
HETATM   20  C8  UNL     1      20.941   0.211  51.793  1.00  0.00     0.035 A 
HETATM   21  C9  UNL     1      20.878  -0.392  53.048  1.00  0.00     0.029 A 
HETATM   22  C10 UNL     1      19.696  -0.801  53.608  1.00  0.00     0.004 A 
HETATM   23  C11 UNL     1      18.484  -0.635  52.948  1.00  0.00     0.019 A 
HETATM   24  C12 UNL     1      18.508  -0.042  51.705  1.00  0.00     0.013 A 
HETATM   25 BR1  UNL     1      16.905   0.226  50.731  1.00  0.00    -0.051 Br
HETATM   26  C13 UNL     1      19.712   0.357  51.171  1.00  0.00     0.048 A 
ENDBRANCH  18  20
ENDBRANCH  11  18
TORSDOF 2
ENDMDL
MODEL 4
REMARK VINA RESULT:      -8.4      1.994      3.186
REMARK  2 active torsions:
REMARK  status: ('A' for Active; 'I' for Inactive)
REMARK    1  A    between atoms: C7_11  and  N3_12 
REMARK    2  A    between atoms: N3_12  and  C8_13 
ROOT
HETATM    1  F1  UNL     1      17.401  -0.783  53.034  1.00  0.00    -0.210 F 
HETATM    2  C1  UNL     1      18.566  -0.370  52.496  1.00  0.00     0.103 A 
HETATM    3  C2  UNL     1      18.592   0.102  51.268  1.00  0.00     0.042 A 
HETATM    4  C3  UNL     1      19.701   0.604  50.468  1.00  0.00     0.047 A 
HETATM    5  C4  UNL     1      20.910   0.593  51.060  1.00  0.00     0.110 A 
HETATM    6  O1  UNL     1      22.023   1.073  50.321  1.00  0.00    -0.283 OA
HETATM    7  C5  UNL     1      23.164   1.714  50.864  1.00  0.00     0.202 A 
HETATM    8  N1  UNL     1      23.579   2.596  49.935  1.00  0.00    -0.215 NA
HETATM    9  C6  UNL     1      24.646   3.380  50.128  1.00  0.00     0.238 A 
HETATM   10  N2  UNL     1      25.301   3.265  51.283  1.00  0.00    -0.222 NA
HETATM   11  C7  UNL     1      24.916   2.402  52.226  1.00  0.00     0.160 A 
HETATM   12  C14 UNL     1      23.817   1.587  52.041  1.00  0.00     0.133 A 
HETATM   13  N4  UNL     1      23.622   0.756  53.179  1.00  0.00    -0.354 N 
HETATM   14  C15 UNL     1      22.437   0.114  53.671  1.00  0.00     0.130 C 
HETATM   15  S1  UNL     1      21.096  -0.022  52.760  1.00  0.00    -0.117 SA
HETATM   16  C16 UNL     1      19.604  -0.598  53.581  1.00  0.00     0.146 A 
HETATM   17  H9  UNL     1      24.475   0.555  53.787  1.00  0.00     0.166 HD
ENDROOT
BRANCH  11  18
HETATM   18  N3  UNL     1      25.699   2.393  53.412  1.00  0.00    -0.339 N 
HETATM   19  H4  UNL     1      25.691   2.813  54.362  1.00  0.00     0.167 HD
BRANCH  18  20
HETATM   20  C8  UNL     1      26.897   1.632  53.478  1.00  0.00     0.035 A 
HETATM   21  C9  UNL     1      28.078   2.305  53.789  1.00  0.00     0.029 A 
HETATM   22  C10 UNL     1      29.290   1.668  53.855  1.00  0.00     0.004 A 
HETATM   23  C11 UNL     1      29.407   0.304  53.613  1.00  0.00     0.019 A 
HETATM   24  C12 UNL     1      28.261  -0.392  53.303  1.00  0.00     0.013 A 
HETATM   25 BR1  UNL     1      28.325  -2.254  52.957  1.00  0.00    -0.051 Br
HETATM   26  C13 UNL     1      27.060   0.277  53.244  1.00  0.00     0.048 A 
ENDBRANCH  18  20
ENDBRANCH  11  18
TORSDOF 2
ENDMDL
MODEL 5
REMARK VINA RESULT:      -8.4      4.113      5.199
REMARK  2 active torsions:
REMARK  status: ('A' for Active; 'I' for Inactive)
REMARK    1  A    between atoms: C7_11  and  N3_12 
REMARK    2  A    between atoms: N3_12  and  C8_13 
ROOT
HETATM    1  F1  UNL     1      19.214  -1.808  53.819  1.00  0.00    -0.210 F 
HETATM    2  C1  UNL     1      20.379  -1.135  53.730  1.00  0.00     0.103 A 
HETATM    3  C2  UNL     1      21.420  -1.526  54.432  1.00  0.00     0.042 A 
HETATM    4  C3  UNL     1      22.768  -0.981  54.515  1.00  0.00     0.047 A 
HETATM    5  C4  UNL     1      23.014   0.103  53.755  1.00  0.00     0.110 A 
HETATM    6  O1  UNL     1      24.316   0.671  53.800  1.00  0.00    -0.283 OA
HETATM    7  C5  UNL     1      24.965   1.338  52.732  1.00  0.00     0.202 A 
HETATM    8  N1  UNL     1      26.280   1.085  52.874  1.00  0.00    -0.215 NA
HETATM    9  C6  UNL     1      27.191   1.568  52.022  1.00  0.00     0.238 A 
HETATM   10  N2  UNL     1      26.760   2.320  51.011  1.00  0.00    -0.222 NA
HETATM   11  C7  UNL     1      25.463   2.591  50.840  1.00  0.00     0.160 A 
HETATM   12  C14 UNL     1      24.511   2.099  51.711  1.00  0.00     0.133 A 
HETATM   13  N4  UNL     1      23.214   2.534  51.321  1.00  0.00    -0.354 N 
HETATM   14  C15 UNL     1      21.924   1.963  51.580  1.00  0.00     0.130 C 
HETATM   15  S1  UNL     1      21.709   0.808  52.706  1.00  0.00    -0.117 SA
HETATM   16  C16 UNL     1      20.110  -0.012  52.743  1.00  0.00     0.146 A 
HETATM   17  H9  UNL     1      23.154   3.428  50.744  1.00  0.00     0.166 HD
ENDROOT
BRANCH  11  18
HETATM   18  N3  UNL     1      25.143   3.396  49.714  1.00  0.00    -0.339 N 
HETATM   19  H4  UNL     1      24.604   3.330  48.828  1.00  0.00     0.167 HD
BRANCH  18  20
HETATM   20  C8  UNL     1      25.644   4.721  49.611  1.00  0.00     0.035 A 
HETATM   21  C9  UNL     1      25.002   5.718  50.344  1.00  0.00     0.029 A 
HETATM   22  C10 UNL     1      25.393   7.031  50.296  1.00  0.00     0.004 A 
HETATM   23  C11 UNL     1      26.460   7.443  49.507  1.00  0.00     0.019 A 
HETATM   24  C12 UNL     1      27.119   6.485  48.770  1.00  0.00     0.013 A 
HETATM   25 BR1  UNL     1      28.585   6.954  47.665  1.00  0.00    -0.051 Br
HETATM   26  C13 UNL     1      26.701   5.175  48.839  1.00  0.00     0.048 A 
ENDBRANCH  18  20
ENDBRANCH  11  18
TORSDOF 2
ENDMDL
MODEL 6
REMARK VINA RESULT:      -8.0      5.639      8.298
REMARK  2 active torsions:
REMARK  status: ('A' for Active; 'I' for Inactive)
REMARK    1  A    between atoms: C7_11  and  N3_12 
REMARK    2  A    between atoms: N3_12  and  C8_13 
ROOT
HETATM    1  F1  UNL     1      27.338   8.730  47.309  1.00  0.00    -0.210 F 
HETATM    2  C1  UNL     1      27.160   7.510  47.852  1.00  0.00     0.103 A 
HETATM    3  C2  UNL     1      28.167   6.666  47.916  1.00  0.00     0.042 A 
HETATM    4  C3  UNL     1      28.237   5.311  48.445  1.00  0.00     0.047 A 
HETATM    5  C4  UNL     1      27.095   4.817  48.959  1.00  0.00     0.110 A 
HETATM    6  O1  UNL     1      27.113   3.499  49.489  1.00  0.00    -0.283 OA
HETATM    7  C5  UNL     1      26.317   3.027  50.561  1.00  0.00     0.202 A 
HETATM    8  N1  UNL     1      27.056   2.099  51.199  1.00  0.00    -0.215 NA
HETATM    9  C6  UNL     1      26.600   1.446  52.274  1.00  0.00     0.238 A 
HETATM   10  N2  UNL     1      25.374   1.740  52.707  1.00  0.00    -0.222 NA
HETATM   11  C7  UNL     1      24.615   2.655  52.099  1.00  0.00     0.160 A 
HETATM   12  C14 UNL     1      25.072   3.337  50.988  1.00  0.00     0.133 A 
HETATM   13  N4  UNL     1      24.079   4.243  50.523  1.00  0.00    -0.354 N 
HETATM   14  C15 UNL     1      24.204   5.446  49.751  1.00  0.00     0.130 C 
HETATM   15  S1  UNL     1      25.581   5.821  48.970  1.00  0.00    -0.117 SA
HETATM   16  C16 UNL     1      25.700   7.473  48.270  1.00  0.00     0.146 A 
HETATM   17  H9  UNL     1      23.065   4.021  50.768  1.00  0.00     0.166 HD
ENDROOT
BRANCH  11  18
HETATM   18  N3  UNL     1      23.335   2.876  52.674  1.00  0.00    -0.339 N 
HETATM   19  H4  UNL     1      22.841   3.592  53.241  1.00  0.00     0.167 HD
BRANCH  18  20
HETATM   20  C8  UNL     1      22.303   1.911  52.525  1.00  0.00     0.035 A 
HETATM   21  C9  UNL     1      21.391   2.089  51.485  1.00  0.00     0.029 A 
HETATM   22  C10 UNL     1      20.346   1.229  51.269  1.00  0.00     0.004 A 
HETATM   23  C11 UNL     1      20.137   0.122  52.083  1.00  0.00     0.019 A 
HETATM   24  C12 UNL     1      21.019  -0.086  53.120  1.00  0.00     0.013 A 
HETATM   25 BR1  UNL     1      20.813  -1.570  54.281  1.00  0.00    -0.051 Br
HETATM   26  C13 UNL     1      22.057   0.796  53.310  1.00  0.00     0.048 A 
ENDBRANCH  18  20
ENDBRANCH  11  18
TORSDOF 2
ENDMDL
MODEL 7
REMARK VINA RESULT:      -8.0      5.304      7.930
REMARK  2 active torsions:
REMARK  status: ('A' for Active; 'I' for Inactive)
REMARK    1  A    between atoms: C7_11  and  N3_12 
REMARK    2  A    between atoms: N3_12  and  C8_13 
ROOT
HETATM    1  F1  UNL     1      30.748  -1.399  54.176  1.00  0.00    -0.210 F 
HETATM    2  C1  UNL     1      29.548  -1.023  53.691  1.00  0.00     0.103 A 
HETATM    3  C2  UNL     1      28.650  -1.933  53.379  1.00  0.00     0.042 A 
HETATM    4  C3  UNL     1      27.303  -1.792  52.846  1.00  0.00     0.047 A 
HETATM    5  C4  UNL     1      26.882  -0.532  52.628  1.00  0.00     0.110 A 
HETATM    6  O1  UNL     1      25.573  -0.342  52.109  1.00  0.00    -0.283 OA
HETATM    7  C5  UNL     1      24.731   0.766  52.372  1.00  0.00     0.202 A 
HETATM    8  N1  UNL     1      23.470   0.295  52.348  1.00  0.00    -0.215 NA
HETATM    9  C6  UNL     1      22.413   1.087  52.563  1.00  0.00     0.238 A 
HETATM   10  N2  UNL     1      22.642   2.377  52.804  1.00  0.00    -0.222 NA
HETATM   11  C7  UNL     1      23.879   2.878  52.836  1.00  0.00     0.160 A 
HETATM   12  C14 UNL     1      24.980   2.073  52.616  1.00  0.00     0.133 A 
HETATM   13  N4  UNL     1      26.175   2.841  52.691  1.00  0.00    -0.354 N 
HETATM   14  C15 UNL     1      27.520   2.442  52.992  1.00  0.00     0.130 C 
HETATM   15  S1  UNL     1      27.969   0.878  52.992  1.00  0.00    -0.117 SA
HETATM   16  C16 UNL     1      29.599   0.495  53.648  1.00  0.00     0.146 A 
HETATM   17  H9  UNL     1      26.096   3.885  52.496  1.00  0.00     0.166 HD
ENDROOT
BRANCH  11  18
HETATM   18  N3  UNL     1      23.977   4.267  53.115  1.00  0.00    -0.339 N 
HETATM   19  H4  UNL     1      24.324   4.896  53.866  1.00  0.00     0.167 HD
BRANCH  18  20
HETATM   20  C8  UNL     1      23.487   5.225  52.187  1.00  0.00     0.035 A 
HETATM   21  C9  UNL     1      22.119   5.229  51.918  1.00  0.00     0.029 A 
HETATM   22  C10 UNL     1      21.550   6.095  51.021  1.00  0.00     0.004 A 
HETATM   23  C11 UNL     1      22.313   7.026  50.327  1.00  0.00     0.019 A 
HETATM   24  C12 UNL     1      23.668   7.051  50.568  1.00  0.00     0.013 A 
HETATM   25 BR1  UNL     1      24.788   8.286  49.666  1.00  0.00    -0.051 Br
HETATM   26  C13 UNL     1      24.209   6.167  51.473  1.00  0.00     0.048 A 
ENDBRANCH  18  20
ENDBRANCH  11  18
TORSDOF 2
ENDMDL
MODEL 8
REMARK VINA RESULT:      -7.8      4.953      6.212
REMARK  2 active torsions:
REMARK  status: ('A' for Active; 'I' for Inactive)
REMARK    1  A    between atoms: C7_11  and  N3_12 
REMARK    2  A    between atoms: N3_12  and  C8_13 
ROOT
HETATM    1  F1  UNL     1      21.004  -1.941  54.806  1.00  0.00    -0.210 F 
HETATM    2  C1  UNL     1      21.038  -0.898  53.953  1.00  0.00     0.103 A 
HETATM    3  C2  UNL     1      19.931  -0.486  53.373  1.00  0.00     0.042 A 
HETATM    4  C3  UNL     1      19.702   0.598  52.428  1.00  0.00     0.047 A 
HETATM    5  C4  UNL     1      20.786   1.311  52.073  1.00  0.00     0.110 A 
HETATM    6  O1  UNL     1      20.614   2.381  51.153  1.00  0.00    -0.283 OA
HETATM    7  C5  UNL     1      21.379   3.572  51.116  1.00  0.00     0.202 A 
HETATM    8  N1  UNL     1      20.548   4.541  50.686  1.00  0.00    -0.215 NA
HETATM    9  C6  UNL     1      20.951   5.807  50.536  1.00  0.00     0.238 A 
HETATM   10  N2  UNL     1      22.220   6.093  50.827  1.00  0.00    -0.222 NA
HETATM   11  C7  UNL     1      23.071   5.158  51.256  1.00  0.00     0.160 A 
HETATM   12  C14 UNL     1      22.669   3.847  51.415  1.00  0.00     0.133 A 
HETATM   13  N4  UNL     1      23.755   3.049  51.870  1.00  0.00    -0.354 N 
HETATM   14  C15 UNL     1      23.762   1.812  52.597  1.00  0.00     0.130 C 
HETATM   15  S1  UNL     1      22.420   0.907  52.758  1.00  0.00    -0.117 SA
HETATM   16  C16 UNL     1      22.495  -0.468  53.914  1.00  0.00     0.146 A 
HETATM   17  H9  UNL     1      24.739   3.396  51.649  1.00  0.00     0.166 HD
ENDROOT
BRANCH  11  18
HETATM   18  N3  UNL     1      24.390   5.605  51.539  1.00  0.00    -0.339 N 
HETATM   19  H4  UNL     1      25.026   5.713  52.353  1.00  0.00     0.167 HD
BRANCH  18  20
HETATM   20  C8  UNL     1      25.222   6.097  50.498  1.00  0.00     0.035 A 
HETATM   21  C9  UNL     1      25.865   5.164  49.685  1.00  0.00     0.029 A 
HETATM   22  C10 UNL     1      26.707   5.534  48.668  1.00  0.00     0.004 A 
HETATM   23  C11 UNL     1      26.967   6.870  48.390  1.00  0.00     0.019 A 
HETATM   24  C12 UNL     1      26.348   7.819  49.172  1.00  0.00     0.013 A 
HETATM   25 BR1  UNL     1      26.643   9.666  48.867  1.00  0.00    -0.051 Br
HETATM   26  C13 UNL     1      25.509   7.415  50.185  1.00  0.00     0.048 A 
ENDBRANCH  18  20
ENDBRANCH  11  18
TORSDOF 2
ENDMDL
MODEL 9
REMARK VINA RESULT:      -7.7      4.668      7.607
REMARK  2 active torsions:
REMARK  status: ('A' for Active; 'I' for Inactive)
REMARK    1  A    between atoms: C7_11  and  N3_12 
REMARK    2  A    between atoms: N3_12  and  C8_13 
ROOT
HETATM    1  F1  UNL     1      30.199   2.091  54.679  1.00  0.00    -0.210 F 
HETATM    2  C1  UNL     1      29.001   1.542  54.392  1.00  0.00     0.103 A 
HETATM    3  C2  UNL     1      28.639   0.416  54.969  1.00  0.00     0.042 A 
HETATM    4  C3  UNL     1      27.420  -0.370  54.834  1.00  0.00     0.047 A 
HETATM    5  C4  UNL     1      26.496   0.115  53.983  1.00  0.00     0.110 A 
HETATM    6  O1  UNL     1      25.289  -0.616  53.817  1.00  0.00    -0.283 OA
HETATM    7  C5  UNL     1      24.020  -0.062  53.522  1.00  0.00     0.202 A 
HETATM    8  N1  UNL     1      23.113  -0.854  54.124  1.00  0.00    -0.215 NA
HETATM    9  C6  UNL     1      21.799  -0.613  54.048  1.00  0.00     0.238 A 
HETATM   10  N2  UNL     1      21.401   0.449  53.349  1.00  0.00    -0.222 NA
HETATM   11  C7  UNL     1      22.273   1.256  52.739  1.00  0.00     0.160 A 
HETATM   12  C14 UNL     1      23.632   1.019  52.808  1.00  0.00     0.133 A 
HETATM   13  N4  UNL     1      24.342   2.008  52.073  1.00  0.00    -0.354 N 
HETATM   14  C15 UNL     1      25.693   2.474  52.203  1.00  0.00     0.130 C 
HETATM   15  S1  UNL     1      26.798   1.662  53.079  1.00  0.00    -0.117 SA
HETATM   16  C16 UNL     1      28.366   2.486  53.386  1.00  0.00     0.146 A 
HETATM   17  H9  UNL     1      23.817   2.502  51.288  1.00  0.00     0.166 HD
ENDROOT
BRANCH  11  18
HETATM   18  N3  UNL     1      21.711   2.356  52.038  1.00  0.00    -0.339 N 
HETATM   19  H4  UNL     1      21.217   3.247  52.240  1.00  0.00     0.167 HD
BRANCH  18  20
HETATM   20  C8  UNL     1      21.744   2.398  50.619  1.00  0.00     0.035 A 
HETATM   21  C9  UNL     1      21.514   1.209  49.928  1.00  0.00     0.029 A 
HETATM   22  C10 UNL     1      21.548   1.137  48.559  1.00  0.00     0.004 A 
HETATM   23  C11 UNL     1      21.814   2.256  47.780  1.00  0.00     0.019 A 
HETATM   24  C12 UNL     1      22.045   3.449  48.428  1.00  0.00     0.013 A 
HETATM   25 BR1  UNL     1      22.416   5.027  47.448  1.00  0.00    -0.051 Br
HETATM   26  C13 UNL     1      22.005   3.487  49.803  1.00  0.00     0.048 A 
ENDBRANCH  18  20
ENDBRANCH  11  18
TORSDOF 2
ENDMDL
