MODEL 1
REMARK VINA RESULT:      -8.8      0.000      0.000
REMARK  4 active torsions:
REMARK  status: ('A' for Active; 'I' for Inactive)
REMARK    1  A    between atoms: C5_5  and  C6_6 
REMARK    2  A    between atoms: C6_6  and  C7_8 
REMARK    3  A    between atoms: C9_11  and  C10_12 
REMARK    4  A    between atoms: C14_17  and  O3_18 
ROOT
HETATM    1  C7  UNL     1      23.669  -0.290  53.463  1.00  0.00     0.096 C 
HETATM    2  C8  UNL     1      23.303  -0.974  54.665  1.00  0.00     0.103 C 
HETATM    3  N1  UNL     1      23.004  -1.553  55.642  1.00  0.00    -0.191 NA
HETATM    4  C9  UNL     1      24.855  -0.059  52.993  1.00  0.00     0.038 C 
ENDROOT
BRANCH   1   5
HETATM    5  C6  UNL     1      22.572   0.199  52.656  1.00  0.00     0.202 C 
HETATM    6  O1  UNL     1      23.162   1.061  51.932  1.00  0.00    -0.286 OA
BRANCH   5   7
HETATM    7  C5  UNL     1      21.180   0.020  52.458  1.00  0.00     0.015 A 
HETATM    8  C4  UNL     1      20.698   0.450  51.245  1.00  0.00     0.016 A 
HETATM    9  C3  UNL     1      19.340   0.321  50.946  1.00  0.00     0.007 A 
HETATM   10  C2  UNL     1      18.513  -0.242  51.890  1.00  0.00    -0.062 A 
HETATM   11  C1  UNL     1      17.061  -0.376  51.561  1.00  0.00     0.048 C 
HETATM   12  C17 UNL     1      18.924  -0.695  53.124  1.00  0.00     0.007 A 
HETATM   13  C16 UNL     1      20.273  -0.530  53.337  1.00  0.00     0.016 A 
ENDBRANCH   5   7
ENDBRANCH   1   5
BRANCH   4  14
HETATM   14  C10 UNL     1      26.192  -0.354  53.447  1.00  0.00    -0.034 C 
HETATM   15  C11 UNL     1      26.927   0.506  54.187  1.00  0.00     0.010 C 
HETATM   16  C12 UNL     1      28.258   0.537  54.794  1.00  0.00     0.196 C 
HETATM   17  O2  UNL     1      28.998  -0.619  54.670  1.00  0.00    -0.381 OA
HETATM   18  C13 UNL     1      29.223  -1.029  53.360  1.00  0.00     0.232 C 
HETATM   19  C14 UNL     1      28.136  -2.035  53.072  1.00  0.00     0.067 C 
HETATM   20  C15 UNL     1      26.857  -1.642  53.137  1.00  0.00     0.045 C 
BRANCH  19  21
HETATM   21  O3  UNL     1      28.310  -3.391  52.729  1.00  0.00    -0.363 OA
HETATM   22  H12 UNL     1      28.155  -3.621  51.740  1.00  0.00     0.217 HD
ENDBRANCH  19  21
ENDBRANCH   4  14
TORSDOF 4
ENDMDL
MODEL 2
REMARK VINA RESULT:      -8.7      1.854      2.721
REMARK  4 active torsions:
REMARK  status: ('A' for Active; 'I' for Inactive)
REMARK    1  A    between atoms: C5_5  and  C6_6 
REMARK    2  A    between atoms: C6_6  and  C7_8 
REMARK    3  A    between atoms: C9_11  and  C10_12 
REMARK    4  A    between atoms: C14_17  and  O3_18 
ROOT
HETATM    1  C7  UNL     1      23.757  -0.008  53.363  1.00  0.00     0.096 C 
HETATM    2  C8  UNL     1      23.308  -0.787  54.476  1.00  0.00     0.103 C 
HETATM    3  N1  UNL     1      22.942  -1.443  55.378  1.00  0.00    -0.191 NA
HETATM    4  C9  UNL     1      24.971   0.208  52.963  1.00  0.00     0.038 C 
ENDROOT
BRANCH   1   5
HETATM    5  C6  UNL     1      22.719   0.612  52.568  1.00  0.00     0.202 C 
HETATM    6  O1  UNL     1      21.788   0.732  53.425  1.00  0.00    -0.286 OA
BRANCH   5   7
HETATM    7  C5  UNL     1      22.461   1.075  51.253  1.00  0.00     0.015 A 
HETATM    8  C4  UNL     1      23.258   2.110  50.825  1.00  0.00     0.016 A 
HETATM    9  C3  UNL     1      23.087   2.641  49.546  1.00  0.00     0.007 A 
HETATM   10  C2  UNL     1      22.111   2.105  48.738  1.00  0.00    -0.062 A 
HETATM   11  C1  UNL     1      21.936   2.682  47.371  1.00  0.00     0.048 C 
HETATM   12  C17 UNL     1      21.276   1.070  49.099  1.00  0.00     0.007 A 
HETATM   13  C16 UNL     1      21.511   0.606  50.372  1.00  0.00     0.016 A 
ENDBRANCH   5   7
ENDBRANCH   1   5
BRANCH   4  14
HETATM   14  C10 UNL     1      26.273  -0.197  53.435  1.00  0.00    -0.034 C 
HETATM   15  C11 UNL     1      27.056   0.590  54.207  1.00  0.00     0.010 C 
HETATM   16  C12 UNL     1      28.372   0.508  54.839  1.00  0.00     0.196 C 
HETATM   17  O2  UNL     1      29.025  -0.698  54.704  1.00  0.00    -0.381 OA
HETATM   18  C13 UNL     1      29.245  -1.098  53.390  1.00  0.00     0.232 C 
HETATM   19  C14 UNL     1      28.091  -2.012  53.061  1.00  0.00     0.067 C 
HETATM   20  C15 UNL     1      26.844  -1.525  53.110  1.00  0.00     0.045 C 
BRANCH  19  21
HETATM   21  O3  UNL     1      28.168  -3.371  52.693  1.00  0.00    -0.363 OA
HETATM   22  H12 UNL     1      28.871  -3.926  53.196  1.00  0.00     0.217 HD
ENDBRANCH  19  21
ENDBRANCH   4  14
TORSDOF 4
ENDMDL
MODEL 3
REMARK VINA RESULT:      -8.6      2.227      2.654
REMARK  4 active torsions:
REMARK  status: ('A' for Active; 'I' for Inactive)
REMARK    1  A    between atoms: C5_5  and  C6_6 
REMARK    2  A    between atoms: C6_6  and  C7_8 
REMARK    3  A    between atoms: C9_11  and  C10_12 
REMARK    4  A    between atoms: C14_17  and  O3_18 
ROOT
HETATM    1  C7  UNL     1      25.299   1.584  51.693  1.00  0.00     0.096 C 
HETATM    2  C8  UNL     1      26.186   2.475  51.010  1.00  0.00     0.103 C 
HETATM    3  N1  UNL     1      26.914   3.219  50.466  1.00  0.00    -0.191 NA
HETATM    4  C9  UNL     1      25.587   0.656  52.551  1.00  0.00     0.038 C 
ENDROOT
BRANCH   1   5
HETATM    5  C6  UNL     1      23.891   1.747  51.399  1.00  0.00     0.202 C 
HETATM    6  O1  UNL     1      23.925   2.677  50.534  1.00  0.00    -0.286 OA
BRANCH   5   7
HETATM    7  C5  UNL     1      22.620   1.231  51.756  1.00  0.00     0.015 A 
HETATM    8  C4  UNL     1      21.788   0.934  50.703  1.00  0.00     0.016 A 
HETATM    9  C3  UNL     1      20.513   0.420  50.943  1.00  0.00     0.007 A 
HETATM   10  C2  UNL     1      20.121   0.223  52.247  1.00  0.00    -0.062 A 
HETATM   11  C1  UNL     1      18.753  -0.328  52.493  1.00  0.00     0.048 C 
HETATM   12  C17 UNL     1      20.899   0.497  53.350  1.00  0.00     0.007 A 
HETATM   13  C16 UNL     1      22.137   1.000  53.025  1.00  0.00     0.016 A 
ENDBRANCH   5   7
ENDBRANCH   1   5
BRANCH   4  14
HETATM   14  C10 UNL     1      26.815   0.158  53.121  1.00  0.00    -0.034 C 
HETATM   15  C11 UNL     1      27.665   0.933  53.833  1.00  0.00     0.010 C 
HETATM   16  C12 UNL     1      28.942   0.771  54.527  1.00  0.00     0.196 C 
HETATM   17  O2  UNL     1      29.447  -0.511  54.558  1.00  0.00    -0.381 OA
HETATM   18  C13 UNL     1      29.655  -1.085  53.307  1.00  0.00     0.232 C 
HETATM   19  C14 UNL     1      28.409  -1.889  53.033  1.00  0.00     0.067 C 
HETATM   20  C15 UNL     1      27.230  -1.256  52.973  1.00  0.00     0.045 C 
BRANCH  19  21
HETATM   21  O3  UNL     1      28.331  -3.282  52.824  1.00  0.00    -0.363 OA
HETATM   22  H12 UNL     1      27.965  -3.828  53.613  1.00  0.00     0.217 HD
ENDBRANCH  19  21
ENDBRANCH   4  14
TORSDOF 4
ENDMDL
MODEL 4
REMARK VINA RESULT:      -8.6      4.840      6.339
REMARK  4 active torsions:
REMARK  status: ('A' for Active; 'I' for Inactive)
REMARK    1  A    between atoms: C5_5  and  C6_6 
REMARK    2  A    between atoms: C6_6  and  C7_8 
REMARK    3  A    between atoms: C9_11  and  C10_12 
REMARK    4  A    between atoms: C14_17  and  O3_18 
ROOT
HETATM    1  C7  UNL     1      25.562   2.435  51.408  1.00  0.00     0.096 C 
HETATM    2  C8  UNL     1      24.418   2.223  52.242  1.00  0.00     0.103 C 
HETATM    3  N1  UNL     1      23.476   2.031  52.916  1.00  0.00    -0.191 NA
HETATM    4  C9  UNL     1      26.757   1.950  51.535  1.00  0.00     0.038 C 
ENDROOT
BRANCH   1   5
HETATM    5  C6  UNL     1      25.356   3.296  50.263  1.00  0.00     0.202 C 
HETATM    6  O1  UNL     1      24.246   2.862  49.822  1.00  0.00    -0.286 OA
BRANCH   5   7
HETATM    7  C5  UNL     1      25.964   4.367  49.561  1.00  0.00     0.015 A 
HETATM    8  C4  UNL     1      25.172   5.475  49.374  1.00  0.00     0.016 A 
HETATM    9  C3  UNL     1      25.673   6.586  48.695  1.00  0.00     0.007 A 
HETATM   10  C2  UNL     1      26.966   6.540  48.227  1.00  0.00    -0.062 A 
HETATM   11  C1  UNL     1      27.493   7.735  47.500  1.00  0.00     0.048 C 
HETATM   12  C17 UNL     1      27.816   5.467  48.376  1.00  0.00     0.007 A 
HETATM   13  C16 UNL     1      27.244   4.416  49.055  1.00  0.00     0.016 A 
ENDBRANCH   5   7
ENDBRANCH   1   5
BRANCH   4  14
HETATM   14  C10 UNL     1      27.392   1.078  52.492  1.00  0.00    -0.034 C 
HETATM   15  C11 UNL     1      28.229   1.525  53.456  1.00  0.00     0.010 C 
HETATM   16  C12 UNL     1      29.016   0.950  54.548  1.00  0.00     0.196 C 
HETATM   17  O2  UNL     1      28.863  -0.405  54.746  1.00  0.00    -0.381 OA
HETATM   18  C13 UNL     1      29.173  -1.193  53.642  1.00  0.00     0.232 C 
HETATM   19  C14 UNL     1      27.853  -1.436  52.952  1.00  0.00     0.067 C 
HETATM   20  C15 UNL     1      27.161  -0.385  52.491  1.00  0.00     0.045 C 
BRANCH  19  21
HETATM   21  O3  UNL     1      27.236  -2.683  52.724  1.00  0.00    -0.363 OA
HETATM   22  H12 UNL     1      27.831  -3.397  52.287  1.00  0.00     0.217 HD
ENDBRANCH  19  21
ENDBRANCH   4  14
TORSDOF 4
ENDMDL
MODEL 5
REMARK VINA RESULT:      -8.5      5.321      6.931
REMARK  4 active torsions:
REMARK  status: ('A' for Active; 'I' for Inactive)
REMARK    1  A    between atoms: C5_5  and  C6_6 
REMARK    2  A    between atoms: C6_6  and  C7_8 
REMARK    3  A    between atoms: C9_11  and  C10_12 
REMARK    4  A    between atoms: C14_17  and  O3_18 
ROOT
HETATM    1  C7  UNL     1      25.506   2.898  51.019  1.00  0.00     0.096 C 
HETATM    2  C8  UNL     1      24.359   2.824  51.871  1.00  0.00     0.103 C 
HETATM    3  N1  UNL     1      23.413   2.746  52.562  1.00  0.00    -0.191 NA
HETATM    4  C9  UNL     1      26.654   2.310  51.154  1.00  0.00     0.038 C 
ENDROOT
BRANCH   1   5
HETATM    5  C6  UNL     1      25.365   3.730  49.843  1.00  0.00     0.202 C 
HETATM    6  O1  UNL     1      24.329   3.227  49.307  1.00  0.00    -0.286 OA
BRANCH   5   7
HETATM    7  C5  UNL     1      25.979   4.823  49.182  1.00  0.00     0.015 A 
HETATM    8  C4  UNL     1      25.141   5.864  48.861  1.00  0.00     0.016 A 
HETATM    9  C3  UNL     1      25.642   6.991  48.208  1.00  0.00     0.007 A 
HETATM   10  C2  UNL     1      26.983   7.027  47.901  1.00  0.00    -0.062 A 
HETATM   11  C1  UNL     1      27.510   8.238  47.201  1.00  0.00     0.048 C 
HETATM   12  C17 UNL     1      27.881   6.024  48.191  1.00  0.00     0.007 A 
HETATM   13  C16 UNL     1      27.305   4.953  48.833  1.00  0.00     0.016 A 
ENDBRANCH   5   7
ENDBRANCH   1   5
BRANCH   4  14
HETATM   14  C10 UNL     1      27.219   1.421  52.139  1.00  0.00    -0.034 C 
HETATM   15  C11 UNL     1      26.866   0.120  52.248  1.00  0.00     0.010 C 
HETATM   16  C12 UNL     1      27.218  -1.023  53.091  1.00  0.00     0.196 C 
HETATM   17  O2  UNL     1      28.224  -0.802  54.007  1.00  0.00    -0.381 OA
HETATM   18  C13 UNL     1      27.976   0.230  54.906  1.00  0.00     0.232 C 
HETATM   19  C14 UNL     1      28.648   1.441  54.307  1.00  0.00     0.067 C 
HETATM   20  C15 UNL     1      28.247   1.875  53.104  1.00  0.00     0.045 C 
BRANCH  19  21
HETATM   21  O3  UNL     1      29.687   2.201  54.881  1.00  0.00    -0.363 OA
HETATM   22  H12 UNL     1      30.214   1.736  55.630  1.00  0.00     0.217 HD
ENDBRANCH  19  21
ENDBRANCH   4  14
TORSDOF 4
ENDMDL
MODEL 6
REMARK VINA RESULT:      -8.5      1.231      2.174
REMARK  4 active torsions:
REMARK  status: ('A' for Active; 'I' for Inactive)
REMARK    1  A    between atoms: C5_5  and  C6_6 
REMARK    2  A    between atoms: C6_6  and  C7_8 
REMARK    3  A    between atoms: C9_11  and  C10_12 
REMARK    4  A    between atoms: C14_17  and  O3_18 
ROOT
HETATM    1  C7  UNL     1      22.807   0.049  53.450  1.00  0.00     0.096 C 
HETATM    2  C8  UNL     1      22.741  -0.854  54.557  1.00  0.00     0.103 C 
HETATM    3  N1  UNL     1      22.688  -1.610  55.454  1.00  0.00    -0.191 NA
HETATM    4  C9  UNL     1      23.855   0.499  52.834  1.00  0.00     0.038 C 
ENDROOT
BRANCH   1   5
HETATM    5  C6  UNL     1      21.535   0.514  52.938  1.00  0.00     0.202 C 
HETATM    6  O1  UNL     1      21.804   1.727  52.669  1.00  0.00    -0.286 OA
BRANCH   5   7
HETATM    7  C5  UNL     1      20.217   0.064  52.677  1.00  0.00     0.015 A 
HETATM    8  C4  UNL     1      19.676   0.483  51.486  1.00  0.00     0.016 A 
HETATM    9  C3  UNL     1      18.382   0.096  51.131  1.00  0.00     0.007 A 
HETATM   10  C2  UNL     1      17.677  -0.706  51.998  1.00  0.00    -0.062 A 
HETATM   11  C1  UNL     1      16.293  -1.114  51.609  1.00  0.00     0.048 C 
HETATM   12  C17 UNL     1      18.154  -1.164  53.207  1.00  0.00     0.007 A 
HETATM   13  C16 UNL     1      19.433  -0.737  53.478  1.00  0.00     0.016 A 
ENDBRANCH   5   7
ENDBRANCH   1   5
BRANCH   4  14
HETATM   14  C10 UNL     1      25.276   0.310  52.996  1.00  0.00    -0.034 C 
HETATM   15  C11 UNL     1      25.888  -0.882  52.811  1.00  0.00     0.010 C 
HETATM   16  C12 UNL     1      27.248  -1.415  52.886  1.00  0.00     0.196 C 
HETATM   17  O2  UNL     1      28.237  -0.493  53.152  1.00  0.00    -0.381 OA
HETATM   18  C13 UNL     1      28.074   0.209  54.341  1.00  0.00     0.232 C 
HETATM   19  C14 UNL     1      27.383   1.491  53.947  1.00  0.00     0.067 C 
HETATM   20  C15 UNL     1      26.176   1.425  53.371  1.00  0.00     0.045 C 
BRANCH  19  21
HETATM   21  O3  UNL     1      27.874   2.802  54.118  1.00  0.00    -0.363 OA
HETATM   22  H12 UNL     1      28.884   2.918  53.975  1.00  0.00     0.217 HD
ENDBRANCH  19  21
ENDBRANCH   4  14
TORSDOF 4
ENDMDL
MODEL 7
REMARK VINA RESULT:      -8.4      2.449      7.355
REMARK  4 active torsions:
REMARK  status: ('A' for Active; 'I' for Inactive)
REMARK    1  A    between atoms: C5_5  and  C6_6 
REMARK    2  A    between atoms: C6_6  and  C7_8 
REMARK    3  A    between atoms: C9_11  and  C10_12 
REMARK    4  A    between atoms: C14_17  and  O3_18 
ROOT
HETATM    1  C7  UNL     1      23.105  -0.418  53.780  1.00  0.00     0.096 C 
HETATM    2  C8  UNL     1      21.999  -1.183  54.269  1.00  0.00     0.103 C 
HETATM    3  N1  UNL     1      21.087  -1.796  54.684  1.00  0.00    -0.191 NA
HETATM    4  C9  UNL     1      23.105   0.529  52.895  1.00  0.00     0.038 C 
ENDROOT
BRANCH   1   5
HETATM    5  C6  UNL     1      24.394  -0.732  54.358  1.00  0.00     0.202 C 
HETATM    6  O1  UNL     1      24.050  -1.247  55.467  1.00  0.00    -0.286 OA
BRANCH   5   7
HETATM    7  C5  UNL     1      25.781  -0.642  54.081  1.00  0.00     0.015 A 
HETATM    8  C4  UNL     1      26.508   0.131  54.953  1.00  0.00     0.016 A 
HETATM    9  C3  UNL     1      27.883   0.287  54.772  1.00  0.00     0.007 A 
HETATM   10  C2  UNL     1      28.480  -0.350  53.709  1.00  0.00    -0.062 A 
HETATM   11  C1  UNL     1      29.953  -0.177  53.523  1.00  0.00     0.048 C 
HETATM   12  C17 UNL     1      27.817  -1.140  52.795  1.00  0.00     0.007 A 
HETATM   13  C16 UNL     1      26.468  -1.239  53.047  1.00  0.00     0.016 A 
ENDBRANCH   5   7
ENDBRANCH   1   5
BRANCH   4  14
HETATM   14  C10 UNL     1      22.085   1.151  52.086  1.00  0.00    -0.034 C 
HETATM   15  C11 UNL     1      21.109   1.932  52.602  1.00  0.00     0.010 C 
HETATM   16  C12 UNL     1      19.962   2.691  52.102  1.00  0.00     0.196 C 
HETATM   17  O2  UNL     1      19.809   2.709  50.732  1.00  0.00    -0.381 OA
HETATM   18  C13 UNL     1      19.680   1.455  50.144  1.00  0.00     0.232 C 
HETATM   19  C14 UNL     1      21.073   1.088  49.696  1.00  0.00     0.067 C 
HETATM   20  C15 UNL     1      22.042   0.983  50.615  1.00  0.00     0.045 C 
BRANCH  19  21
HETATM   21  O3  UNL     1      21.496   0.832  48.375  1.00  0.00    -0.363 OA
HETATM   22  H12 UNL     1      22.382   1.273  48.101  1.00  0.00     0.217 HD
ENDBRANCH  19  21
ENDBRANCH   4  14
TORSDOF 4
ENDMDL
MODEL 8
REMARK VINA RESULT:      -8.1      2.884      4.112
REMARK  4 active torsions:
REMARK  status: ('A' for Active; 'I' for Inactive)
REMARK    1  A    between atoms: C5_5  and  C6_6 
REMARK    2  A    between atoms: C6_6  and  C7_8 
REMARK    3  A    between atoms: C9_11  and  C10_12 
REMARK    4  A    between atoms: C14_17  and  O3_18 
ROOT
HETATM    1  C7  UNL     1      24.172   1.215  52.258  1.00  0.00     0.096 C 
HETATM    2  C8  UNL     1      23.549   0.217  53.073  1.00  0.00     0.103 C 
HETATM    3  N1  UNL     1      23.040  -0.615  53.727  1.00  0.00    -0.191 NA
HETATM    4  C9  UNL     1      25.436   1.436  52.075  1.00  0.00     0.038 C 
ENDROOT
BRANCH   1   5
HETATM    5  C6  UNL     1      23.274   2.086  51.530  1.00  0.00     0.202 C 
HETATM    6  O1  UNL     1      22.598   2.593  52.479  1.00  0.00    -0.286 OA
BRANCH   5   7
HETATM    7  C5  UNL     1      22.959   2.495  50.210  1.00  0.00     0.015 A 
HETATM    8  C4  UNL     1      22.197   1.612  49.485  1.00  0.00     0.016 A 
HETATM    9  C3  UNL     1      21.830   1.917  48.173  1.00  0.00     0.007 A 
HETATM   10  C2  UNL     1      22.249   3.113  47.638  1.00  0.00    -0.062 A 
HETATM   11  C1  UNL     1      21.851   3.431  46.232  1.00  0.00     0.048 C 
HETATM   12  C17 UNL     1      23.013   4.046  48.304  1.00  0.00     0.007 A 
HETATM   13  C16 UNL     1      23.329   3.667  49.587  1.00  0.00     0.016 A 
ENDBRANCH   5   7
ENDBRANCH   1   5
BRANCH   4  14
HETATM   14  C10 UNL     1      26.647   0.835  52.580  1.00  0.00    -0.034 C 
HETATM   15  C11 UNL     1      26.902  -0.490  52.499  1.00  0.00     0.010 C 
HETATM   16  C12 UNL     1      27.976  -1.404  52.888  1.00  0.00     0.196 C 
HETATM   17  O2  UNL     1      29.094  -0.813  53.437  1.00  0.00    -0.381 OA
HETATM   18  C13 UNL     1      28.851  -0.056  54.578  1.00  0.00     0.232 C 
HETATM   19  C14 UNL     1      28.697   1.361  54.084  1.00  0.00     0.067 C 
HETATM   20  C15 UNL     1      27.712   1.641  53.220  1.00  0.00     0.045 C 
BRANCH  19  21
HETATM   21  O3  UNL     1      29.496   2.469  54.433  1.00  0.00    -0.363 OA
HETATM   22  H12 UNL     1      29.279   2.902  55.338  1.00  0.00     0.217 HD
ENDBRANCH  19  21
ENDBRANCH   4  14
TORSDOF 4
ENDMDL
MODEL 9
REMARK VINA RESULT:      -8.0      2.791      7.471
REMARK  4 active torsions:
REMARK  status: ('A' for Active; 'I' for Inactive)
REMARK    1  A    between atoms: C5_5  and  C6_6 
REMARK    2  A    between atoms: C6_6  and  C7_8 
REMARK    3  A    between atoms: C9_11  and  C10_12 
REMARK    4  A    between atoms: C14_17  and  O3_18 
ROOT
HETATM    1  C7  UNL     1      23.358   0.357  53.074  1.00  0.00     0.096 C 
HETATM    2  C8  UNL     1      22.048  -0.167  53.309  1.00  0.00     0.103 C 
HETATM    3  N1  UNL     1      20.969  -0.582  53.515  1.00  0.00    -0.191 NA
HETATM    4  C9  UNL     1      23.712   1.338  52.304  1.00  0.00     0.038 C 
ENDROOT
BRANCH   1   5
HETATM    5  C6  UNL     1      24.433  -0.283  53.803  1.00  0.00     0.202 C 
HETATM    6  O1  UNL     1      23.783  -0.953  54.665  1.00  0.00    -0.286 OA
BRANCH   5   7
HETATM    7  C5  UNL     1      25.847  -0.372  53.835  1.00  0.00     0.015 A 
HETATM    8  C4  UNL     1      26.409  -1.179  52.875  1.00  0.00     0.016 A 
HETATM    9  C3  UNL     1      27.795  -1.338  52.818  1.00  0.00     0.007 A 
HETATM   10  C2  UNL     1      28.569  -0.669  53.738  1.00  0.00    -0.062 A 
HETATM   11  C1  UNL     1      30.051  -0.846  53.668  1.00  0.00     0.048 C 
HETATM   12  C17 UNL     1      28.077   0.155  54.726  1.00  0.00     0.007 A 
HETATM   13  C16 UNL     1      26.705   0.255  54.711  1.00  0.00     0.016 A 
ENDBRANCH   5   7
ENDBRANCH   1   5
BRANCH   4  14
HETATM   14  C10 UNL     1      23.001   2.231  51.422  1.00  0.00    -0.034 C 
HETATM   15  C11 UNL     1      22.592   1.875  50.184  1.00  0.00     0.010 C 
HETATM   16  C12 UNL     1      21.879   2.495  49.067  1.00  0.00     0.196 C 
HETATM   17  O2  UNL     1      21.412   3.772  49.292  1.00  0.00    -0.381 OA
HETATM   18  C13 UNL     1      22.391   4.698  49.637  1.00  0.00     0.232 C 
HETATM   19  C14 UNL     1      22.380   4.737  51.145  1.00  0.00     0.067 C 
HETATM   20  C15 UNL     1      22.657   3.616  51.823  1.00  0.00     0.045 C 
BRANCH  19  21
HETATM   21  O3  UNL     1      22.103   5.855  51.959  1.00  0.00    -0.363 OA
HETATM   22  H12 UNL     1      21.212   6.329  51.770  1.00  0.00     0.217 HD
ENDBRANCH  19  21
ENDBRANCH   4  14
TORSDOF 4
ENDMDL
