MODEL 1
REMARK VINA RESULT:      -9.0      0.000      0.000
REMARK  0 active torsions:
REMARK  status: ('A' for Active; 'I' for Inactive)
ROOT
HETATM    1 CL1  UNL     1      20.996   0.444  53.774  1.00  0.00    -0.130 Cl
HETATM    2  C1  UNL     1      21.318   0.468  52.093  1.00  0.00     0.050 A 
HETATM    3  C2  UNL     1      21.691   0.415  50.828  1.00  0.00    -0.001 C 
HETATM    4  C3  UNL     1      20.794   1.035  49.788  1.00  0.00     0.035 C 
HETATM    5  C4  UNL     1      21.563   1.992  48.927  1.00  0.00     0.061 C 
HETATM    6  C5  UNL     1      22.287   3.040  49.635  1.00  0.00     0.010 C 
HETATM    7  C6  UNL     1      23.183   3.708  48.851  1.00  0.00     0.027 C 
HETATM    8  C7  UNL     1      24.516   4.189  49.332  1.00  0.00     0.029 C 
HETATM    9  C8  UNL     1      25.107   3.695  50.443  1.00  0.00     0.036 C 
HETATM   10  C9  UNL     1      26.296   2.858  50.142  1.00  0.00     0.065 C 
HETATM   11  C10 UNL     1      26.411   1.808  51.177  1.00  0.00     0.006 C 
HETATM   12  C11 UNL     1      26.818   1.019  52.135  1.00  0.00     0.040 C 
HETATM   13  C12 UNL     1      27.649   0.417  53.149  1.00  0.00    -0.008 C 
HETATM   14 BR1  UNL     1      29.418   0.607  53.914  1.00  0.00    -0.056 Br
HETATM   15  C13 UNL     1      26.929  -0.580  53.709  1.00  0.00     0.008 C 
HETATM   16  C14 UNL     1      25.575  -0.779  53.180  1.00  0.00     0.157 C 
HETATM   17  N1  UNL     1      24.569  -0.561  54.208  1.00  0.00    -0.352 N 
HETATM   18  C15 UNL     1      23.454  -0.233  53.497  1.00  0.00    -0.021 C 
HETATM   19  C16 UNL     1      22.489   0.073  52.874  1.00  0.00     0.106 A 
HETATM   20  N2  UNL     1      24.395   4.094  51.618  1.00  0.00    -0.248 NA
HETATM   21  C17 UNL     1      23.183   3.696  51.914  1.00  0.00     0.207 C 
HETATM   22  N3  UNL     1      22.084   3.324  51.043  1.00  0.00    -0.354 N 
HETATM   23  H15 UNL     1      23.799  -0.390  54.873  1.00  0.00     0.169 HD
HETATM   24  H17 UNL     1      21.077   3.198  51.222  1.00  0.00     0.166 HD
ENDROOT
TORSDOF 0
ENDMDL
MODEL 2
REMARK VINA RESULT:      -7.9      3.057      4.516
REMARK  0 active torsions:
REMARK  status: ('A' for Active; 'I' for Inactive)
ROOT
HETATM    1 CL1  UNL     1      24.592   1.362  53.388  1.00  0.00    -0.130 Cl
HETATM    2  C1  UNL     1      23.461   1.207  52.112  1.00  0.00     0.050 A 
HETATM    3  C2  UNL     1      22.697   1.133  51.038  1.00  0.00    -0.001 C 
HETATM    4  C3  UNL     1      21.265   0.695  51.205  1.00  0.00     0.035 C 
HETATM    5  C4  UNL     1      20.332   1.680  50.567  1.00  0.00     0.061 C 
HETATM    6  C5  UNL     1      20.473   3.063  51.004  1.00  0.00     0.010 C 
HETATM    7  C6  UNL     1      19.811   3.955  50.211  1.00  0.00     0.027 C 
HETATM    8  C7  UNL     1      20.332   5.318  49.872  1.00  0.00     0.029 C 
HETATM    9  C8  UNL     1      21.636   5.647  49.999  1.00  0.00     0.036 C 
HETATM   10  C9  UNL     1      22.319   5.824  48.692  1.00  0.00     0.065 C 
HETATM   11  C10 UNL     1      23.735   5.426  48.840  1.00  0.00     0.006 C 
HETATM   12  C11 UNL     1      25.040   5.391  48.861  1.00  0.00     0.040 C 
HETATM   13  C12 UNL     1      26.420   5.789  48.727  1.00  0.00    -0.008 C 
HETATM   14 BR1  UNL     1      27.469   7.318  48.170  1.00  0.00    -0.056 Br
HETATM   15  C13 UNL     1      27.174   4.740  49.124  1.00  0.00     0.008 C 
HETATM   16  C14 UNL     1      26.445   3.546  49.564  1.00  0.00     0.157 C 
HETATM   17  N1  UNL     1      26.722   3.242  50.959  1.00  0.00    -0.352 N 
HETATM   18  C15 UNL     1      25.629   2.530  51.354  1.00  0.00    -0.021 C 
HETATM   19  C16 UNL     1      24.665   1.929  51.699  1.00  0.00     0.106 A 
HETATM   20  N2  UNL     1      22.014   5.703  51.379  1.00  0.00    -0.248 NA
HETATM   21  C17 UNL     1      22.053   4.664  52.174  1.00  0.00     0.207 C 
HETATM   22  N3  UNL     1      21.263   3.447  52.158  1.00  0.00    -0.354 N 
HETATM   23  H15 UNL     1      26.844   2.983  51.952  1.00  0.00     0.169 HD
HETATM   24  H17 UNL     1      21.125   2.708  52.862  1.00  0.00     0.166 HD
ENDROOT
TORSDOF 0
ENDMDL
MODEL 3
REMARK VINA RESULT:      -7.5      2.365      4.385
REMARK  0 active torsions:
REMARK  status: ('A' for Active; 'I' for Inactive)
ROOT
HETATM    1 CL1  UNL     1      24.677   4.876  48.953  1.00  0.00    -0.130 Cl
HETATM    2  C1  UNL     1      23.632   4.885  50.308  1.00  0.00     0.050 A 
HETATM    3  C2  UNL     1      22.934   4.825  51.428  1.00  0.00    -0.001 C 
HETATM    4  C3  UNL     1      21.531   5.375  51.430  1.00  0.00     0.035 C 
HETATM    5  C4  UNL     1      20.564   4.358  51.958  1.00  0.00     0.061 C 
HETATM    6  C5  UNL     1      20.580   3.062  51.291  1.00  0.00     0.010 C 
HETATM    7  C6  UNL     1      19.899   2.092  51.968  1.00  0.00     0.027 C 
HETATM    8  C7  UNL     1      20.335   0.662  52.043  1.00  0.00     0.029 C 
HETATM    9  C8  UNL     1      21.604   0.278  51.778  1.00  0.00     0.036 C 
HETATM   10  C9  UNL     1      22.341  -0.160  52.990  1.00  0.00     0.065 C 
HETATM   11  C10 UNL     1      23.772   0.167  52.818  1.00  0.00     0.006 C 
HETATM   12  C11 UNL     1      25.074   0.122  52.717  1.00  0.00     0.040 C 
HETATM   13  C12 UNL     1      26.426  -0.379  52.692  1.00  0.00    -0.008 C 
HETATM   14 BR1  UNL     1      27.389  -2.044  52.919  1.00  0.00    -0.056 Br
HETATM   15  C13 UNL     1      27.232   0.672  52.424  1.00  0.00     0.008 C 
HETATM   16  C14 UNL     1      26.570   1.966  52.235  1.00  0.00     0.157 C 
HETATM   17  N1  UNL     1      26.793   2.484  50.894  1.00  0.00    -0.352 N 
HETATM   18  C15 UNL     1      25.734   3.319  50.695  1.00  0.00    -0.021 C 
HETATM   19  C16 UNL     1      24.799   4.030  50.517  1.00  0.00     0.106 A 
HETATM   20  N2  UNL     1      21.901   0.430  50.386  1.00  0.00    -0.248 NA
HETATM   21  C17 UNL     1      21.972   1.584  49.772  1.00  0.00     0.207 C 
HETATM   22  N3  UNL     1      21.276   2.829  50.040  1.00  0.00    -0.354 N 
HETATM   23  H15 UNL     1      26.879   2.897  49.952  1.00  0.00     0.169 HD
HETATM   24  H17 UNL     1      21.154   3.683  49.477  1.00  0.00     0.166 HD
ENDROOT
TORSDOF 0
ENDMDL
MODEL 4
REMARK VINA RESULT:      -7.4      3.691      6.874
REMARK  0 active torsions:
REMARK  status: ('A' for Active; 'I' for Inactive)
ROOT
HETATM    1 CL1  UNL     1      25.345   6.100  50.106  1.00  0.00    -0.130 Cl
HETATM    2  C1  UNL     1      25.664   4.420  50.162  1.00  0.00     0.050 A 
HETATM    3  C2  UNL     1      25.822   3.111  50.088  1.00  0.00    -0.001 C 
HETATM    4  C3  UNL     1      26.692   2.432  51.115  1.00  0.00     0.035 C 
HETATM    5  C4  UNL     1      25.960   1.294  51.760  1.00  0.00     0.061 C 
HETATM    6  C5  UNL     1      24.670   1.624  52.353  1.00  0.00     0.010 C 
HETATM    7  C6  UNL     1      23.923   0.529  52.676  1.00  0.00     0.027 C 
HETATM    8  C7  UNL     1      22.434   0.461  52.530  1.00  0.00     0.029 C 
HETATM    9  C8  UNL     1      21.746   1.308  51.733  1.00  0.00     0.036 C 
HETATM   10  C9  UNL     1      21.198   0.647  50.522  1.00  0.00     0.065 C 
HETATM   11  C10 UNL     1      21.164   1.631  49.419  1.00  0.00     0.006 C 
HETATM   12  C11 UNL     1      20.804   2.421  48.443  1.00  0.00     0.040 C 
HETATM   13  C12 UNL     1      19.993   3.098  47.461  1.00  0.00    -0.008 C 
HETATM   14 BR1  UNL     1      18.157   3.153  46.847  1.00  0.00    -0.056 Br
HETATM   15  C13 UNL     1      20.807   3.942  46.790  1.00  0.00     0.008 C 
HETATM   16  C14 UNL     1      22.213   3.955  47.206  1.00  0.00     0.157 C 
HETATM   17  N1  UNL     1      22.603   5.263  47.709  1.00  0.00    -0.352 N 
HETATM   18  C15 UNL     1      23.658   4.989  48.527  1.00  0.00    -0.021 C 
HETATM   19  C16 UNL     1      24.564   4.743  49.255  1.00  0.00     0.106 A 
HETATM   20  N2  UNL     1      21.762   2.635  52.268  1.00  0.00    -0.248 NA
HETATM   21  C17 UNL     1      22.837   3.376  52.366  1.00  0.00     0.207 C 
HETATM   22  N3  UNL     1      24.222   2.989  52.555  1.00  0.00    -0.354 N 
HETATM   23  H15 UNL     1      22.942   6.152  48.110  1.00  0.00     0.169 HD
HETATM   24  H17 UNL     1      25.056   3.529  52.829  1.00  0.00     0.166 HD
ENDROOT
TORSDOF 0
ENDMDL
MODEL 5
REMARK VINA RESULT:      -7.4      3.630      6.435
REMARK  0 active torsions:
REMARK  status: ('A' for Active; 'I' for Inactive)
ROOT
HETATM    1 CL1  UNL     1      24.524   3.003  53.156  1.00  0.00    -0.130 Cl
HETATM    2  C1  UNL     1      23.874   1.429  52.982  1.00  0.00     0.050 A 
HETATM    3  C2  UNL     1      23.376   0.238  52.701  1.00  0.00    -0.001 C 
HETATM    4  C3  UNL     1      23.027  -0.682  53.843  1.00  0.00     0.035 C 
HETATM    5  C4  UNL     1      21.618  -1.175  53.714  1.00  0.00     0.061 C 
HETATM    6  C5  UNL     1      20.594  -0.146  53.586  1.00  0.00     0.010 C 
HETATM    7  C6  UNL     1      19.379  -0.631  53.196  1.00  0.00     0.027 C 
HETATM    8  C7  UNL     1      18.451   0.089  52.268  1.00  0.00     0.029 C 
HETATM    9  C8  UNL     1      18.870   1.080  51.450  1.00  0.00     0.036 C 
HETATM   10  C9  UNL     1      18.876   0.684  50.018  1.00  0.00     0.065 C 
HETATM   11  C10 UNL     1      19.968   1.407  49.332  1.00  0.00     0.006 C 
HETATM   12  C11 UNL     1      20.677   2.154  48.530  1.00  0.00     0.040 C 
HETATM   13  C12 UNL     1      21.038   3.047  47.455  1.00  0.00    -0.008 C 
HETATM   14 BR1  UNL     1      20.210   4.004  45.990  1.00  0.00    -0.056 Br
HETATM   15  C13 UNL     1      22.371   3.247  47.538  1.00  0.00     0.008 C 
HETATM   16  C14 UNL     1      23.065   2.554  48.630  1.00  0.00     0.157 C 
HETATM   17  N1  UNL     1      23.678   3.499  49.550  1.00  0.00    -0.352 N 
HETATM   18  C15 UNL     1      23.769   2.796  50.714  1.00  0.00    -0.021 C 
HETATM   19  C16 UNL     1      23.828   2.187  51.732  1.00  0.00     0.106 A 
HETATM   20  N2  UNL     1      19.229   2.243  52.202  1.00  0.00    -0.248 NA
HETATM   21  C17 UNL     1      20.245   2.302  53.026  1.00  0.00     0.207 C 
HETATM   22  N3  UNL     1      20.856   1.260  53.829  1.00  0.00    -0.354 N 
HETATM   23  H15 UNL     1      24.109   4.108  50.264  1.00  0.00     0.169 HD
HETATM   24  H17 UNL     1      21.514   1.299  54.621  1.00  0.00     0.166 HD
ENDROOT
TORSDOF 0
ENDMDL
MODEL 6
REMARK VINA RESULT:      -7.4      1.907      2.424
REMARK  0 active torsions:
REMARK  status: ('A' for Active; 'I' for Inactive)
ROOT
HETATM    1 CL1  UNL     1      20.483   3.120  52.333  1.00  0.00    -0.130 Cl
HETATM    2  C1  UNL     1      21.011   3.142  50.705  1.00  0.00     0.050 A 
HETATM    3  C2  UNL     1      21.522   3.061  49.490  1.00  0.00    -0.001 C 
HETATM    4  C3  UNL     1      20.914   3.903  48.397  1.00  0.00     0.035 C 
HETATM    5  C4  UNL     1      21.969   4.704  47.696  1.00  0.00     0.061 C 
HETATM    6  C5  UNL     1      22.803   5.541  48.551  1.00  0.00     0.010 C 
HETATM    7  C6  UNL     1      23.911   6.028  47.921  1.00  0.00     0.027 C 
HETATM    8  C7  UNL     1      25.245   6.189  48.582  1.00  0.00     0.029 C 
HETATM    9  C8  UNL     1      25.573   5.533  49.718  1.00  0.00     0.036 C 
HETATM   10  C9  UNL     1      26.588   4.470  49.499  1.00  0.00     0.065 C 
HETATM   11  C10 UNL     1      26.347   3.380  50.468  1.00  0.00     0.006 C 
HETATM   12  C11 UNL     1      26.455   2.482  51.411  1.00  0.00     0.040 C 
HETATM   13  C12 UNL     1      27.005   1.673  52.471  1.00  0.00    -0.008 C 
HETATM   14 BR1  UNL     1      28.663   1.443  53.444  1.00  0.00    -0.056 Br
HETATM   15  C13 UNL     1      26.027   0.835  52.877  1.00  0.00     0.008 C 
HETATM   16  C14 UNL     1      24.739   0.957  52.185  1.00  0.00     0.157 C 
HETATM   17  N1  UNL     1      23.681   1.346  53.103  1.00  0.00    -0.352 N 
HETATM   18  C15 UNL     1      22.758   1.938  52.293  1.00  0.00    -0.021 C 
HETATM   19  C16 UNL     1      21.966   2.471  51.586  1.00  0.00     0.106 A 
HETATM   20  N2  UNL     1      24.819   6.029  50.828  1.00  0.00    -0.248 NA
HETATM   21  C17 UNL     1      23.523   5.892  50.956  1.00  0.00     0.207 C 
HETATM   22  N3  UNL     1      22.489   5.804  49.942  1.00  0.00    -0.354 N 
HETATM   23  H15 UNL     1      22.886   1.653  53.686  1.00  0.00     0.169 HD
HETATM   24  H17 UNL     1      21.464   5.893  49.996  1.00  0.00     0.166 HD
ENDROOT
TORSDOF 0
ENDMDL
MODEL 7
REMARK VINA RESULT:      -7.3      3.083      5.833
REMARK  0 active torsions:
REMARK  status: ('A' for Active; 'I' for Inactive)
ROOT
HETATM    1 CL1  UNL     1      22.631   5.934  50.904  1.00  0.00    -0.130 Cl
HETATM    2  C1  UNL     1      23.617   4.724  50.201  1.00  0.00     0.050 A 
HETATM    3  C2  UNL     1      24.255   3.711  49.644  1.00  0.00    -0.001 C 
HETATM    4  C3  UNL     1      25.747   3.816  49.457  1.00  0.00     0.035 C 
HETATM    5  C4  UNL     1      26.440   2.622  50.042  1.00  0.00     0.061 C 
HETATM    6  C5  UNL     1      26.142   2.337  51.439  1.00  0.00     0.010 C 
HETATM    7  C6  UNL     1      26.564   1.105  51.846  1.00  0.00     0.027 C 
HETATM    8  C7  UNL     1      25.808   0.237  52.803  1.00  0.00     0.029 C 
HETATM    9  C8  UNL     1      24.492   0.413  53.056  1.00  0.00     0.036 C 
HETATM   10  C9  UNL     1      23.644  -0.668  52.490  1.00  0.00     0.065 C 
HETATM   11  C10 UNL     1      22.332  -0.096  52.122  1.00  0.00     0.006 C 
HETATM   12  C11 UNL     1      21.058   0.170  52.009  1.00  0.00     0.040 C 
HETATM   13  C12 UNL     1      19.627   0.103  52.182  1.00  0.00    -0.008 C 
HETATM   14 BR1  UNL     1      18.302  -0.941  53.132  1.00  0.00    -0.056 Br
HETATM   15  C13 UNL     1      19.092   1.091  51.433  1.00  0.00     0.008 C 
HETATM   16  C14 UNL     1      20.040   1.926  50.687  1.00  0.00     0.157 C 
HETATM   17  N1  UNL     1      19.975   3.314  51.119  1.00  0.00    -0.352 N 
HETATM   18  C15 UNL     1      21.202   3.808  50.790  1.00  0.00    -0.021 C 
HETATM   19  C16 UNL     1      22.279   4.229  50.521  1.00  0.00     0.106 A 
HETATM   20  N2  UNL     1      24.272   1.626  53.782  1.00  0.00    -0.248 NA
HETATM   21  C17 UNL     1      24.483   2.823  53.295  1.00  0.00     0.207 C 
HETATM   22  N3  UNL     1      25.441   3.270  52.301  1.00  0.00    -0.354 N 
HETATM   23  H15 UNL     1      20.009   4.308  51.396  1.00  0.00     0.169 HD
HETATM   24  H17 UNL     1      25.770   4.210  52.038  1.00  0.00     0.166 HD
ENDROOT
TORSDOF 0
ENDMDL
MODEL 8
REMARK VINA RESULT:      -7.3      3.323      6.208
REMARK  0 active torsions:
REMARK  status: ('A' for Active; 'I' for Inactive)
ROOT
HETATM    1 CL1  UNL     1      22.826   6.088  49.676  1.00  0.00    -0.130 Cl
HETATM    2  C1  UNL     1      23.873   4.760  49.417  1.00  0.00     0.050 A 
HETATM    3  C2  UNL     1      24.561   3.657  49.181  1.00  0.00    -0.001 C 
HETATM    4  C3  UNL     1      26.054   3.685  49.382  1.00  0.00     0.035 C 
HETATM    5  C4  UNL     1      26.490   2.563  50.275  1.00  0.00     0.061 C 
HETATM    6  C5  UNL     1      25.825   2.488  51.570  1.00  0.00     0.010 C 
HETATM    7  C6  UNL     1      26.043   1.312  52.227  1.00  0.00     0.027 C 
HETATM    8  C7  UNL     1      25.009   0.612  53.053  1.00  0.00     0.029 C 
HETATM    9  C8  UNL     1      23.688   0.866  52.926  1.00  0.00     0.036 C 
HETATM   10  C9  UNL     1      22.941  -0.254  52.299  1.00  0.00     0.065 C 
HETATM   11  C10 UNL     1      21.809   0.303  51.529  1.00  0.00     0.006 C 
HETATM   12  C11 UNL     1      20.628   0.593  51.051  1.00  0.00     0.040 C 
HETATM   13  C12 UNL     1      19.200   0.599  50.849  1.00  0.00    -0.008 C 
HETATM   14 BR1  UNL     1      17.606  -0.256  51.541  1.00  0.00    -0.056 Br
HETATM   15  C13 UNL     1      18.944   1.489  49.865  1.00  0.00     0.008 C 
HETATM   16  C14 UNL     1      20.106   2.179  49.296  1.00  0.00     0.157 C 
HETATM   17  N1  UNL     1      20.029   3.615  49.516  1.00  0.00    -0.352 N 
HETATM   18  C15 UNL     1      21.330   4.016  49.461  1.00  0.00    -0.021 C 
HETATM   19  C16 UNL     1      22.467   4.359  49.434  1.00  0.00     0.106 A 
HETATM   20  N2  UNL     1      23.373   2.176  53.408  1.00  0.00    -0.248 NA
HETATM   21  C17 UNL     1      23.784   3.285  52.846  1.00  0.00     0.207 C 
HETATM   22  N3  UNL     1      24.993   3.556  52.091  1.00  0.00    -0.354 N 
HETATM   23  H15 UNL     1      20.060   4.636  49.663  1.00  0.00     0.169 HD
HETATM   24  H17 UNL     1      25.443   4.438  51.806  1.00  0.00     0.166 HD
ENDROOT
TORSDOF 0
ENDMDL
MODEL 9
REMARK VINA RESULT:      -7.1      3.247      5.167
REMARK  0 active torsions:
REMARK  status: ('A' for Active; 'I' for Inactive)
ROOT
HETATM    1 CL1  UNL     1      27.001   3.993  48.929  1.00  0.00    -0.130 Cl
HETATM    2  C1  UNL     1      26.003   5.165  49.676  1.00  0.00     0.050 A 
HETATM    3  C2  UNL     1      25.227   5.979  50.369  1.00  0.00    -0.001 C 
HETATM    4  C3  UNL     1      24.805   7.281  49.737  1.00  0.00     0.035 C 
HETATM    5  C4  UNL     1      23.315   7.440  49.795  1.00  0.00     0.061 C 
HETATM    6  C5  UNL     1      22.537   6.346  49.227  1.00  0.00     0.010 C 
HETATM    7  C6  UNL     1      21.211   6.397  49.545  1.00  0.00     0.027 C 
HETATM    8  C7  UNL     1      20.374   5.189  49.830  1.00  0.00     0.029 C 
HETATM    9  C8  UNL     1      20.914   3.996  50.163  1.00  0.00     0.036 C 
HETATM   10  C9  UNL     1      20.681   3.633  51.584  1.00  0.00     0.065 C 
HETATM   11  C10 UNL     1      21.827   2.830  52.062  1.00  0.00     0.006 C 
HETATM   12  C11 UNL     1      22.597   1.895  52.552  1.00  0.00     0.040 C 
HETATM   13  C12 UNL     1      23.031   0.652  53.140  1.00  0.00    -0.008 C 
HETATM   14 BR1  UNL     1      22.286  -1.009  53.800  1.00  0.00    -0.056 Br
HETATM   15  C13 UNL     1      24.377   0.712  53.242  1.00  0.00     0.008 C 
HETATM   16  C14 UNL     1      25.010   1.943  52.757  1.00  0.00     0.157 C 
HETATM   17  N1  UNL     1      25.911   1.672  51.647  1.00  0.00    -0.352 N 
HETATM   18  C15 UNL     1      25.966   2.861  50.984  1.00  0.00    -0.021 C 
HETATM   19  C16 UNL     1      25.995   3.893  50.397  1.00  0.00     0.106 A 
HETATM   20  N2  UNL     1      21.598   3.418  49.048  1.00  0.00    -0.248 NA
HETATM   21  C17 UNL     1      22.683   3.918  48.511  1.00  0.00     0.207 C 
HETATM   22  N3  UNL     1      23.129   5.295  48.420  1.00  0.00    -0.354 N 
HETATM   23  H15 UNL     1      26.539   1.562  50.835  1.00  0.00     0.169 HD
HETATM   24  H17 UNL     1      23.858   5.745  47.848  1.00  0.00     0.166 HD
ENDROOT
TORSDOF 0
ENDMDL
