MODEL 1
REMARK VINA RESULT:      -9.7      0.000      0.000
REMARK  3 active torsions:
REMARK  status: ('A' for Active; 'I' for Inactive)
REMARK    1  A    between atoms: C3_7  and  S1_8 
REMARK    2  A    between atoms: S1_8  and  C4_9 
REMARK    3  A    between atoms: C13_20  and  C14_21 
ROOT
HETATM    1  O1  UNL     1      21.546   3.725  52.418  1.00  0.00    -0.265 OA
HETATM    2  C1  UNL     1      22.363   3.393  51.575  1.00  0.00     0.280 C 
HETATM    3  N1  UNL     1      22.713   4.783  51.962  1.00  0.00    -0.203 NA
HETATM    4  C2  UNL     1      23.754   4.829  52.842  1.00  0.00     0.229 C 
HETATM    5  N2  UNL     1      24.535   3.724  53.430  1.00  0.00    -0.271 N 
HETATM    6  N3  UNL     1      23.690   2.712  53.136  1.00  0.00    -0.167 NA
HETATM    7  C3  UNL     1      23.900   1.569  52.990  1.00  0.00     0.119 C 
HETATM    8  C10 UNL     1      22.632   1.164  52.647  1.00  0.00     0.054 C 
HETATM    9  C11 UNL     1      22.083   0.879  51.476  1.00  0.00    -0.010 C 
HETATM   10  C12 UNL     1      22.718   1.368  50.497  1.00  0.00     0.004 C 
HETATM   11  C13 UNL     1      23.123   2.590  50.566  1.00  0.00     0.059 C 
HETATM   12  H2  UNL     1      25.142   4.522  53.630  1.00  0.00     0.190 HD
ENDROOT
BRANCH   7  13
HETATM   13  S1  UNL     1      24.622  -0.083  52.845  1.00  0.00    -0.066 SA
BRANCH  13  14
HETATM   14  C4  UNL     1      26.292  -0.158  53.377  1.00  0.00     0.045 A 
HETATM   15  C5  UNL     1      27.033   0.615  54.249  1.00  0.00     0.025 A 
HETATM   16  C6  UNL     1      28.360   0.360  54.512  1.00  0.00     0.044 A 
HETATM   17  C7  UNL     1      29.006  -0.683  53.910  1.00  0.00     0.119 A 
HETATM   18  F1  UNL     1      30.309  -0.800  54.275  1.00  0.00    -0.206 F 
HETATM   19  C8  UNL     1      28.307  -1.494  53.024  1.00  0.00     0.086 A 
HETATM   20  C9  UNL     1      26.963  -1.214  52.775  1.00  0.00     0.136 A 
HETATM   21  F2  UNL     1      26.454  -2.122  51.877  1.00  0.00    -0.205 F 
ENDBRANCH  13  14
ENDBRANCH   7  13
BRANCH  11  22
HETATM   22  C14 UNL     1      24.083   3.535  50.014  1.00  0.00     0.024 A 
HETATM   23  C15 UNL     1      25.396   3.551  50.172  1.00  0.00     0.047 A 
HETATM   24 CL1  UNL     1      26.378   2.404  51.020  1.00  0.00    -0.083 Cl
HETATM   25  C16 UNL     1      26.090   4.565  49.573  1.00  0.00     0.025 A 
HETATM   26  C17 UNL     1      25.508   5.554  48.825  1.00  0.00     0.003 A 
HETATM   27  C18 UNL     1      24.148   5.600  48.616  1.00  0.00     0.025 A 
HETATM   28  C19 UNL     1      23.467   4.545  49.246  1.00  0.00     0.047 A 
HETATM   29 CL2  UNL     1      21.706   4.553  49.017  1.00  0.00    -0.083 Cl
ENDBRANCH  11  22
TORSDOF 3
ENDMDL
MODEL 2
REMARK VINA RESULT:      -8.6      1.304      1.478
REMARK  3 active torsions:
REMARK  status: ('A' for Active; 'I' for Inactive)
REMARK    1  A    between atoms: C3_7  and  S1_8 
REMARK    2  A    between atoms: S1_8  and  C4_9 
REMARK    3  A    between atoms: C13_20  and  C14_21 
ROOT
HETATM    1  O1  UNL     1      21.361   4.625  51.176  1.00  0.00    -0.265 OA
HETATM    2  C1  UNL     1      22.292   4.373  50.430  1.00  0.00     0.280 C 
HETATM    3  N1  UNL     1      22.478   5.783  50.858  1.00  0.00    -0.203 NA
HETATM    4  C2  UNL     1      23.406   5.904  51.851  1.00  0.00     0.229 C 
HETATM    5  N2  UNL     1      24.206   4.860  52.520  1.00  0.00    -0.271 N 
HETATM    6  N3  UNL     1      23.487   3.785  52.129  1.00  0.00    -0.167 NA
HETATM    7  C3  UNL     1      23.808   2.665  52.004  1.00  0.00     0.119 C 
HETATM    8  C10 UNL     1      22.625   2.161  51.519  1.00  0.00     0.054 C 
HETATM    9  C11 UNL     1      22.237   1.846  50.292  1.00  0.00    -0.010 C 
HETATM   10  C12 UNL     1      22.935   2.398  49.393  1.00  0.00     0.004 C 
HETATM   11  C13 UNL     1      23.226   3.648  49.511  1.00  0.00     0.059 C 
HETATM   12  H2  UNL     1      24.717   5.703  52.790  1.00  0.00     0.190 HD
ENDROOT
BRANCH   7  13
HETATM   13  S1  UNL     1      24.678   1.081  51.937  1.00  0.00    -0.066 SA
BRANCH  13  14
HETATM   14  C4  UNL     1      26.274   1.137  52.662  1.00  0.00     0.045 A 
HETATM   15  C5  UNL     1      26.986   2.144  53.284  1.00  0.00     0.025 A 
HETATM   16  C6  UNL     1      28.254   1.948  53.783  1.00  0.00     0.044 A 
HETATM   17  C7  UNL     1      28.867   0.731  53.681  1.00  0.00     0.119 A 
HETATM   18  F1  UNL     1      30.113   0.701  54.222  1.00  0.00    -0.206 F 
HETATM   19  C8  UNL     1      28.195  -0.318  53.065  1.00  0.00     0.086 A 
HETATM   20  C9  UNL     1      26.911  -0.093  52.567  1.00  0.00     0.136 A 
HETATM   21  F2  UNL     1      26.420  -1.245  52.000  1.00  0.00    -0.205 F 
ENDBRANCH  13  14
ENDBRANCH   7  13
BRANCH  11  22
HETATM   22  C14 UNL     1      24.159   4.677  49.075  1.00  0.00     0.024 A 
HETATM   23  C15 UNL     1      25.448   4.780  49.350  1.00  0.00     0.047 A 
HETATM   24 CL1  UNL     1      26.434   3.676  50.250  1.00  0.00    -0.083 Cl
HETATM   25  C16 UNL     1      26.116   5.860  48.845  1.00  0.00     0.025 A 
HETATM   26  C17 UNL     1      25.531   6.831  48.075  1.00  0.00     0.003 A 
HETATM   27  C18 UNL     1      24.195   6.789  47.747  1.00  0.00     0.025 A 
HETATM   28  C19 UNL     1      23.540   5.667  48.283  1.00  0.00     0.047 A 
HETATM   29 CL2  UNL     1      21.810   5.560  47.897  1.00  0.00    -0.083 Cl
ENDBRANCH  11  22
TORSDOF 3
ENDMDL
MODEL 3
REMARK VINA RESULT:      -8.5      2.665      3.667
REMARK  3 active torsions:
REMARK  status: ('A' for Active; 'I' for Inactive)
REMARK    1  A    between atoms: C3_7  and  S1_8 
REMARK    2  A    between atoms: S1_8  and  C4_9 
REMARK    3  A    between atoms: C13_20  and  C14_21 
ROOT
HETATM    1  O1  UNL     1      21.824   6.531  50.622  1.00  0.00    -0.265 OA
HETATM    2  C1  UNL     1      22.606   5.942  49.895  1.00  0.00     0.280 C 
HETATM    3  N1  UNL     1      23.407   6.958  50.624  1.00  0.00    -0.203 NA
HETATM    4  C2  UNL     1      24.095   6.421  51.672  1.00  0.00     0.229 C 
HETATM    5  N2  UNL     1      24.138   5.025  52.149  1.00  0.00    -0.271 N 
HETATM    6  N3  UNL     1      23.050   4.563  51.496  1.00  0.00    -0.167 NA
HETATM    7  C3  UNL     1      22.777   3.477  51.154  1.00  0.00     0.119 C 
HETATM    8  C10 UNL     1      21.597   3.752  50.504  1.00  0.00     0.054 C 
HETATM    9  C11 UNL     1      21.307   3.878  49.218  1.00  0.00    -0.010 C 
HETATM   10  C12 UNL     1      22.322   4.109  48.500  1.00  0.00     0.004 C 
HETATM   11  C13 UNL     1      23.181   4.984  48.899  1.00  0.00     0.059 C 
HETATM   12  H2  UNL     1      24.954   5.420  52.622  1.00  0.00     0.190 HD
ENDROOT
BRANCH   7  13
HETATM   13  S1  UNL     1      22.725   1.704  50.801  1.00  0.00    -0.066 SA
BRANCH  13  14
HETATM   14  C4  UNL     1      22.631   0.713  52.245  1.00  0.00     0.045 A 
HETATM   15  C5  UNL     1      21.568   0.239  52.989  1.00  0.00     0.025 A 
HETATM   16  C6  UNL     1      21.744  -0.536  54.112  1.00  0.00     0.044 A 
HETATM   17  C7  UNL     1      22.996  -0.872  54.543  1.00  0.00     0.119 A 
HETATM   18  F1  UNL     1      22.999  -1.640  55.663  1.00  0.00    -0.206 F 
HETATM   19  C8  UNL     1      24.102  -0.423  53.831  1.00  0.00     0.086 A 
HETATM   20  C9  UNL     1      23.896   0.362  52.695  1.00  0.00     0.136 A 
HETATM   21  F2  UNL     1      25.105   0.703  52.137  1.00  0.00    -0.205 F 
ENDBRANCH  13  14
ENDBRANCH   7  13
BRANCH  11  22
HETATM   22  C14 UNL     1      24.562   5.419  48.747  1.00  0.00     0.024 A 
HETATM   23  C15 UNL     1      25.660   4.806  49.155  1.00  0.00     0.047 A 
HETATM   24 CL1  UNL     1      25.791   3.260  49.925  1.00  0.00    -0.083 Cl
HETATM   25  C16 UNL     1      26.853   5.430  48.921  1.00  0.00     0.025 A 
HETATM   26  C17 UNL     1      26.974   6.641  48.291  1.00  0.00     0.003 A 
HETATM   27  C18 UNL     1      25.876   7.335  47.838  1.00  0.00     0.025 A 
HETATM   28  C19 UNL     1      24.668   6.666  48.096  1.00  0.00     0.047 A 
HETATM   29 CL2  UNL     1      23.211   7.516  47.538  1.00  0.00    -0.083 Cl
ENDBRANCH  11  22
TORSDOF 3
ENDMDL
MODEL 4
REMARK VINA RESULT:      -8.4      1.849      2.245
REMARK  3 active torsions:
REMARK  status: ('A' for Active; 'I' for Inactive)
REMARK    1  A    between atoms: C3_7  and  S1_8 
REMARK    2  A    between atoms: S1_8  and  C4_9 
REMARK    3  A    between atoms: C13_20  and  C14_21 
ROOT
HETATM    1  O1  UNL     1      20.236   3.113  52.622  1.00  0.00    -0.265 OA
HETATM    2  C1  UNL     1      20.831   2.820  51.599  1.00  0.00     0.280 C 
HETATM    3  N1  UNL     1      20.739   4.303  51.611  1.00  0.00    -0.203 NA
HETATM    4  C2  UNL     1      21.899   4.890  52.026  1.00  0.00     0.229 C 
HETATM    5  N2  UNL     1      23.168   4.266  52.446  1.00  0.00    -0.271 N 
HETATM    6  N3  UNL     1      22.711   3.010  52.643  1.00  0.00    -0.167 NA
HETATM    7  C3  UNL     1      23.276   1.984  52.606  1.00  0.00     0.119 C 
HETATM    8  C10 UNL     1      22.207   1.148  52.822  1.00  0.00     0.054 C 
HETATM    9  C11 UNL     1      21.485   0.407  51.995  1.00  0.00    -0.010 C 
HETATM   10  C12 UNL     1      21.576   0.777  50.789  1.00  0.00     0.004 C 
HETATM   11  C13 UNL     1      21.502   2.034  50.516  1.00  0.00     0.059 C 
HETATM   12  H2  UNL     1      23.467   5.230  52.283  1.00  0.00     0.190 HD
ENDROOT
BRANCH   7  13
HETATM   13  S1  UNL     1      24.481   0.644  52.459  1.00  0.00    -0.066 SA
BRANCH  13  14
HETATM   14  C4  UNL     1      26.086   1.092  53.004  1.00  0.00     0.045 A 
HETATM   15  C5  UNL     1      26.953   2.102  52.634  1.00  0.00     0.025 A 
HETATM   16  C6  UNL     1      28.192   2.257  53.214  1.00  0.00     0.044 A 
HETATM   17  C7  UNL     1      28.619   1.405  54.193  1.00  0.00     0.119 A 
HETATM   18  F1  UNL     1      29.861   1.693  54.661  1.00  0.00    -0.206 F 
HETATM   19  C8  UNL     1      27.786   0.372  54.604  1.00  0.00     0.086 A 
HETATM   20  C9  UNL     1      26.535   0.236  54.000  1.00  0.00     0.136 A 
HETATM   21  F2  UNL     1      25.868  -0.837  54.541  1.00  0.00    -0.205 F 
ENDBRANCH  13  14
ENDBRANCH   7  13
BRANCH  11  22
HETATM   22  C14 UNL     1      21.837   3.033  49.511  1.00  0.00     0.024 A 
HETATM   23  C15 UNL     1      23.030   3.511  49.201  1.00  0.00     0.047 A 
HETATM   24 CL1  UNL     1      24.566   3.033  49.844  1.00  0.00    -0.083 Cl
HETATM   25  C16 UNL     1      23.091   4.474  48.232  1.00  0.00     0.025 A 
HETATM   26  C17 UNL     1      21.997   4.964  47.571  1.00  0.00     0.003 A 
HETATM   27  C18 UNL     1      20.725   4.514  47.839  1.00  0.00     0.025 A 
HETATM   28  C19 UNL     1      20.699   3.527  48.839  1.00  0.00     0.047 A 
HETATM   29 CL2  UNL     1      19.082   2.908  49.234  1.00  0.00    -0.083 Cl
ENDBRANCH  11  22
TORSDOF 3
ENDMDL
MODEL 5
REMARK VINA RESULT:      -8.1      4.410      6.564
REMARK  3 active torsions:
REMARK  status: ('A' for Active; 'I' for Inactive)
REMARK    1  A    between atoms: C3_7  and  S1_8 
REMARK    2  A    between atoms: S1_8  and  C4_9 
REMARK    3  A    between atoms: C13_20  and  C14_21 
ROOT
HETATM    1  O1  UNL     1      25.738  10.290  48.701  1.00  0.00    -0.265 OA
HETATM    2  C1  UNL     1      26.023   9.217  48.199  1.00  0.00     0.280 C 
HETATM    3  N1  UNL     1      27.217   9.638  48.977  1.00  0.00    -0.203 NA
HETATM    4  C2  UNL     1      27.297   9.007  50.184  1.00  0.00     0.229 C 
HETATM    5  N2  UNL     1      26.388   8.011  50.784  1.00  0.00    -0.271 N 
HETATM    6  N3  UNL     1      25.325   8.205  49.974  1.00  0.00    -0.167 NA
HETATM    7  C3  UNL     1      24.452   7.480  49.684  1.00  0.00     0.119 C 
HETATM    8  C10 UNL     1      23.792   8.291  48.793  1.00  0.00     0.054 C 
HETATM    9  C11 UNL     1      23.773   8.316  47.469  1.00  0.00    -0.010 C 
HETATM   10  C12 UNL     1      24.762   7.724  46.947  1.00  0.00     0.004 C 
HETATM   11  C13 UNL     1      25.939   7.937  47.426  1.00  0.00     0.059 C 
HETATM   12  H2  UNL     1      27.219   7.900  51.370  1.00  0.00     0.190 HD
ENDROOT
BRANCH   7  13
HETATM   13  S1  UNL     1      23.308   6.093  49.490  1.00  0.00    -0.066 SA
BRANCH  13  14
HETATM   14  C4  UNL     1      23.518   4.847  50.706  1.00  0.00     0.045 A 
HETATM   15  C5  UNL     1      23.552   4.881  52.087  1.00  0.00     0.025 A 
HETATM   16  C6  UNL     1      23.737   3.748  52.846  1.00  0.00     0.044 A 
HETATM   17  C7  UNL     1      23.898   2.526  52.255  1.00  0.00     0.119 A 
HETATM   18  F1  UNL     1      24.068   1.511  53.141  1.00  0.00    -0.206 F 
HETATM   19  C8  UNL     1      23.871   2.435  50.869  1.00  0.00     0.086 A 
HETATM   20  C9  UNL     1      23.682   3.598  50.122  1.00  0.00     0.136 A 
HETATM   21  F2  UNL     1      23.687   3.299  48.780  1.00  0.00    -0.205 F 
ENDBRANCH  13  14
ENDBRANCH   7  13
BRANCH  11  22
HETATM   22  C14 UNL     1      27.284   7.385  47.511  1.00  0.00     0.024 A 
HETATM   23  C15 UNL     1      27.688   6.320  48.182  1.00  0.00     0.047 A 
HETATM   24 CL1  UNL     1      26.723   5.214  49.101  1.00  0.00    -0.083 Cl
HETATM   25  C16 UNL     1      29.019   6.012  48.132  1.00  0.00     0.025 A 
HETATM   26  C17 UNL     1      29.946   6.735  47.430  1.00  0.00     0.003 A 
HETATM   27  C18 UNL     1      29.599   7.853  46.707  1.00  0.00     0.025 A 
HETATM   28  C19 UNL     1      28.226   8.141  46.782  1.00  0.00     0.047 A 
HETATM   29 CL2  UNL     1      27.715   9.578  45.872  1.00  0.00    -0.083 Cl
ENDBRANCH  11  22
TORSDOF 3
ENDMDL
MODEL 6
REMARK VINA RESULT:      -7.8      7.726      9.879
REMARK  3 active torsions:
REMARK  status: ('A' for Active; 'I' for Inactive)
REMARK    1  A    between atoms: C3_7  and  S1_8 
REMARK    2  A    between atoms: S1_8  and  C4_9 
REMARK    3  A    between atoms: C13_20  and  C14_21 
ROOT
HETATM    1  O1  UNL     1      28.916  10.533  46.767  1.00  0.00    -0.265 OA
HETATM    2  C1  UNL     1      29.050   9.608  47.549  1.00  0.00     0.280 C 
HETATM    3  N1  UNL     1      27.996   9.187  46.591  1.00  0.00    -0.203 NA
HETATM    4  C2  UNL     1      28.475   8.344  45.631  1.00  0.00     0.229 C 
HETATM    5  N2  UNL     1      29.844   7.827  45.436  1.00  0.00    -0.271 N 
HETATM    6  N3  UNL     1      30.498   8.705  46.227  1.00  0.00    -0.167 NA
HETATM    7  C3  UNL     1      31.519   8.600  46.791  1.00  0.00     0.119 C 
HETATM    8  C10 UNL     1      31.526   9.811  47.440  1.00  0.00     0.054 C 
HETATM    9  C11 UNL     1      31.244  10.144  48.690  1.00  0.00    -0.010 C 
HETATM   10  C12 UNL     1      30.548   9.275  49.291  1.00  0.00     0.004 C 
HETATM   11  C13 UNL     1      29.538   8.756  48.680  1.00  0.00     0.059 C 
HETATM   12  H2  UNL     1      29.305   7.186  44.849  1.00  0.00     0.190 HD
ENDROOT
BRANCH   7  13
HETATM   13  S1  UNL     1      33.097   8.055  47.486  1.00  0.00    -0.066 SA
BRANCH  13  14
HETATM   14  C4  UNL     1      33.678   6.553  46.792  1.00  0.00     0.045 A 
HETATM   15  C5  UNL     1      33.728   6.076  45.497  1.00  0.00     0.025 A 
HETATM   16  C6  UNL     1      34.236   4.835  45.189  1.00  0.00     0.044 A 
HETATM   17  C7  UNL     1      34.718   4.012  46.167  1.00  0.00     0.119 A 
HETATM   18  F1  UNL     1      35.184   2.825  45.700  1.00  0.00    -0.206 F 
HETATM   19  C8  UNL     1      34.693   4.442  47.488  1.00  0.00     0.086 A 
HETATM   20  C9  UNL     1      34.172   5.705  47.774  1.00  0.00     0.136 A 
HETATM   21  F2  UNL     1      34.235   5.942  49.127  1.00  0.00    -0.205 F 
ENDBRANCH  13  14
ENDBRANCH   7  13
BRANCH  11  22
HETATM   22  C14 UNL     1      28.647   7.605  48.665  1.00  0.00     0.024 A 
HETATM   23  C15 UNL     1      28.923   6.364  48.300  1.00  0.00     0.047 A 
HETATM   24 CL1  UNL     1      30.452   5.717  47.804  1.00  0.00    -0.083 Cl
HETATM   25  C16 UNL     1      27.905   5.453  48.345  1.00  0.00     0.025 A 
HETATM   26  C17 UNL     1      26.629   5.750  48.746  1.00  0.00     0.003 A 
HETATM   27  C18 UNL     1      26.269   7.019  49.140  1.00  0.00     0.025 A 
HETATM   28  C19 UNL     1      27.339   7.928  49.080  1.00  0.00     0.047 A 
HETATM   29 CL2  UNL     1      26.935   9.586  49.574  1.00  0.00    -0.083 Cl
ENDBRANCH  11  22
TORSDOF 3
ENDMDL
MODEL 7
REMARK VINA RESULT:      -7.7      2.394      3.280
REMARK  3 active torsions:
REMARK  status: ('A' for Active; 'I' for Inactive)
REMARK    1  A    between atoms: C3_7  and  S1_8 
REMARK    2  A    between atoms: S1_8  and  C4_9 
REMARK    3  A    between atoms: C13_20  and  C14_21 
ROOT
HETATM    1  O1  UNL     1      24.162   6.686  51.338  1.00  0.00    -0.265 OA
HETATM    2  C1  UNL     1      23.349   5.980  50.767  1.00  0.00     0.280 C 
HETATM    3  N1  UNL     1      24.032   6.762  49.705  1.00  0.00    -0.203 NA
HETATM    4  C2  UNL     1      24.995   6.035  49.067  1.00  0.00     0.229 C 
HETATM    5  N2  UNL     1      25.422   4.641  49.292  1.00  0.00    -0.271 N 
HETATM    6  N3  UNL     1      24.858   4.459  50.506  1.00  0.00    -0.167 NA
HETATM    7  C3  UNL     1      24.508   3.476  51.038  1.00  0.00     0.119 C 
HETATM    8  C10 UNL     1      23.978   4.031  52.178  1.00  0.00     0.054 C 
HETATM    9  C11 UNL     1      22.729   4.283  52.539  1.00  0.00    -0.010 C 
HETATM   10  C12 UNL     1      21.928   4.325  51.561  1.00  0.00     0.004 C 
HETATM   11  C13 UNL     1      22.274   4.972  50.501  1.00  0.00     0.059 C 
HETATM   12  H2  UNL     1      25.830   4.826  48.373  1.00  0.00     0.190 HD
ENDROOT
BRANCH   7  13
HETATM   13  S1  UNL     1      24.106   1.776  51.506  1.00  0.00    -0.066 SA
BRANCH  13  14
HETATM   14  C4  UNL     1      25.251   1.080  52.637  1.00  0.00     0.045 A 
HETATM   15  C5  UNL     1      25.104   0.496  53.881  1.00  0.00     0.025 A 
HETATM   16  C6  UNL     1      26.174   0.015  54.598  1.00  0.00     0.044 A 
HETATM   17  C7  UNL     1      27.445   0.095  54.102  1.00  0.00     0.119 A 
HETATM   18  F1  UNL     1      28.387  -0.425  54.930  1.00  0.00    -0.206 F 
HETATM   19  C8  UNL     1      27.650   0.672  52.854  1.00  0.00     0.086 A 
HETATM   20  C9  UNL     1      26.548   1.154  52.147  1.00  0.00     0.136 A 
HETATM   21  F2  UNL     1      26.957   1.682  50.946  1.00  0.00    -0.205 F 
ENDBRANCH  13  14
ENDBRANCH   7  13
BRANCH  11  22
HETATM   22  C14 UNL     1      22.009   5.106  49.076  1.00  0.00     0.024 A 
HETATM   23  C15 UNL     1      22.305   4.256  48.107  1.00  0.00     0.047 A 
HETATM   24 CL1  UNL     1      23.027   2.688  48.254  1.00  0.00    -0.083 Cl
HETATM   25  C16 UNL     1      21.979   4.618  46.830  1.00  0.00     0.025 A 
HETATM   26  C17 UNL     1      21.368   5.798  46.501  1.00  0.00     0.003 A 
HETATM   27  C18 UNL     1      21.029   6.730  47.455  1.00  0.00     0.025 A 
HETATM   28  C19 UNL     1      21.379   6.327  48.755  1.00  0.00     0.047 A 
HETATM   29 CL2  UNL     1      20.971   7.491  50.032  1.00  0.00    -0.083 Cl
ENDBRANCH  11  22
TORSDOF 3
ENDMDL
MODEL 8
REMARK VINA RESULT:      -7.7      4.076      6.393
REMARK  3 active torsions:
REMARK  status: ('A' for Active; 'I' for Inactive)
REMARK    1  A    between atoms: C3_7  and  S1_8 
REMARK    2  A    between atoms: S1_8  and  C4_9 
REMARK    3  A    between atoms: C13_20  and  C14_21 
ROOT
HETATM    1  O1  UNL     1      23.060   5.564  50.173  1.00  0.00    -0.265 OA
HETATM    2  C1  UNL     1      23.431   4.404  50.120  1.00  0.00     0.280 C 
HETATM    3  N1  UNL     1      23.861   4.914  51.448  1.00  0.00    -0.203 NA
HETATM    4  C2  UNL     1      23.022   4.519  52.449  1.00  0.00     0.229 C 
HETATM    5  N2  UNL     1      21.802   3.692  52.380  1.00  0.00    -0.271 N 
HETATM    6  N3  UNL     1      21.587   3.775  51.049  1.00  0.00    -0.167 NA
HETATM    7  C3  UNL     1      21.023   3.046  50.327  1.00  0.00     0.119 C 
HETATM    8  C10 UNL     1      21.255   3.702  49.142  1.00  0.00     0.054 C 
HETATM    9  C11 UNL     1      22.120   3.478  48.164  1.00  0.00    -0.010 C 
HETATM   10  C12 UNL     1      23.096   2.757  48.520  1.00  0.00     0.004 C 
HETATM   11  C13 UNL     1      23.678   3.007  49.643  1.00  0.00     0.059 C 
HETATM   12  H2  UNL     1      22.006   3.659  53.381  1.00  0.00     0.190 HD
ENDROOT
BRANCH   7  13
HETATM   13  S1  UNL     1      20.092   1.696  49.563  1.00  0.00    -0.066 SA
BRANCH  13  14
HETATM   14  C4  UNL     1      19.182   0.742  50.720  1.00  0.00     0.045 A 
HETATM   15  C5  UNL     1      19.511   0.184  51.939  1.00  0.00     0.025 A 
HETATM   16  C6  UNL     1      18.609  -0.544  52.682  1.00  0.00     0.044 A 
HETATM   17  C7  UNL     1      17.334  -0.746  52.235  1.00  0.00     0.119 A 
HETATM   18  F1  UNL     1      16.570  -1.482  53.083  1.00  0.00    -0.206 F 
HETATM   19  C8  UNL     1      16.949  -0.205  51.015  1.00  0.00     0.086 A 
HETATM   20  C9  UNL     1      17.882   0.528  50.280  1.00  0.00     0.136 A 
HETATM   21  F2  UNL     1      17.312   0.975  49.112  1.00  0.00    -0.205 F 
ENDBRANCH  13  14
ENDBRANCH   7  13
BRANCH  11  22
HETATM   22  C14 UNL     1      24.522   2.425  50.676  1.00  0.00     0.024 A 
HETATM   23  C15 UNL     1      24.189   1.536  51.597  1.00  0.00     0.047 A 
HETATM   24 CL1  UNL     1      22.665   0.738  51.802  1.00  0.00    -0.083 Cl
HETATM   25  C16 UNL     1      25.156   1.158  52.486  1.00  0.00     0.025 A 
HETATM   26  C17 UNL     1      26.438   1.640  52.474  1.00  0.00     0.003 A 
HETATM   27  C18 UNL     1      26.857   2.565  51.544  1.00  0.00     0.025 A 
HETATM   28  C19 UNL     1      25.838   2.932  50.649  1.00  0.00     0.047 A 
HETATM   29 CL2  UNL     1      26.316   4.128  49.426  1.00  0.00    -0.083 Cl
ENDBRANCH  11  22
TORSDOF 3
ENDMDL
MODEL 9
REMARK VINA RESULT:      -7.4      4.333      6.614
REMARK  3 active torsions:
REMARK  status: ('A' for Active; 'I' for Inactive)
REMARK    1  A    between atoms: C3_7  and  S1_8 
REMARK    2  A    between atoms: S1_8  and  C4_9 
REMARK    3  A    between atoms: C13_20  and  C14_21 
ROOT
HETATM    1  O1  UNL     1      23.763   4.307  52.536  1.00  0.00    -0.265 OA
HETATM    2  C1  UNL     1      23.653   3.822  51.422  1.00  0.00     0.280 C 
HETATM    3  N1  UNL     1      22.286   3.834  52.003  1.00  0.00    -0.203 NA
HETATM    4  C2  UNL     1      21.536   4.876  51.539  1.00  0.00     0.229 C 
HETATM    5  N2  UNL     1      21.899   5.940  50.582  1.00  0.00    -0.271 N 
HETATM    6  N3  UNL     1      23.240   5.780  50.614  1.00  0.00    -0.167 NA
HETATM    7  C3  UNL     1      24.052   6.044  49.813  1.00  0.00     0.119 C 
HETATM    8  C10 UNL     1      25.158   5.556  50.466  1.00  0.00     0.054 C 
HETATM    9  C11 UNL     1      25.847   4.434  50.319  1.00  0.00    -0.010 C 
HETATM   10  C12 UNL     1      25.199   3.529  49.716  1.00  0.00     0.004 C 
HETATM   11  C13 UNL     1      23.973   3.314  50.051  1.00  0.00     0.059 C 
HETATM   12  H2  UNL     1      20.880   6.021  50.591  1.00  0.00     0.190 HD
ENDROOT
BRANCH   7  13
HETATM   13  S1  UNL     1      24.975   6.585  48.354  1.00  0.00    -0.066 SA
BRANCH  13  14
HETATM   14  C4  UNL     1      26.316   7.648  48.737  1.00  0.00     0.045 A 
HETATM   15  C5  UNL     1      26.381   8.910  49.294  1.00  0.00     0.025 A 
HETATM   16  C6  UNL     1      27.576   9.562  49.499  1.00  0.00     0.044 A 
HETATM   17  C7  UNL     1      28.762   8.977  49.156  1.00  0.00     0.119 A 
HETATM   18  F1  UNL     1      29.847   9.748  49.424  1.00  0.00    -0.206 F 
HETATM   19  C8  UNL     1      28.754   7.706  48.593  1.00  0.00     0.086 A 
HETATM   20  C9  UNL     1      27.529   7.067  48.394  1.00  0.00     0.136 A 
HETATM   21  F2  UNL     1      27.733   5.830  47.831  1.00  0.00    -0.205 F 
ENDBRANCH  13  14
ENDBRANCH   7  13
BRANCH  11  22
HETATM   22  C14 UNL     1      22.719   2.739  49.586  1.00  0.00     0.024 A 
HETATM   23  C15 UNL     1      21.929   3.178  48.621  1.00  0.00     0.047 A 
HETATM   24 CL1  UNL     1      22.189   4.526  47.565  1.00  0.00    -0.083 Cl
HETATM   25  C16 UNL     1      20.778   2.479  48.382  1.00  0.00     0.025 A 
HETATM   26  C17 UNL     1      20.403   1.361  49.079  1.00  0.00     0.003 A 
HETATM   27  C18 UNL     1      21.176   0.846  50.094  1.00  0.00     0.025 A 
HETATM   28  C19 UNL     1      22.349   1.588  50.313  1.00  0.00     0.047 A 
HETATM   29 CL2  UNL     1      23.386   0.975  51.617  1.00  0.00    -0.083 Cl
ENDBRANCH  11  22
TORSDOF 3
ENDMDL
