MODEL 1
REMARK VINA RESULT:      -7.6      0.000      0.000
REMARK  6 active torsions:
REMARK  status: ('A' for Active; 'I' for Inactive)
REMARK    1  A    between atoms: S1_2  and  N1_4 
REMARK    2  A    between atoms: S1_2  and  C7_15 
REMARK    3  A    between atoms: N1_4  and  C1_5 
REMARK    4  A    between atoms: C1_5  and  N2_6 
REMARK    5  A    between atoms: N2_6  and  C2_7 
REMARK    6  A    between atoms: C6_12  and  O3_13 
ROOT
HETATM    1  N1  UNL     1      26.239   1.986  54.188  1.00  0.00    -0.299 N 
HETATM    2  H1  UNL     1      26.276   2.302  55.160  1.00  0.00     0.174 HD
ENDROOT
BRANCH   1   3
HETATM    3  S1  UNL     1      27.717   1.939  53.341  1.00  0.00     0.260 S 
HETATM    4  O1  UNL     1      28.734   2.730  54.104  1.00  0.00    -0.200 OA
HETATM    5  O2  UNL     1      27.619   2.486  51.952  1.00  0.00    -0.200 OA
BRANCH   3   6
HETATM    6  C7  UNL     1      28.268   0.268  53.299  1.00  0.00     0.079 A 
HETATM    7  C8  UNL     1      27.416  -0.740  52.898  1.00  0.00     0.025 A 
HETATM    8  C9  UNL     1      27.763  -2.087  52.833  1.00  0.00     0.002 A 
HETATM    9  C10 UNL     1      29.051  -2.401  53.200  1.00  0.00     0.000 A 
HETATM   10  C11 UNL     1      29.934  -1.424  53.608  1.00  0.00     0.002 A 
HETATM   11  C12 UNL     1      29.562  -0.096  53.662  1.00  0.00     0.025 A 
ENDBRANCH   3   6
ENDBRANCH   1   3
BRANCH   1  12
HETATM   12  C1  UNL     1      25.113   2.392  53.412  1.00  0.00     0.255 C 
BRANCH  12  13
HETATM   13  N2  UNL     1      24.625   1.312  52.545  1.00  0.00    -0.370 N 
HETATM   14  H4  UNL     1      25.201   1.068  51.712  1.00  0.00     0.161 HD
BRANCH  13  15
HETATM   15  C2  UNL     1      23.415   0.629  52.835  1.00  0.00     0.086 A 
HETATM   16  C3  UNL     1      22.287   0.926  52.121  1.00  0.00     0.035 A 
HETATM   17  C4  UNL     1      21.140   0.238  52.437  1.00  0.00     0.022 A 
HETATM   18  C5  UNL     1      21.108  -0.717  53.432  1.00  0.00     0.119 A 
HETATM   19  N3  UNL     1      22.243  -0.972  54.108  1.00  0.00    -0.233 NA
HETATM   20  C6  UNL     1      23.395  -0.326  53.837  1.00  0.00     0.231 A 
BRANCH  20  21
HETATM   21  O3  UNL     1      24.585  -0.570  54.517  1.00  0.00    -0.133 OA
HETATM   22  F1  UNL     1      24.699  -1.544  55.450  1.00  0.00    -0.040 F 
ENDBRANCH  20  21
ENDBRANCH  13  15
ENDBRANCH  12  13
ENDBRANCH   1  12
TORSDOF 6
ENDMDL
MODEL 2
REMARK VINA RESULT:      -7.4      1.972      2.149
REMARK  6 active torsions:
REMARK  status: ('A' for Active; 'I' for Inactive)
REMARK    1  A    between atoms: S1_2  and  N1_4 
REMARK    2  A    between atoms: S1_2  and  C7_15 
REMARK    3  A    between atoms: N1_4  and  C1_5 
REMARK    4  A    between atoms: C1_5  and  N2_6 
REMARK    5  A    between atoms: N2_6  and  C2_7 
REMARK    6  A    between atoms: C6_12  and  O3_13 
ROOT
HETATM    1  N1  UNL     1      26.155   2.049  54.161  1.00  0.00    -0.299 N 
HETATM    2  H1  UNL     1      26.235   2.319  55.145  1.00  0.00     0.174 HD
ENDROOT
BRANCH   1   3
HETATM    3  S1  UNL     1      27.608   1.929  53.280  1.00  0.00     0.260 S 
HETATM    4  O1  UNL     1      28.685   2.656  54.025  1.00  0.00    -0.200 OA
HETATM    5  O2  UNL     1      27.509   2.493  51.898  1.00  0.00    -0.200 OA
BRANCH   3   6
HETATM    6  C7  UNL     1      28.065   0.231  53.211  1.00  0.00     0.079 A 
HETATM    7  C8  UNL     1      27.163  -0.720  52.779  1.00  0.00     0.025 A 
HETATM    8  C9  UNL     1      27.435  -2.082  52.692  1.00  0.00     0.002 A 
HETATM    9  C10 UNL     1      28.698  -2.476  53.069  1.00  0.00     0.000 A 
HETATM   10  C11 UNL     1      29.629  -1.558  53.508  1.00  0.00     0.002 A 
HETATM   11  C12 UNL     1      29.331  -0.213  53.584  1.00  0.00     0.025 A 
ENDBRANCH   3   6
ENDBRANCH   1   3
BRANCH   1  12
HETATM   12  C1  UNL     1      25.048   2.572  53.429  1.00  0.00     0.255 C 
BRANCH  12  13
HETATM   13  N2  UNL     1      24.390   1.541  52.617  1.00  0.00    -0.370 N 
HETATM   14  H4  UNL     1      24.751   1.387  51.651  1.00  0.00     0.161 HD
BRANCH  13  15
HETATM   15  C2  UNL     1      23.305   0.784  53.131  1.00  0.00     0.086 A 
HETATM   16  C3  UNL     1      23.549  -0.422  53.727  1.00  0.00     0.035 A 
HETATM   17  C4  UNL     1      22.467  -1.119  54.210  1.00  0.00     0.022 A 
HETATM   18  C5  UNL     1      21.179  -0.637  54.106  1.00  0.00     0.119 A 
HETATM   19  N3  UNL     1      20.990   0.554  53.509  1.00  0.00    -0.233 NA
HETATM   20  C6  UNL     1      22.016   1.278  53.019  1.00  0.00     0.231 A 
BRANCH  20  21
HETATM   21  O3  UNL     1      21.852   2.513  52.399  1.00  0.00    -0.133 OA
HETATM   22  F1  UNL     1      20.709   3.230  52.505  1.00  0.00    -0.040 F 
ENDBRANCH  20  21
ENDBRANCH  13  15
ENDBRANCH  12  13
ENDBRANCH   1  12
TORSDOF 6
ENDMDL
MODEL 3
REMARK VINA RESULT:      -7.2      3.777      6.191
REMARK  6 active torsions:
REMARK  status: ('A' for Active; 'I' for Inactive)
REMARK    1  A    between atoms: S1_2  and  N1_4 
REMARK    2  A    between atoms: S1_2  and  C7_15 
REMARK    3  A    between atoms: N1_4  and  C1_5 
REMARK    4  A    between atoms: C1_5  and  N2_6 
REMARK    5  A    between atoms: N2_6  and  C2_7 
REMARK    6  A    between atoms: C6_12  and  O3_13 
ROOT
HETATM    1  N1  UNL     1      24.613   3.658  52.910  1.00  0.00    -0.299 N 
HETATM    2  H1  UNL     1      23.918   4.166  53.463  1.00  0.00     0.174 HD
ENDROOT
BRANCH   1   3
HETATM    3  S1  UNL     1      24.225   3.363  51.277  1.00  0.00     0.260 S 
HETATM    4  O1  UNL     1      22.827   3.836  51.021  1.00  0.00    -0.200 OA
HETATM    5  O2  UNL     1      24.325   1.920  50.898  1.00  0.00    -0.200 OA
BRANCH   3   6
HETATM    6  C7  UNL     1      25.303   4.331  50.277  1.00  0.00     0.079 A 
HETATM    7  C8  UNL     1      26.399   3.753  49.669  1.00  0.00     0.025 A 
HETATM    8  C9  UNL     1      27.305   4.437  48.863  1.00  0.00     0.002 A 
HETATM    9  C10 UNL     1      27.063   5.779  48.680  1.00  0.00     0.000 A 
HETATM   10  C11 UNL     1      25.980   6.395  49.271  1.00  0.00     0.002 A 
HETATM   11  C12 UNL     1      25.098   5.691  50.065  1.00  0.00     0.025 A 
ENDBRANCH   3   6
ENDBRANCH   1   3
BRANCH   1  12
HETATM   12  C1  UNL     1      25.321   2.604  53.560  1.00  0.00     0.255 C 
BRANCH  12  13
HETATM   13  N2  UNL     1      26.691   2.467  53.051  1.00  0.00    -0.370 N 
HETATM   14  H4  UNL     1      27.112   3.294  52.577  1.00  0.00     0.161 HD
BRANCH  13  15
HETATM   15  C2  UNL     1      27.411   1.253  53.200  1.00  0.00     0.086 A 
HETATM   16  C3  UNL     1      26.942   0.115  52.603  1.00  0.00     0.035 A 
HETATM   17  C4  UNL     1      27.673  -1.036  52.776  1.00  0.00     0.022 A 
HETATM   18  C5  UNL     1      28.835  -1.063  53.518  1.00  0.00     0.119 A 
HETATM   19  N3  UNL     1      29.255   0.082  54.087  1.00  0.00    -0.233 NA
HETATM   20  C6  UNL     1      28.576   1.238  53.949  1.00  0.00     0.231 A 
BRANCH  20  21
HETATM   21  O3  UNL     1      28.985   2.438  54.525  1.00  0.00    -0.133 OA
HETATM   22  F1  UNL     1      30.232   2.615  55.019  1.00  0.00    -0.040 F 
ENDBRANCH  20  21
ENDBRANCH  13  15
ENDBRANCH  12  13
ENDBRANCH   1  12
TORSDOF 6
ENDMDL
MODEL 4
REMARK VINA RESULT:      -7.2      2.110      2.584
REMARK  6 active torsions:
REMARK  status: ('A' for Active; 'I' for Inactive)
REMARK    1  A    between atoms: S1_2  and  N1_4 
REMARK    2  A    between atoms: S1_2  and  C7_15 
REMARK    3  A    between atoms: N1_4  and  C1_5 
REMARK    4  A    between atoms: C1_5  and  N2_6 
REMARK    5  A    between atoms: N2_6  and  C2_7 
REMARK    6  A    between atoms: C6_12  and  O3_13 
ROOT
HETATM    1  N1  UNL     1      26.481   2.275  52.274  1.00  0.00    -0.299 N 
HETATM    2  H1  UNL     1      26.824   1.926  51.376  1.00  0.00     0.174 HD
ENDROOT
BRANCH   1   3
HETATM    3  S1  UNL     1      27.339   1.790  53.664  1.00  0.00     0.260 S 
HETATM    4  O1  UNL     1      26.394   1.755  54.825  1.00  0.00    -0.200 OA
HETATM    5  O2  UNL     1      28.483   2.694  53.997  1.00  0.00    -0.200 OA
BRANCH   3   6
HETATM    6  C7  UNL     1      27.918   0.149  53.402  1.00  0.00     0.079 A 
HETATM    7  C8  UNL     1      29.225  -0.186  53.691  1.00  0.00     0.025 A 
HETATM    8  C9  UNL     1      29.770  -1.455  53.516  1.00  0.00     0.002 A 
HETATM    9  C10 UNL     1      28.923  -2.419  53.022  1.00  0.00     0.000 A 
HETATM   10  C11 UNL     1      27.609  -2.125  52.720  1.00  0.00     0.002 A 
HETATM   11  C12 UNL     1      27.096  -0.858  52.903  1.00  0.00     0.025 A 
ENDBRANCH   3   6
ENDBRANCH   1   3
BRANCH   1  12
HETATM   12  C1  UNL     1      25.067   2.368  52.441  1.00  0.00     0.255 C 
BRANCH  12  13
HETATM   13  N2  UNL     1      24.366   1.229  51.834  1.00  0.00    -0.370 N 
HETATM   14  H4  UNL     1      24.643   0.954  50.868  1.00  0.00     0.161 HD
BRANCH  13  15
HETATM   15  C2  UNL     1      23.353   0.531  52.540  1.00  0.00     0.086 A 
HETATM   16  C3  UNL     1      23.681  -0.176  53.664  1.00  0.00     0.035 A 
HETATM   17  C4  UNL     1      22.665  -0.836  54.315  1.00  0.00     0.022 A 
HETATM   18  C5  UNL     1      21.361  -0.798  53.867  1.00  0.00     0.119 A 
HETATM   19  N3  UNL     1      21.089  -0.090  52.756  1.00  0.00    -0.233 NA
HETATM   20  C6  UNL     1      22.047   0.575  52.080  1.00  0.00     0.231 A 
BRANCH  20  21
HETATM   21  O3  UNL     1      21.795   1.317  50.930  1.00  0.00    -0.133 OA
HETATM   22  F1  UNL     1      22.003   0.819  49.688  1.00  0.00    -0.040 F 
ENDBRANCH  20  21
ENDBRANCH  13  15
ENDBRANCH  12  13
ENDBRANCH   1  12
TORSDOF 6
ENDMDL
MODEL 5
REMARK VINA RESULT:      -7.2      2.620      5.908
REMARK  6 active torsions:
REMARK  status: ('A' for Active; 'I' for Inactive)
REMARK    1  A    between atoms: S1_2  and  N1_4 
REMARK    2  A    between atoms: S1_2  and  C7_15 
REMARK    3  A    between atoms: N1_4  and  C1_5 
REMARK    4  A    between atoms: C1_5  and  N2_6 
REMARK    5  A    between atoms: N2_6  and  C2_7 
REMARK    6  A    between atoms: C6_12  and  O3_13 
ROOT
HETATM    1  N1  UNL     1      24.562   2.771  53.448  1.00  0.00    -0.299 N 
HETATM    2  H1  UNL     1      24.332   2.809  54.444  1.00  0.00     0.174 HD
ENDROOT
BRANCH   1   3
HETATM    3  S1  UNL     1      23.347   2.193  52.403  1.00  0.00     0.260 S 
HETATM    4  O1  UNL     1      23.995   1.627  51.177  1.00  0.00    -0.200 OA
HETATM    5  O2  UNL     1      22.371   3.250  51.991  1.00  0.00    -0.200 OA
BRANCH   3   6
HETATM    6  C7  UNL     1      22.509   0.876  53.215  1.00  0.00     0.079 A 
HETATM    7  C8  UNL     1      23.221  -0.159  53.787  1.00  0.00     0.025 A 
HETATM    8  C9  UNL     1      22.645  -1.240  54.449  1.00  0.00     0.002 A 
HETATM    9  C10 UNL     1      21.271  -1.248  54.520  1.00  0.00     0.000 A 
HETATM   10  C11 UNL     1      20.522  -0.234  53.961  1.00  0.00     0.002 A 
HETATM   11  C12 UNL     1      21.121   0.826  53.311  1.00  0.00     0.025 A 
ENDBRANCH   3   6
ENDBRANCH   1   3
BRANCH   1  12
HETATM   12  C1  UNL     1      25.890   2.383  53.100  1.00  0.00     0.255 C 
BRANCH  12  13
HETATM   13  N2  UNL     1      26.538   1.618  54.172  1.00  0.00    -0.370 N 
HETATM   14  H4  UNL     1      26.369   1.927  55.153  1.00  0.00     0.161 HD
BRANCH  13  15
HETATM   15  C2  UNL     1      27.362   0.500  53.880  1.00  0.00     0.086 A 
HETATM   16  C3  UNL     1      26.872  -0.513  53.103  1.00  0.00     0.035 A 
HETATM   17  C4  UNL     1      27.706  -1.574  52.847  1.00  0.00     0.022 A 
HETATM   18  C5  UNL     1      28.991  -1.634  53.345  1.00  0.00     0.119 A 
HETATM   19  N3  UNL     1      29.428  -0.614  54.106  1.00  0.00    -0.233 NA
HETATM   20  C6  UNL     1      28.650   0.451  54.387  1.00  0.00     0.231 A 
BRANCH  20  21
HETATM   21  O3  UNL     1      29.074   1.521  55.169  1.00  0.00    -0.133 OA
HETATM   22  F1  UNL     1      29.771   2.562  54.656  1.00  0.00    -0.040 F 
ENDBRANCH  20  21
ENDBRANCH  13  15
ENDBRANCH  12  13
ENDBRANCH   1  12
TORSDOF 6
ENDMDL
MODEL 6
REMARK VINA RESULT:      -7.1      3.621      6.054
REMARK  6 active torsions:
REMARK  status: ('A' for Active; 'I' for Inactive)
REMARK    1  A    between atoms: S1_2  and  N1_4 
REMARK    2  A    between atoms: S1_2  and  C7_15 
REMARK    3  A    between atoms: N1_4  and  C1_5 
REMARK    4  A    between atoms: C1_5  and  N2_6 
REMARK    5  A    between atoms: N2_6  and  C2_7 
REMARK    6  A    between atoms: C6_12  and  O3_13 
ROOT
HETATM    1  N1  UNL     1      25.068   3.169  52.920  1.00  0.00    -0.299 N 
HETATM    2  H1  UNL     1      24.812   3.840  53.648  1.00  0.00     0.174 HD
ENDROOT
BRANCH   1   3
HETATM    3  S1  UNL     1      24.298   3.345  51.411  1.00  0.00     0.260 S 
HETATM    4  O1  UNL     1      23.068   4.180  51.592  1.00  0.00    -0.200 OA
HETATM    5  O2  UNL     1      23.910   2.040  50.790  1.00  0.00    -0.200 OA
BRANCH   3   6
HETATM    6  C7  UNL     1      25.384   4.226  50.343  1.00  0.00     0.079 A 
HETATM    7  C8  UNL     1      25.184   5.569  50.096  1.00  0.00     0.025 A 
HETATM    8  C9  UNL     1      25.990   6.346  49.268  1.00  0.00     0.002 A 
HETATM    9  C10 UNL     1      27.049   5.702  48.671  1.00  0.00     0.000 A 
HETATM   10  C11 UNL     1      27.283   4.361  48.892  1.00  0.00     0.002 A 
HETATM   11  C12 UNL     1      26.468   3.616  49.718  1.00  0.00     0.025 A 
ENDBRANCH   3   6
ENDBRANCH   1   3
BRANCH   1  12
HETATM   12  C1  UNL     1      25.295   1.820  53.327  1.00  0.00     0.255 C 
BRANCH  12  13
HETATM   13  N2  UNL     1      26.225   1.124  52.429  1.00  0.00    -0.370 N 
HETATM   14  H4  UNL     1      25.984   1.097  51.416  1.00  0.00     0.161 HD
BRANCH  13  15
HETATM   15  C2  UNL     1      27.407   0.515  52.926  1.00  0.00     0.086 A 
HETATM   16  C3  UNL     1      28.428   1.301  53.382  1.00  0.00     0.035 A 
HETATM   17  C4  UNL     1      29.552   0.666  53.855  1.00  0.00     0.022 A 
HETATM   18  C5  UNL     1      29.664  -0.709  53.875  1.00  0.00     0.119 A 
HETATM   19  N3  UNL     1      28.632  -1.439  53.414  1.00  0.00    -0.233 NA
HETATM   20  C6  UNL     1      27.507  -0.866  52.940  1.00  0.00     0.231 A 
BRANCH  20  21
HETATM   21  O3  UNL     1      26.423  -1.595  52.459  1.00  0.00    -0.133 OA
HETATM   22  F1  UNL     1      26.575  -2.758  51.783  1.00  0.00    -0.040 F 
ENDBRANCH  20  21
ENDBRANCH  13  15
ENDBRANCH  12  13
ENDBRANCH   1  12
TORSDOF 6
ENDMDL
MODEL 7
REMARK VINA RESULT:      -7.1      2.687      5.605
REMARK  6 active torsions:
REMARK  status: ('A' for Active; 'I' for Inactive)
REMARK    1  A    between atoms: S1_2  and  N1_4 
REMARK    2  A    between atoms: S1_2  and  C7_15 
REMARK    3  A    between atoms: N1_4  and  C1_5 
REMARK    4  A    between atoms: C1_5  and  N2_6 
REMARK    5  A    between atoms: N2_6  and  C2_7 
REMARK    6  A    between atoms: C6_12  and  O3_13 
ROOT
HETATM    1  N1  UNL     1      24.888   2.822  52.546  1.00  0.00    -0.299 N 
HETATM    2  H1  UNL     1      25.115   2.629  53.524  1.00  0.00     0.174 HD
ENDROOT
BRANCH   1   3
HETATM    3  S1  UNL     1      23.333   2.370  52.017  1.00  0.00     0.260 S 
HETATM    4  O1  UNL     1      23.436   1.827  50.625  1.00  0.00    -0.200 OA
HETATM    5  O2  UNL     1      22.356   3.503  52.023  1.00  0.00    -0.200 OA
BRANCH   3   6
HETATM    6  C7  UNL     1      22.760   1.068  53.053  1.00  0.00     0.079 A 
HETATM    7  C8  UNL     1      21.421   0.964  53.369  1.00  0.00     0.025 A 
HETATM    8  C9  UNL     1      20.879  -0.030  54.180  1.00  0.00     0.002 A 
HETATM    9  C10 UNL     1      21.763  -0.955  54.683  1.00  0.00     0.000 A 
HETATM   10  C11 UNL     1      23.109  -0.886  54.391  1.00  0.00     0.002 A 
HETATM   11  C12 UNL     1      23.619   0.110  53.585  1.00  0.00     0.025 A 
ENDBRANCH   3   6
ENDBRANCH   1   3
BRANCH   1  12
HETATM   12  C1  UNL     1      25.928   2.637  51.586  1.00  0.00     0.255 C 
BRANCH  12  13
HETATM   13  N2  UNL     1      26.450   1.265  51.599  1.00  0.00    -0.370 N 
HETATM   14  H4  UNL     1      26.145   0.628  50.832  1.00  0.00     0.161 HD
BRANCH  13  15
HETATM   15  C2  UNL     1      27.336   0.826  52.617  1.00  0.00     0.086 A 
HETATM   16  C3  UNL     1      28.187   1.723  53.200  1.00  0.00     0.035 A 
HETATM   17  C4  UNL     1      29.026   1.252  54.182  1.00  0.00     0.022 A 
HETATM   18  C5  UNL     1      29.025  -0.070  54.576  1.00  0.00     0.119 A 
HETATM   19  N3  UNL     1      28.170  -0.914  53.971  1.00  0.00    -0.233 NA
HETATM   20  C6  UNL     1      27.326  -0.504  53.003  1.00  0.00     0.231 A 
BRANCH  20  21
HETATM   21  O3  UNL     1      26.430  -1.354  52.361  1.00  0.00    -0.133 OA
HETATM   22  F1  UNL     1      26.767  -2.608  51.979  1.00  0.00    -0.040 F 
ENDBRANCH  20  21
ENDBRANCH  13  15
ENDBRANCH  12  13
ENDBRANCH   1  12
TORSDOF 6
ENDMDL
MODEL 8
REMARK VINA RESULT:      -6.9      3.167      5.214
REMARK  6 active torsions:
REMARK  status: ('A' for Active; 'I' for Inactive)
REMARK    1  A    between atoms: S1_2  and  N1_4 
REMARK    2  A    between atoms: S1_2  and  C7_15 
REMARK    3  A    between atoms: N1_4  and  C1_5 
REMARK    4  A    between atoms: C1_5  and  N2_6 
REMARK    5  A    between atoms: N2_6  and  C2_7 
REMARK    6  A    between atoms: C6_12  and  O3_13 
ROOT
HETATM    1  N1  UNL     1      26.766   1.626  53.645  1.00  0.00    -0.299 N 
HETATM    2  H1  UNL     1      27.042   2.120  54.497  1.00  0.00     0.174 HD
ENDROOT
BRANCH   1   3
HETATM    3  S1  UNL     1      26.602  -0.066  53.759  1.00  0.00     0.260 S 
HETATM    4  O1  UNL     1      27.442  -0.556  54.898  1.00  0.00    -0.200 OA
HETATM    5  O2  UNL     1      27.011  -0.784  52.512  1.00  0.00    -0.200 OA
BRANCH   3   6
HETATM    6  C7  UNL     1      24.923  -0.426  54.144  1.00  0.00     0.079 A 
HETATM    7  C8  UNL     1      23.908  -0.005  53.310  1.00  0.00     0.025 A 
HETATM    8  C9  UNL     1      22.555  -0.243  53.534  1.00  0.00     0.002 A 
HETATM    9  C10 UNL     1      22.241  -0.949  54.672  1.00  0.00     0.000 A 
HETATM   10  C11 UNL     1      23.226  -1.388  55.533  1.00  0.00     0.002 A 
HETATM   11  C12 UNL     1      24.560  -1.137  55.285  1.00  0.00     0.025 A 
ENDBRANCH   3   6
ENDBRANCH   1   3
BRANCH   1  12
HETATM   12  C1  UNL     1      27.311   2.097  52.413  1.00  0.00     0.255 C 
BRANCH  12  13
HETATM   13  N2  UNL     1      26.324   2.059  51.326  1.00  0.00    -0.370 N 
HETATM   14  H4  UNL     1      25.922   1.131  51.076  1.00  0.00     0.161 HD
BRANCH  13  15
HETATM   15  C2  UNL     1      25.936   3.242  50.646  1.00  0.00     0.086 A 
HETATM   16  C3  UNL     1      26.745   3.751  49.667  1.00  0.00     0.035 A 
HETATM   17  C4  UNL     1      26.327   4.899  49.036  1.00  0.00     0.022 A 
HETATM   18  C5  UNL     1      25.143   5.526  49.363  1.00  0.00     0.119 A 
HETATM   19  N3  UNL     1      24.383   4.987  50.333  1.00  0.00    -0.233 NA
HETATM   20  C6  UNL     1      24.746   3.864  50.984  1.00  0.00     0.231 A 
BRANCH  20  21
HETATM   21  O3  UNL     1      23.980   3.282  51.990  1.00  0.00    -0.133 OA
HETATM   22  F1  UNL     1      24.208   3.521  53.303  1.00  0.00    -0.040 F 
ENDBRANCH  20  21
ENDBRANCH  13  15
ENDBRANCH  12  13
ENDBRANCH   1  12
TORSDOF 6
ENDMDL
MODEL 9
REMARK VINA RESULT:      -6.8      2.243      5.852
REMARK  6 active torsions:
REMARK  status: ('A' for Active; 'I' for Inactive)
REMARK    1  A    between atoms: S1_2  and  N1_4 
REMARK    2  A    between atoms: S1_2  and  C7_15 
REMARK    3  A    between atoms: N1_4  and  C1_5 
REMARK    4  A    between atoms: C1_5  and  N2_6 
REMARK    5  A    between atoms: N2_6  and  C2_7 
REMARK    6  A    between atoms: C6_12  and  O3_13 
ROOT
HETATM    1  N1  UNL     1      25.965   1.992  51.370  1.00  0.00    -0.299 N 
HETATM    2  H1  UNL     1      25.956   1.889  50.352  1.00  0.00     0.174 HD
ENDROOT
BRANCH   1   3
HETATM    3  S1  UNL     1      24.597   2.720  52.079  1.00  0.00     0.260 S 
HETATM    4  O1  UNL     1      24.416   4.084  51.487  1.00  0.00    -0.200 OA
HETATM    5  O2  UNL     1      24.701   2.848  53.566  1.00  0.00    -0.200 OA
BRANCH   3   6
HETATM    6  C7  UNL     1      23.184   1.763  51.648  1.00  0.00     0.079 A 
HETATM    7  C8  UNL     1      22.585   0.941  52.580  1.00  0.00     0.025 A 
HETATM    8  C9  UNL     1      21.468   0.150  52.331  1.00  0.00     0.002 A 
HETATM    9  C10 UNL     1      20.948   0.214  51.059  1.00  0.00     0.000 A 
HETATM   10  C11 UNL     1      21.517   1.023  50.097  1.00  0.00     0.002 A 
HETATM   11  C12 UNL     1      22.626   1.797  50.373  1.00  0.00     0.025 A 
ENDBRANCH   3   6
ENDBRANCH   1   3
BRANCH   1  12
HETATM   12  C1  UNL     1      27.210   2.326  51.981  1.00  0.00     0.255 C 
BRANCH  12  13
HETATM   13  N2  UNL     1      27.408   1.612  53.249  1.00  0.00    -0.370 N 
HETATM   14  H4  UNL     1      27.069   2.075  54.118  1.00  0.00     0.161 HD
BRANCH  13  15
HETATM   15  C2  UNL     1      28.037   0.340  53.283  1.00  0.00     0.086 A 
HETATM   16  C3  UNL     1      29.374   0.258  53.559  1.00  0.00     0.035 A 
HETATM   17  C4  UNL     1      29.939  -0.995  53.582  1.00  0.00     0.022 A 
HETATM   18  C5  UNL     1      29.203  -2.136  53.339  1.00  0.00     0.119 A 
HETATM   19  N3  UNL     1      27.891  -2.004  53.072  1.00  0.00    -0.233 NA
HETATM   20  C6  UNL     1      27.288  -0.799  53.037  1.00  0.00     0.231 A 
BRANCH  20  21
HETATM   21  O3  UNL     1      25.933  -0.630  52.764  1.00  0.00    -0.133 OA
HETATM   22  F1  UNL     1      24.967  -1.011  53.632  1.00  0.00    -0.040 F 
ENDBRANCH  20  21
ENDBRANCH  13  15
ENDBRANCH  12  13
ENDBRANCH   1  12
TORSDOF 6
ENDMDL
