MODEL 1
REMARK VINA RESULT:      -9.8      0.000      0.000
REMARK  5 active torsions:
REMARK  status: ('A' for Active; 'I' for Inactive)
REMARK    1  A    between atoms: C2_3  and  C22_24 
REMARK    2  A    between atoms: C3_4  and  C4_5 
REMARK    3  A    between atoms: C6_7  and  C7_8 
REMARK    4  A    between atoms: C7_8  and  C8_9 
REMARK    5  A    between atoms: C14_15  and  O1_16 
REMARK       I    between atoms: C22_24  and  N2_25 
ROOT
HETATM    1  N1  UNL     1      20.187   3.267  52.702  1.00  0.00    -0.191 NA
HETATM    2  C1  UNL     1      20.418   2.139  52.565  1.00  0.00     0.105 C 
HETATM    3  C2  UNL     1      20.703   0.728  52.420  1.00  0.00     0.112 C 
HETATM    4  C3  UNL     1      21.895   0.230  52.152  1.00  0.00     0.040 C 
ENDROOT
BRANCH   3   5
HETATM    5  C22 UNL     1      19.536  -0.159  52.585  1.00  0.00     0.260 C 
HETATM    6  N2  UNL     1      19.311  -0.933  53.779  1.00  0.00    -0.365 N 
HETATM    7  H15 UNL     1      19.671  -1.896  53.504  1.00  0.00     0.159 HD
HETATM    8  H16 UNL     1      18.949  -0.915  54.765  1.00  0.00     0.159 HD
HETATM    9  O2  UNL     1      18.629  -0.338  51.737  1.00  0.00    -0.267 OA
ENDBRANCH   3   5
BRANCH   4  10
HETATM   10  C4  UNL     1      23.084   1.043  51.961  1.00  0.00    -0.022 A 
HETATM   11  C5  UNL     1      24.112   1.118  52.897  1.00  0.00     0.022 A 
HETATM   12  C6  UNL     1      25.268   1.878  52.716  1.00  0.00    -0.019 A 
HETATM   13  C14 UNL     1      25.389   2.596  51.531  1.00  0.00     0.079 A 
HETATM   14  C15 UNL     1      24.380   2.538  50.577  1.00  0.00    -0.008 A 
HETATM   15  C16 UNL     1      23.233   1.768  50.788  1.00  0.00    -0.006 A 
HETATM   16  C21 UNL     1      24.335   3.219  49.252  1.00  0.00     0.082 A 
HETATM   17  C17 UNL     1      22.423   1.932  49.566  1.00  0.00    -0.018 A 
HETATM   18  C18 UNL     1      23.040   2.734  48.715  1.00  0.00    -0.043 A 
HETATM   19  C20 UNL     1      21.342   1.821  48.567  1.00  0.00     0.013 A 
HETATM   20  C19 UNL     1      21.964   2.622  47.724  1.00  0.00     0.009 A 
BRANCH  12  21
HETATM   21  C7  UNL     1      26.329   1.938  53.741  1.00  0.00     0.080 C 
BRANCH  21  22
HETATM   22  C8  UNL     1      27.374   0.921  53.619  1.00  0.00    -0.054 A 
HETATM   23  C9  UNL     1      27.208  -0.393  53.242  1.00  0.00     0.007 A 
HETATM   24  C10 UNL     1      28.229  -1.314  53.149  1.00  0.00     0.001 A 
HETATM   25  C11 UNL     1      29.529  -0.898  53.456  1.00  0.00     0.000 A 
HETATM   26  C12 UNL     1      29.758   0.430  53.847  1.00  0.00     0.001 A 
HETATM   27  C13 UNL     1      28.684   1.312  53.923  1.00  0.00     0.007 A 
ENDBRANCH  21  22
ENDBRANCH  12  21
BRANCH  13  28
HETATM   28  O1  UNL     1      26.549   3.346  51.373  1.00  0.00    -0.360 OA
HETATM   29  H10 UNL     1      26.526   4.292  51.736  1.00  0.00     0.217 HD
ENDBRANCH  13  28
ENDBRANCH   4  10
TORSDOF 5
ENDMDL
MODEL 2
REMARK VINA RESULT:      -9.4      3.189      6.545
REMARK  5 active torsions:
REMARK  status: ('A' for Active; 'I' for Inactive)
REMARK    1  A    between atoms: C2_3  and  C22_24 
REMARK    2  A    between atoms: C3_4  and  C4_5 
REMARK    3  A    between atoms: C6_7  and  C7_8 
REMARK    4  A    between atoms: C7_8  and  C8_9 
REMARK    5  A    between atoms: C14_15  and  O1_16 
REMARK       I    between atoms: C22_24  and  N2_25 
ROOT
HETATM    1  N1  UNL     1      26.607  -1.985  51.992  1.00  0.00    -0.191 NA
HETATM    2  C1  UNL     1      26.744  -1.030  52.634  1.00  0.00     0.105 C 
HETATM    3  C2  UNL     1      26.907   0.149  53.457  1.00  0.00     0.112 C 
HETATM    4  C3  UNL     1      26.073   1.171  53.476  1.00  0.00     0.040 C 
ENDROOT
BRANCH   3   5
HETATM    5  C22 UNL     1      28.117   0.150  54.303  1.00  0.00     0.260 C 
HETATM    6  N2  UNL     1      28.603   1.333  54.963  1.00  0.00    -0.365 N 
HETATM    7  H15 UNL     1      29.379   1.661  54.312  1.00  0.00     0.159 HD
HETATM    8  H16 UNL     1      28.493   1.966  55.795  1.00  0.00     0.159 HD
HETATM    9  O2  UNL     1      28.840  -0.847  54.542  1.00  0.00    -0.267 OA
ENDBRANCH   3   5
BRANCH   4  10
HETATM   10  C4  UNL     1      24.872   1.246  52.661  1.00  0.00    -0.022 A 
HETATM   11  C5  UNL     1      24.786   2.012  51.503  1.00  0.00     0.022 A 
HETATM   12  C6  UNL     1      23.646   2.076  50.700  1.00  0.00    -0.019 A 
HETATM   13  C14 UNL     1      22.540   1.327  51.090  1.00  0.00     0.079 A 
HETATM   14  C15 UNL     1      22.598   0.551  52.242  1.00  0.00    -0.008 A 
HETATM   15  C16 UNL     1      23.755   0.509  53.024  1.00  0.00    -0.006 A 
HETATM   16  C21 UNL     1      21.532  -0.323  52.809  1.00  0.00     0.082 A 
HETATM   17  C17 UNL     1      23.448  -0.428  54.123  1.00  0.00    -0.018 A 
HETATM   18  C18 UNL     1      22.216  -0.890  53.997  1.00  0.00    -0.043 A 
HETATM   19  C20 UNL     1      23.560  -1.261  55.336  1.00  0.00     0.013 A 
HETATM   20  C19 UNL     1      22.330  -1.718  55.203  1.00  0.00     0.009 A 
BRANCH  12  21
HETATM   21  C7  UNL     1      23.595   2.912  49.485  1.00  0.00     0.080 C 
BRANCH  21  22
HETATM   22  C8  UNL     1      24.744   3.796  49.285  1.00  0.00    -0.054 A 
HETATM   23  C9  UNL     1      26.074   3.437  49.296  1.00  0.00     0.007 A 
HETATM   24  C10 UNL     1      27.121   4.313  49.108  1.00  0.00     0.001 A 
HETATM   25  C11 UNL     1      26.827   5.664  48.890  1.00  0.00     0.000 A 
HETATM   26  C12 UNL     1      25.489   6.086  48.869  1.00  0.00     0.001 A 
HETATM   27  C13 UNL     1      24.476   5.152  49.066  1.00  0.00     0.007 A 
ENDBRANCH  21  22
ENDBRANCH  12  21
BRANCH  13  28
HETATM   28  O1  UNL     1      21.416   1.407  50.276  1.00  0.00    -0.360 OA
HETATM   29  H10 UNL     1      21.585   1.423  49.277  1.00  0.00     0.217 HD
ENDBRANCH  13  28
ENDBRANCH   4  10
TORSDOF 5
ENDMDL
MODEL 3
REMARK VINA RESULT:      -9.3      2.822      4.961
REMARK  5 active torsions:
REMARK  status: ('A' for Active; 'I' for Inactive)
REMARK    1  A    between atoms: C2_3  and  C22_24 
REMARK    2  A    between atoms: C3_4  and  C4_5 
REMARK    3  A    between atoms: C6_7  and  C7_8 
REMARK    4  A    between atoms: C7_8  and  C8_9 
REMARK    5  A    between atoms: C14_15  and  O1_16 
REMARK       I    between atoms: C22_24  and  N2_25 
ROOT
HETATM    1  N1  UNL     1      24.213   6.372  51.141  1.00  0.00    -0.191 NA
HETATM    2  C1  UNL     1      25.011   5.833  50.496  1.00  0.00     0.105 C 
HETATM    3  C2  UNL     1      25.992   5.163  49.670  1.00  0.00     0.112 C 
HETATM    4  C3  UNL     1      26.250   3.870  49.715  1.00  0.00     0.040 C 
ENDROOT
BRANCH   3   5
HETATM    5  C22 UNL     1      26.726   6.045  48.743  1.00  0.00     0.260 C 
HETATM    6  N2  UNL     1      28.164   6.075  48.672  1.00  0.00    -0.365 N 
HETATM    7  H15 UNL     1      28.409   6.928  49.260  1.00  0.00     0.159 HD
HETATM    8  H16 UNL     1      29.020   5.603  48.286  1.00  0.00     0.159 HD
HETATM    9  O2  UNL     1      26.204   6.847  47.931  1.00  0.00    -0.267 OA
ENDBRANCH   3   5
BRANCH   4  10
HETATM   10  C4  UNL     1      25.578   2.944  50.611  1.00  0.00    -0.022 A 
HETATM   11  C5  UNL     1      26.165   2.447  51.770  1.00  0.00     0.022 A 
HETATM   12  C6  UNL     1      25.523   1.574  52.650  1.00  0.00    -0.019 A 
HETATM   13  C14 UNL     1      24.223   1.187  52.340  1.00  0.00     0.079 A 
HETATM   14  C15 UNL     1      23.610   1.669  51.189  1.00  0.00    -0.008 A 
HETATM   15  C16 UNL     1      24.281   2.542  50.328  1.00  0.00    -0.006 A 
HETATM   16  C21 UNL     1      22.232   1.384  50.700  1.00  0.00     0.082 A 
HETATM   17  C17 UNL     1      23.315   2.851  49.256  1.00  0.00    -0.018 A 
HETATM   18  C18 UNL     1      22.178   2.210  49.469  1.00  0.00    -0.043 A 
HETATM   19  C20 UNL     1      22.690   3.408  48.041  1.00  0.00     0.013 A 
HETATM   20  C19 UNL     1      21.559   2.765  48.260  1.00  0.00     0.009 A 
BRANCH  12  21
HETATM   21  C7  UNL     1      26.189   1.062  53.863  1.00  0.00     0.080 C 
BRANCH  21  22
HETATM   22  C8  UNL     1      27.206   0.035  53.632  1.00  0.00    -0.054 A 
HETATM   23  C9  UNL     1      28.540   0.102  53.971  1.00  0.00     0.007 A 
HETATM   24  C10 UNL     1      29.460  -0.894  53.724  1.00  0.00     0.001 A 
HETATM   25  C11 UNL     1      29.021  -2.060  53.085  1.00  0.00     0.000 A 
HETATM   26  C12 UNL     1      27.673  -2.183  52.716  1.00  0.00     0.001 A 
HETATM   27  C13 UNL     1      26.793  -1.140  52.993  1.00  0.00     0.007 A 
ENDBRANCH  21  22
ENDBRANCH  12  21
BRANCH  13  28
HETATM   28  O1  UNL     1      23.604   0.318  53.230  1.00  0.00    -0.360 OA
HETATM   29  H10 UNL     1      22.821  -0.214  52.868  1.00  0.00     0.217 HD
ENDBRANCH  13  28
ENDBRANCH   4  10
TORSDOF 5
ENDMDL
MODEL 4
REMARK VINA RESULT:      -9.1      2.399      4.234
REMARK  5 active torsions:
REMARK  status: ('A' for Active; 'I' for Inactive)
REMARK    1  A    between atoms: C2_3  and  C22_24 
REMARK    2  A    between atoms: C3_4  and  C4_5 
REMARK    3  A    between atoms: C6_7  and  C7_8 
REMARK    4  A    between atoms: C7_8  and  C8_9 
REMARK    5  A    between atoms: C14_15  and  O1_16 
REMARK       I    between atoms: C22_24  and  N2_25 
ROOT
HETATM    1  N1  UNL     1      23.103   5.195  52.386  1.00  0.00    -0.191 NA
HETATM    2  C1  UNL     1      23.794   4.748  51.570  1.00  0.00     0.105 C 
HETATM    3  C2  UNL     1      24.636   4.191  50.533  1.00  0.00     0.112 C 
HETATM    4  C3  UNL     1      25.017   2.930  50.477  1.00  0.00     0.040 C 
ENDROOT
BRANCH   3   5
HETATM    5  C22 UNL     1      25.070   5.156  49.505  1.00  0.00     0.260 C 
HETATM    6  N2  UNL     1      26.445   5.557  49.347  1.00  0.00    -0.365 N 
HETATM    7  H15 UNL     1      26.475   6.490  49.858  1.00  0.00     0.159 HD
HETATM    8  H16 UNL     1      27.380   5.297  48.944  1.00  0.00     0.159 HD
HETATM    9  O2  UNL     1      24.322   5.722  48.672  1.00  0.00    -0.267 OA
ENDBRANCH   3   5
BRANCH   4  10
HETATM   10  C4  UNL     1      24.641   1.929  51.460  1.00  0.00    -0.022 A 
HETATM   11  C5  UNL     1      25.472   1.539  52.506  1.00  0.00     0.022 A 
HETATM   12  C6  UNL     1      25.114   0.595  53.469  1.00  0.00    -0.019 A 
HETATM   13  C14 UNL     1      23.852   0.017  53.366  1.00  0.00     0.079 A 
HETATM   14  C15 UNL     1      22.999   0.387  52.333  1.00  0.00    -0.008 A 
HETATM   15  C16 UNL     1      23.389   1.336  51.384  1.00  0.00    -0.006 A 
HETATM   16  C21 UNL     1      21.618  -0.105  52.068  1.00  0.00     0.082 A 
HETATM   17  C17 UNL     1      22.229   1.485  50.483  1.00  0.00    -0.018 A 
HETATM   18  C18 UNL     1      21.248   0.687  50.869  1.00  0.00    -0.043 A 
HETATM   19  C20 UNL     1      21.343   1.926  49.388  1.00  0.00     0.013 A 
HETATM   20  C19 UNL     1      20.369   1.128  49.780  1.00  0.00     0.009 A 
BRANCH  12  21
HETATM   21  C7  UNL     1      26.032   0.203  54.555  1.00  0.00     0.080 C 
BRANCH  21  22
HETATM   22  C8  UNL     1      27.362  -0.229  54.124  1.00  0.00    -0.054 A 
HETATM   23  C9  UNL     1      27.668  -1.348  53.382  1.00  0.00     0.007 A 
HETATM   24  C10 UNL     1      28.942  -1.713  53.006  1.00  0.00     0.001 A 
HETATM   25  C11 UNL     1      30.010  -0.899  53.400  1.00  0.00     0.000 A 
HETATM   26  C12 UNL     1      29.758   0.254  54.158  1.00  0.00     0.001 A 
HETATM   27  C13 UNL     1      28.448   0.568  54.506  1.00  0.00     0.007 A 
ENDBRANCH  21  22
ENDBRANCH  12  21
BRANCH  13  28
HETATM   28  O1  UNL     1      23.518  -0.921  54.336  1.00  0.00    -0.360 OA
HETATM   29  H10 UNL     1      24.072  -1.770  54.351  1.00  0.00     0.217 HD
ENDBRANCH  13  28
ENDBRANCH   4  10
TORSDOF 5
ENDMDL
MODEL 5
REMARK VINA RESULT:      -9.1      2.345      4.431
REMARK  5 active torsions:
REMARK  status: ('A' for Active; 'I' for Inactive)
REMARK    1  A    between atoms: C2_3  and  C22_24 
REMARK    2  A    between atoms: C3_4  and  C4_5 
REMARK    3  A    between atoms: C6_7  and  C7_8 
REMARK    4  A    between atoms: C7_8  and  C8_9 
REMARK    5  A    between atoms: C14_15  and  O1_16 
REMARK       I    between atoms: C22_24  and  N2_25 
ROOT
HETATM    1  N1  UNL     1      22.101   4.289  52.644  1.00  0.00    -0.191 NA
HETATM    2  C1  UNL     1      22.328   3.630  51.718  1.00  0.00     0.105 C 
HETATM    3  C2  UNL     1      22.589   2.813  50.552  1.00  0.00     0.112 C 
HETATM    4  C3  UNL     1      22.593   1.494  50.548  1.00  0.00     0.040 C 
ENDROOT
BRANCH   3   5
HETATM    5  C22 UNL     1      22.871   3.570  49.317  1.00  0.00     0.260 C 
HETATM    6  N2  UNL     1      23.245   4.961  49.327  1.00  0.00    -0.365 N 
HETATM    7  H15 UNL     1      22.327   5.451  49.103  1.00  0.00     0.159 HD
HETATM    8  H16 UNL     1      24.033   5.643  49.463  1.00  0.00     0.159 HD
HETATM    9  O2  UNL     1      22.822   3.109  48.151  1.00  0.00    -0.267 OA
ENDBRANCH   3   5
BRANCH   4  10
HETATM   10  C4  UNL     1      22.340   0.684  51.728  1.00  0.00    -0.022 A 
HETATM   11  C5  UNL     1      23.334   0.325  52.632  1.00  0.00     0.022 A 
HETATM   12  C6  UNL     1      23.099  -0.435  53.779  1.00  0.00    -0.019 A 
HETATM   13  C14 UNL     1      21.794  -0.851  54.020  1.00  0.00     0.079 A 
HETATM   14  C15 UNL     1      20.779  -0.507  53.134  1.00  0.00    -0.008 A 
HETATM   15  C16 UNL     1      21.048   0.255  51.994  1.00  0.00    -0.006 A 
HETATM   16  C21 UNL     1      19.331  -0.843  53.229  1.00  0.00     0.082 A 
HETATM   17  C17 UNL     1      19.741   0.438  51.332  1.00  0.00    -0.018 A 
HETATM   18  C18 UNL     1      18.792  -0.169  52.022  1.00  0.00    -0.043 A 
HETATM   19  C20 UNL     1      18.689   0.850  50.382  1.00  0.00     0.013 A 
HETATM   20  C19 UNL     1      17.747   0.241  51.077  1.00  0.00     0.009 A 
BRANCH  12  21
HETATM   21  C7  UNL     1      24.187  -0.802  54.707  1.00  0.00     0.080 C 
BRANCH  21  22
HETATM   22  C8  UNL     1      25.542  -0.600  54.191  1.00  0.00    -0.054 A 
HETATM   23  C9  UNL     1      26.110  -1.214  53.097  1.00  0.00     0.007 A 
HETATM   24  C10 UNL     1      27.397  -0.991  52.657  1.00  0.00     0.001 A 
HETATM   25  C11 UNL     1      28.192  -0.081  53.362  1.00  0.00     0.000 A 
HETATM   26  C12 UNL     1      27.666   0.573  54.486  1.00  0.00     0.001 A 
HETATM   27  C13 UNL     1      26.359   0.305  54.880  1.00  0.00     0.007 A 
ENDBRANCH  21  22
ENDBRANCH  12  21
BRANCH  13  28
HETATM   28  O1  UNL     1      21.584  -1.607  55.168  1.00  0.00    -0.360 OA
HETATM   29  H10 UNL     1      20.732  -1.416  55.683  1.00  0.00     0.217 HD
ENDBRANCH  13  28
ENDBRANCH   4  10
TORSDOF 5
ENDMDL
MODEL 6
REMARK VINA RESULT:      -8.7      2.606      7.074
REMARK  5 active torsions:
REMARK  status: ('A' for Active; 'I' for Inactive)
REMARK    1  A    between atoms: C2_3  and  C22_24 
REMARK    2  A    between atoms: C3_4  and  C4_5 
REMARK    3  A    between atoms: C6_7  and  C7_8 
REMARK    4  A    between atoms: C7_8  and  C8_9 
REMARK    5  A    between atoms: C14_15  and  O1_16 
REMARK       I    between atoms: C22_24  and  N2_25 
ROOT
HETATM    1  N1  UNL     1      23.214   2.868  49.103  1.00  0.00    -0.191 NA
HETATM    2  C1  UNL     1      23.417   3.479  50.067  1.00  0.00     0.105 C 
HETATM    3  C2  UNL     1      23.696   4.242  51.265  1.00  0.00     0.112 C 
HETATM    4  C3  UNL     1      23.657   3.752  52.489  1.00  0.00     0.040 C 
ENDROOT
BRANCH   3   5
HETATM    5  C22 UNL     1      24.030   5.660  51.031  1.00  0.00     0.260 C 
HETATM    6  N2  UNL     1      24.321   6.577  52.103  1.00  0.00    -0.365 N 
HETATM    7  H15 UNL     1      23.396   7.089  52.228  1.00  0.00     0.159 HD
HETATM    8  H16 UNL     1      25.055   6.917  52.774  1.00  0.00     0.159 HD
HETATM    9  O2  UNL     1      24.101   6.217  49.909  1.00  0.00    -0.267 OA
ENDBRANCH   3   5
BRANCH   4  10
HETATM   10  C4  UNL     1      23.322   2.372  52.796  1.00  0.00    -0.022 A 
HETATM   11  C5  UNL     1      22.017   1.932  52.993  1.00  0.00     0.022 A 
HETATM   12  C6  UNL     1      21.680   0.606  53.267  1.00  0.00    -0.019 A 
HETATM   13  C14 UNL     1      22.717  -0.319  53.345  1.00  0.00     0.079 A 
HETATM   14  C15 UNL     1      24.031   0.091  53.151  1.00  0.00    -0.008 A 
HETATM   15  C16 UNL     1      24.335   1.427  52.878  1.00  0.00    -0.006 A 
HETATM   16  C21 UNL     1      25.263  -0.746  53.180  1.00  0.00     0.082 A 
HETATM   17  C17 UNL     1      25.800   1.467  52.707  1.00  0.00    -0.018 A 
HETATM   18  C18 UNL     1      26.310   0.258  52.871  1.00  0.00    -0.043 A 
HETATM   19  C20 UNL     1      27.178   1.937  52.466  1.00  0.00     0.013 A 
HETATM   20  C19 UNL     1      27.679   0.728  52.631  1.00  0.00     0.009 A 
BRANCH  12  21
HETATM   21  C7  UNL     1      20.282   0.185  53.481  1.00  0.00     0.080 C 
BRANCH  21  22
HETATM   22  C8  UNL     1      19.427   0.233  52.294  1.00  0.00    -0.054 A 
HETATM   23  C9  UNL     1      19.699   0.871  51.104  1.00  0.00     0.007 A 
HETATM   24  C10 UNL     1      18.853   0.890  50.016  1.00  0.00     0.001 A 
HETATM   25  C11 UNL     1      17.630   0.218  50.114  1.00  0.00     0.000 A 
HETATM   26  C12 UNL     1      17.300  -0.451  51.302  1.00  0.00     0.001 A 
HETATM   27  C13 UNL     1      18.197  -0.432  52.366  1.00  0.00     0.007 A 
ENDBRANCH  21  22
ENDBRANCH  12  21
BRANCH  13  28
HETATM   28  O1  UNL     1      22.358  -1.634  53.619  1.00  0.00    -0.360 OA
HETATM   29  H10 UNL     1      22.493  -2.303  52.870  1.00  0.00     0.217 HD
ENDBRANCH  13  28
ENDBRANCH   4  10
TORSDOF 5
ENDMDL
MODEL 7
REMARK VINA RESULT:      -8.6      3.304      6.620
REMARK  5 active torsions:
REMARK  status: ('A' for Active; 'I' for Inactive)
REMARK    1  A    between atoms: C2_3  and  C22_24 
REMARK    2  A    between atoms: C3_4  and  C4_5 
REMARK    3  A    between atoms: C6_7  and  C7_8 
REMARK    4  A    between atoms: C7_8  and  C8_9 
REMARK    5  A    between atoms: C14_15  and  O1_16 
REMARK       I    between atoms: C22_24  and  N2_25 
ROOT
HETATM    1  N1  UNL     1      26.770   2.716  50.363  1.00  0.00    -0.191 NA
HETATM    2  C1  UNL     1      26.655   2.453  51.486  1.00  0.00     0.105 C 
HETATM    3  C2  UNL     1      26.514   2.100  52.883  1.00  0.00     0.112 C 
HETATM    4  C3  UNL     1      25.383   2.160  53.559  1.00  0.00     0.040 C 
ENDROOT
BRANCH   3   5
HETATM    5  C22 UNL     1      27.760   1.659  53.538  1.00  0.00     0.260 C 
HETATM    6  N2  UNL     1      27.770   0.922  54.775  1.00  0.00    -0.365 N 
HETATM    7  H15 UNL     1      27.970   1.679  55.496  1.00  0.00     0.159 HD
HETATM    8  H16 UNL     1      27.659  -0.025  55.218  1.00  0.00     0.159 HD
HETATM    9  O2  UNL     1      28.922   1.864  53.109  1.00  0.00    -0.267 OA
ENDBRANCH   3   5
BRANCH   4  10
HETATM   10  C4  UNL     1      24.123   2.598  52.984  1.00  0.00    -0.022 A 
HETATM   11  C5  UNL     1      23.945   3.851  52.406  1.00  0.00     0.022 A 
HETATM   12  C6  UNL     1      22.746   4.276  51.832  1.00  0.00    -0.019 A 
HETATM   13  C14 UNL     1      21.675   3.388  51.845  1.00  0.00     0.079 A 
HETATM   14  C15 UNL     1      21.823   2.128  52.415  1.00  0.00    -0.008 A 
HETATM   15  C16 UNL     1      23.038   1.734  52.982  1.00  0.00    -0.006 A 
HETATM   16  C21 UNL     1      20.806   1.044  52.511  1.00  0.00     0.082 A 
HETATM   17  C17 UNL     1      22.820   0.350  53.447  1.00  0.00    -0.018 A 
HETATM   18  C18 UNL     1      21.582  -0.030  53.179  1.00  0.00    -0.043 A 
HETATM   19  C20 UNL     1      23.027  -0.987  54.036  1.00  0.00     0.013 A 
HETATM   20  C19 UNL     1      21.791  -1.359  53.765  1.00  0.00     0.009 A 
BRANCH  12  21
HETATM   21  C7  UNL     1      22.598   5.619  51.238  1.00  0.00     0.080 C 
BRANCH  21  22
HETATM   22  C8  UNL     1      23.789   6.138  50.564  1.00  0.00    -0.054 A 
HETATM   23  C9  UNL     1      24.537   7.234  50.932  1.00  0.00     0.007 A 
HETATM   24  C10 UNL     1      25.649   7.685  50.256  1.00  0.00     0.001 A 
HETATM   25  C11 UNL     1      26.059   6.990  49.113  1.00  0.00     0.000 A 
HETATM   26  C12 UNL     1      25.335   5.865  48.690  1.00  0.00     0.001 A 
HETATM   27  C13 UNL     1      24.219   5.460  49.416  1.00  0.00     0.007 A 
ENDBRANCH  21  22
ENDBRANCH  12  21
BRANCH  13  28
HETATM   28  O1  UNL     1      20.491   3.832  51.269  1.00  0.00    -0.360 OA
HETATM   29  H10 UNL     1      19.696   3.206  51.333  1.00  0.00     0.217 HD
ENDBRANCH  13  28
ENDBRANCH   4  10
TORSDOF 5
ENDMDL
MODEL 8
REMARK VINA RESULT:      -8.6      3.273      5.393
REMARK  5 active torsions:
REMARK  status: ('A' for Active; 'I' for Inactive)
REMARK    1  A    between atoms: C2_3  and  C22_24 
REMARK    2  A    between atoms: C3_4  and  C4_5 
REMARK    3  A    between atoms: C6_7  and  C7_8 
REMARK    4  A    between atoms: C7_8  and  C8_9 
REMARK    5  A    between atoms: C14_15  and  O1_16 
REMARK       I    between atoms: C22_24  and  N2_25 
ROOT
HETATM    1  N1  UNL     1      27.310   3.982  49.035  1.00  0.00    -0.191 NA
HETATM    2  C1  UNL     1      26.532   4.795  49.309  1.00  0.00     0.105 C 
HETATM    3  C2  UNL     1      25.573   5.816  49.674  1.00  0.00     0.112 C 
HETATM    4  C3  UNL     1      24.373   5.575  50.164  1.00  0.00     0.040 C 
ENDROOT
BRANCH   3   5
HETATM    5  C22 UNL     1      26.030   7.201  49.447  1.00  0.00     0.260 C 
HETATM    6  N2  UNL     1      26.590   8.016  50.494  1.00  0.00    -0.365 N 
HETATM    7  H15 UNL     1      25.763   8.617  50.790  1.00  0.00     0.159 HD
HETATM    8  H16 UNL     1      27.455   8.234  51.051  1.00  0.00     0.159 HD
HETATM    9  O2  UNL     1      25.988   7.813  48.353  1.00  0.00    -0.267 OA
ENDBRANCH   3   5
BRANCH   4  10
HETATM   10  C4  UNL     1      23.851   4.239  50.399  1.00  0.00    -0.022 A 
HETATM   11  C5  UNL     1      24.071   3.534  51.578  1.00  0.00     0.022 A 
HETATM   12  C6  UNL     1      23.558   2.259  51.824  1.00  0.00    -0.019 A 
HETATM   13  C14 UNL     1      22.786   1.672  50.827  1.00  0.00     0.079 A 
HETATM   14  C15 UNL     1      22.548   2.353  49.639  1.00  0.00    -0.008 A 
HETATM   15  C16 UNL     1      23.077   3.629  49.423  1.00  0.00    -0.006 A 
HETATM   16  C21 UNL     1      21.742   1.900  48.471  1.00  0.00     0.082 A 
HETATM   17  C17 UNL     1      22.592   4.031  48.088  1.00  0.00    -0.018 A 
HETATM   18  C18 UNL     1      21.849   3.070  47.566  1.00  0.00    -0.043 A 
HETATM   19  C20 UNL     1      22.340   4.799  46.854  1.00  0.00     0.013 A 
HETATM   20  C19 UNL     1      21.599   3.837  46.340  1.00  0.00     0.009 A 
BRANCH  12  21
HETATM   21  C7  UNL     1      23.826   1.542  53.086  1.00  0.00     0.080 C 
BRANCH  21  22
HETATM   22  C8  UNL     1      25.187   1.026  53.235  1.00  0.00    -0.054 A 
HETATM   23  C9  UNL     1      26.239   1.640  53.877  1.00  0.00     0.007 A 
HETATM   24  C10 UNL     1      27.507   1.111  53.984  1.00  0.00     0.001 A 
HETATM   25  C11 UNL     1      27.757  -0.137  53.403  1.00  0.00     0.000 A 
HETATM   26  C12 UNL     1      26.722  -0.810  52.734  1.00  0.00     0.001 A 
HETATM   27  C13 UNL     1      25.463  -0.221  52.661  1.00  0.00     0.007 A 
ENDBRANCH  21  22
ENDBRANCH  12  21
BRANCH  13  28
HETATM   28  O1  UNL     1      22.286   0.402  51.094  1.00  0.00    -0.360 OA
HETATM   29  H10 UNL     1      22.262   0.124  52.069  1.00  0.00     0.217 HD
ENDBRANCH  13  28
ENDBRANCH   4  10
TORSDOF 5
ENDMDL
MODEL 9
REMARK VINA RESULT:      -8.5      2.500      4.114
REMARK  5 active torsions:
REMARK  status: ('A' for Active; 'I' for Inactive)
REMARK    1  A    between atoms: C2_3  and  C22_24 
REMARK    2  A    between atoms: C3_4  and  C4_5 
REMARK    3  A    between atoms: C6_7  and  C7_8 
REMARK    4  A    between atoms: C7_8  and  C8_9 
REMARK    5  A    between atoms: C14_15  and  O1_16 
REMARK       I    between atoms: C22_24  and  N2_25 
ROOT
HETATM    1  N1  UNL     1      22.492   4.912  52.544  1.00  0.00    -0.191 NA
HETATM    2  C1  UNL     1      22.622   4.263  51.593  1.00  0.00     0.105 C 
HETATM    3  C2  UNL     1      22.758   3.451  50.403  1.00  0.00     0.112 C 
HETATM    4  C3  UNL     1      23.179   2.201  50.395  1.00  0.00     0.040 C 
ENDROOT
BRANCH   3   5
HETATM    5  C22 UNL     1      22.394   4.131  49.145  1.00  0.00     0.260 C 
HETATM    6  N2  UNL     1      21.052   4.566  48.856  1.00  0.00    -0.365 N 
HETATM    7  H15 UNL     1      20.683   3.786  48.233  1.00  0.00     0.159 HD
HETATM    8  H16 UNL     1      20.333   5.316  49.017  1.00  0.00     0.159 HD
HETATM    9  O2  UNL     1      23.184   4.405  48.209  1.00  0.00    -0.267 OA
ENDBRANCH   3   5
BRANCH   4  10
HETATM   10  C4  UNL     1      23.568   1.473  51.591  1.00  0.00    -0.022 A 
HETATM   11  C5  UNL     1      24.852   1.518  52.125  1.00  0.00     0.022 A 
HETATM   12  C6  UNL     1      25.232   0.841  53.285  1.00  0.00    -0.019 A 
HETATM   13  C14 UNL     1      24.264   0.081  53.934  1.00  0.00     0.079 A 
HETATM   14  C15 UNL     1      22.972   0.019  53.424  1.00  0.00    -0.008 A 
HETATM   15  C16 UNL     1      22.624   0.708  52.260  1.00  0.00    -0.006 A 
HETATM   16  C21 UNL     1      21.806  -0.723  53.981  1.00  0.00     0.082 A 
HETATM   17  C17 UNL     1      21.189   0.427  52.055  1.00  0.00    -0.018 A 
HETATM   18  C18 UNL     1      20.739  -0.363  53.015  1.00  0.00    -0.043 A 
HETATM   19  C20 UNL     1      19.823   0.410  51.498  1.00  0.00     0.013 A 
HETATM   20  C19 UNL     1      19.381  -0.378  52.459  1.00  0.00     0.009 A 
BRANCH  12  21
HETATM   21  C7  UNL     1      26.609   0.909  53.810  1.00  0.00     0.080 C 
BRANCH  21  22
HETATM   22  C8  UNL     1      27.443  -0.261  53.531  1.00  0.00    -0.054 A 
HETATM   23  C9  UNL     1      28.775  -0.421  53.843  1.00  0.00     0.007 A 
HETATM   24  C10 UNL     1      29.517  -1.545  53.551  1.00  0.00     0.001 A 
HETATM   25  C11 UNL     1      28.885  -2.605  52.892  1.00  0.00     0.000 A 
HETATM   26  C12 UNL     1      27.529  -2.498  52.549  1.00  0.00     0.001 A 
HETATM   27  C13 UNL     1      26.834  -1.336  52.871  1.00  0.00     0.007 A 
ENDBRANCH  21  22
ENDBRANCH  12  21
BRANCH  13  28
HETATM   28  O1  UNL     1      24.666  -0.584  55.086  1.00  0.00    -0.360 OA
HETATM   29  H10 UNL     1      25.487  -1.173  55.002  1.00  0.00     0.217 HD
ENDBRANCH  13  28
ENDBRANCH   4  10
TORSDOF 5
ENDMDL
