MODEL 1
REMARK VINA RESULT:      -8.3      0.000      0.000
REMARK  7 active torsions:
REMARK  status: ('A' for Active; 'I' for Inactive)
REMARK    1  A    between atoms: C2_2  and  C3_3 
REMARK    2  A    between atoms: C3_3  and  C4_4 
REMARK    3  A    between atoms: C10_10  and  N1_11 
REMARK    4  A    between atoms: N1_11  and  P1_12 
REMARK    5  A    between atoms: P1_12  and  N2_13 
REMARK    6  A    between atoms: N2_13  and  C11_14 
REMARK    7  A    between atoms: C11_14  and  N3_15 
ROOT
HETATM    1  C4  UNL     1      26.220   0.447  54.655  1.00  0.00    -0.038 C 
HETATM    2  C5  UNL     1      25.819   1.602  53.824  1.00  0.00     0.009 C 
HETATM    3  C6  UNL     1      24.676   2.269  53.575  1.00  0.00     0.009 C 
HETATM    4  C7  UNL     1      24.020   3.312  52.889  1.00  0.00    -0.044 A 
HETATM    5  C8  UNL     1      23.931   4.601  53.133  1.00  0.00     0.010 A 
HETATM    6  C9  UNL     1      23.085   5.083  52.035  1.00  0.00     0.029 A 
HETATM    7  C10 UNL     1      22.693   4.146  51.186  1.00  0.00     0.049 A 
HETATM    8  C12 UNL     1      23.323   2.908  51.625  1.00  0.00     0.028 A 
HETATM    9  C13 UNL     1      24.491   2.622  50.632  1.00  0.00     0.027 C 
HETATM   10  C14 UNL     1      22.498   1.702  51.684  1.00  0.00    -0.004 C 
HETATM   11  C15 UNL     1      21.728   0.521  51.556  1.00  0.00     0.031 C 
HETATM   12  C16 UNL     1      21.178   0.079  52.839  1.00  0.00    -0.014 A 
HETATM   13  C17 UNL     1      22.524  -0.346  53.132  1.00  0.00     0.046 A 
HETATM   14  C18 UNL     1      23.855  -0.720  53.266  1.00  0.00     0.033 A 
HETATM   15  C19 UNL     1      23.534  -1.038  54.578  1.00  0.00     0.044 A 
HETATM   16  C20 UNL     1      22.286  -0.897  55.086  1.00  0.00     0.011 A 
HETATM   17  C21 UNL     1      21.416  -0.383  54.118  1.00  0.00     0.026 A 
HETATM   18  O1  UNL     1      24.717  -1.454  55.091  1.00  0.00    -0.351 OA
HETATM   19  C22 UNL     1      25.704  -0.569  55.591  1.00  0.00     0.213 C 
ENDROOT
BRANCH   7  20
HETATM   20  N1  UNL     1      21.888   4.375  50.087  1.00  0.00    -0.235 NA
BRANCH  20  21
HETATM   21  P1  UNL     1      22.201   5.148  48.747  1.00  0.00     0.186 P 
BRANCH  21  22
HETATM   22  N2  UNL     1      23.843   5.707  48.223  1.00  0.00    -0.318 N 
HETATM   23  H9  UNL     1      24.021   5.738  47.175  1.00  0.00     0.169 HD
BRANCH  22  24
HETATM   24  C11 UNL     1      25.017   6.135  48.930  1.00  0.00     0.170 C 
HETATM   25  S1  UNL     1      25.528   7.468  48.134  1.00  0.00    -0.041 SA
BRANCH  24  26
HETATM   26  N3  UNL     1      25.908   5.890  50.019  1.00  0.00    -0.376 N 
HETATM   27  H10 UNL     1      25.423   6.066  50.950  1.00  0.00     0.158 HD
HETATM   28  H11 UNL     1      26.882   5.588  49.848  1.00  0.00     0.158 HD
ENDBRANCH  24  26
ENDBRANCH  22  24
ENDBRANCH  21  22
ENDBRANCH  20  21
ENDBRANCH   7  20
BRANCH   1  29
HETATM   29  C3  UNL     1      27.546   0.410  54.384  1.00  0.00    -0.017 C 
BRANCH  29  30
HETATM   30  C2  UNL     1      28.993   0.256  54.027  1.00  0.00    -0.005 C 
HETATM   31  C1  UNL     1      30.148  -0.248  53.517  1.00  0.00     0.037 C 
ENDBRANCH  29  30
ENDBRANCH   1  29
TORSDOF 7
ENDMDL
MODEL 2
REMARK VINA RESULT:      -8.2      2.616      3.396
REMARK  7 active torsions:
REMARK  status: ('A' for Active; 'I' for Inactive)
REMARK    1  A    between atoms: C2_2  and  C3_3 
REMARK    2  A    between atoms: C3_3  and  C4_4 
REMARK    3  A    between atoms: C10_10  and  N1_11 
REMARK    4  A    between atoms: N1_11  and  P1_12 
REMARK    5  A    between atoms: P1_12  and  N2_13 
REMARK    6  A    between atoms: N2_13  and  C11_14 
REMARK    7  A    between atoms: C11_14  and  N3_15 
ROOT
HETATM    1  C4  UNL     1      26.197   0.613  54.404  1.00  0.00    -0.038 C 
HETATM    2  C5  UNL     1      25.724   1.727  53.557  1.00  0.00     0.009 C 
HETATM    3  C6  UNL     1      24.552   2.359  53.347  1.00  0.00     0.009 C 
HETATM    4  C7  UNL     1      23.835   3.361  52.662  1.00  0.00    -0.044 A 
HETATM    5  C8  UNL     1      23.729   4.657  52.864  1.00  0.00     0.010 A 
HETATM    6  C9  UNL     1      22.813   5.079  51.798  1.00  0.00     0.029 A 
HETATM    7  C10 UNL     1      22.398   4.102  51.006  1.00  0.00     0.049 A 
HETATM    8  C12 UNL     1      23.080   2.896  51.453  1.00  0.00     0.028 A 
HETATM    9  C13 UNL     1      24.200   2.599  50.409  1.00  0.00     0.027 C 
HETATM   10  C14 UNL     1      22.289   1.675  51.600  1.00  0.00    -0.004 C 
HETATM   11  C15 UNL     1      21.542   0.474  51.557  1.00  0.00     0.031 C 
HETATM   12  C16 UNL     1      21.074   0.067  52.883  1.00  0.00    -0.014 A 
HETATM   13  C17 UNL     1      22.443  -0.317  53.117  1.00  0.00     0.046 A 
HETATM   14  C18 UNL     1      23.789  -0.656  53.190  1.00  0.00     0.033 A 
HETATM   15  C19 UNL     1      23.546  -0.933  54.529  1.00  0.00     0.044 A 
HETATM   16  C20 UNL     1      22.325  -0.801  55.099  1.00  0.00     0.011 A 
HETATM   17  C21 UNL     1      21.392  -0.343  54.162  1.00  0.00     0.026 A 
HETATM   18  O1  UNL     1      24.766  -1.304  54.990  1.00  0.00    -0.351 OA
HETATM   19  C22 UNL     1      25.757  -0.379  55.403  1.00  0.00     0.213 C 
ENDROOT
BRANCH   7  20
HETATM   20  N1  UNL     1      21.529   4.273  49.946  1.00  0.00    -0.235 NA
BRANCH  20  21
HETATM   21  P1  UNL     1      19.963   4.467  49.944  1.00  0.00     0.186 P 
BRANCH  21  22
HETATM   22  N2  UNL     1      18.835   3.875  51.233  1.00  0.00    -0.318 N 
HETATM   23  H9  UNL     1      19.286   3.443  52.095  1.00  0.00     0.169 HD
BRANCH  22  24
HETATM   24  C11 UNL     1      17.407   3.850  51.365  1.00  0.00     0.170 C 
HETATM   25  S1  UNL     1      17.004   2.266  51.307  1.00  0.00    -0.041 SA
BRANCH  24  26
HETATM   26  N3  UNL     1      16.210   4.614  51.526  1.00  0.00    -0.376 N 
HETATM   27  H10 UNL     1      15.740   4.387  52.454  1.00  0.00     0.158 HD
HETATM   28  H11 UNL     1      15.904   5.276  50.793  1.00  0.00     0.158 HD
ENDBRANCH  24  26
ENDBRANCH  22  24
ENDBRANCH  21  22
ENDBRANCH  20  21
ENDBRANCH   7  20
BRANCH   1  29
HETATM   29  C3  UNL     1      27.506   0.596  54.063  1.00  0.00    -0.017 C 
BRANCH  29  30
HETATM   30  C2  UNL     1      28.949   0.448  53.689  1.00  0.00    -0.005 C 
HETATM   31  C1  UNL     1      30.176  -0.098  53.473  1.00  0.00     0.037 C 
ENDBRANCH  29  30
ENDBRANCH   1  29
TORSDOF 7
ENDMDL
MODEL 3
REMARK VINA RESULT:      -8.0      3.391      6.217
REMARK  7 active torsions:
REMARK  status: ('A' for Active; 'I' for Inactive)
REMARK    1  A    between atoms: C2_2  and  C3_3 
REMARK    2  A    between atoms: C3_3  and  C4_4 
REMARK    3  A    between atoms: C10_10  and  N1_11 
REMARK    4  A    between atoms: N1_11  and  P1_12 
REMARK    5  A    between atoms: P1_12  and  N2_13 
REMARK    6  A    between atoms: N2_13  and  C11_14 
REMARK    7  A    between atoms: C11_14  and  N3_15 
ROOT
HETATM    1  C4  UNL     1      18.468   0.083  51.768  1.00  0.00    -0.038 C 
HETATM    2  C5  UNL     1      19.274   0.918  50.853  1.00  0.00     0.009 C 
HETATM    3  C6  UNL     1      20.556   0.949  50.442  1.00  0.00     0.009 C 
HETATM    4  C7  UNL     1      21.549   1.567  49.654  1.00  0.00    -0.044 A 
HETATM    5  C8  UNL     1      21.843   1.466  48.376  1.00  0.00     0.010 A 
HETATM    6  C9  UNL     1      22.995   2.364  48.235  1.00  0.00     0.029 A 
HETATM    7  C10 UNL     1      23.367   2.968  49.354  1.00  0.00     0.049 A 
HETATM    8  C12 UNL     1      22.415   2.556  50.376  1.00  0.00     0.028 A 
HETATM    9  C13 UNL     1      21.466   3.770  50.621  1.00  0.00     0.027 C 
HETATM   10  C14 UNL     1      22.939   2.145  51.678  1.00  0.00    -0.004 C 
HETATM   11  C15 UNL     1      23.459   1.932  52.977  1.00  0.00     0.031 C 
HETATM   12  C16 UNL     1      23.603   0.508  53.286  1.00  0.00    -0.014 A 
HETATM   13  C17 UNL     1      22.168   0.515  53.421  1.00  0.00     0.046 A 
HETATM   14  C18 UNL     1      20.793   0.678  53.535  1.00  0.00     0.033 A 
HETATM   15  C19 UNL     1      20.739  -0.702  53.680  1.00  0.00     0.044 A 
HETATM   16  C20 UNL     1      21.843  -1.487  53.671  1.00  0.00     0.011 A 
HETATM   17  C21 UNL     1      22.994  -0.715  53.481  1.00  0.00     0.026 A 
HETATM   18  O1  UNL     1      19.411  -0.945  53.798  1.00  0.00    -0.351 OA
HETATM   19  C22 UNL     1      18.540  -1.069  52.686  1.00  0.00     0.213 C 
ENDROOT
BRANCH   7  20
HETATM   20  N1  UNL     1      24.428   3.846  49.451  1.00  0.00    -0.235 NA
BRANCH  20  21
HETATM   21  P1  UNL     1      25.949   3.565  49.768  1.00  0.00     0.186 P 
BRANCH  21  22
HETATM   22  N2  UNL     1      26.604   3.064  51.382  1.00  0.00    -0.318 N 
HETATM   23  H9  UNL     1      26.774   3.843  52.086  1.00  0.00     0.169 HD
BRANCH  22  24
HETATM   24  C11 UNL     1      26.966   1.800  51.955  1.00  0.00     0.170 C 
HETATM   25  S1  UNL     1      27.926   2.171  53.226  1.00  0.00    -0.041 SA
BRANCH  24  26
HETATM   26  N3  UNL     1      26.841   0.378  51.885  1.00  0.00    -0.376 N 
HETATM   27  H10 UNL     1      27.775  -0.092  52.085  1.00  0.00     0.158 HD
HETATM   28  H11 UNL     1      25.933  -0.062  51.660  1.00  0.00     0.158 HD
ENDBRANCH  24  26
ENDBRANCH  22  24
ENDBRANCH  21  22
ENDBRANCH  20  21
ENDBRANCH   7  20
BRANCH   1  29
HETATM   29  C3  UNL     1      17.258   0.673  51.624  1.00  0.00    -0.017 C 
BRANCH  29  30
HETATM   30  C2  UNL     1      15.963   1.420  51.540  1.00  0.00    -0.005 C 
HETATM   31  C1  UNL     1      15.051   2.395  51.278  1.00  0.00     0.037 C 
ENDBRANCH  29  30
ENDBRANCH   1  29
TORSDOF 7
ENDMDL
MODEL 4
REMARK VINA RESULT:      -7.8      2.000      2.418
REMARK  7 active torsions:
REMARK  status: ('A' for Active; 'I' for Inactive)
REMARK    1  A    between atoms: C2_2  and  C3_3 
REMARK    2  A    between atoms: C3_3  and  C4_4 
REMARK    3  A    between atoms: C10_10  and  N1_11 
REMARK    4  A    between atoms: N1_11  and  P1_12 
REMARK    5  A    between atoms: P1_12  and  N2_13 
REMARK    6  A    between atoms: N2_13  and  C11_14 
REMARK    7  A    between atoms: C11_14  and  N3_15 
ROOT
HETATM    1  C4  UNL     1      26.181   0.611  54.527  1.00  0.00    -0.038 C 
HETATM    2  C5  UNL     1      25.734   1.722  53.662  1.00  0.00     0.009 C 
HETATM    3  C6  UNL     1      24.566   2.342  53.403  1.00  0.00     0.009 C 
HETATM    4  C7  UNL     1      23.869   3.339  52.689  1.00  0.00    -0.044 A 
HETATM    5  C8  UNL     1      23.740   4.632  52.890  1.00  0.00     0.010 A 
HETATM    6  C9  UNL     1      22.867   5.048  51.786  1.00  0.00     0.029 A 
HETATM    7  C10 UNL     1      22.499   4.070  50.973  1.00  0.00     0.049 A 
HETATM    8  C12 UNL     1      23.173   2.870  51.447  1.00  0.00     0.028 A 
HETATM    9  C13 UNL     1      24.342   2.588  50.452  1.00  0.00     0.027 C 
HETATM   10  C14 UNL     1      22.390   1.639  51.555  1.00  0.00    -0.004 C 
HETATM   11  C15 UNL     1      21.659   0.430  51.475  1.00  0.00     0.031 C 
HETATM   12  C16 UNL     1      21.137   0.014  52.779  1.00  0.00    -0.014 A 
HETATM   13  C17 UNL     1      22.499  -0.356  53.072  1.00  0.00     0.046 A 
HETATM   14  C18 UNL     1      23.843  -0.680  53.203  1.00  0.00     0.033 A 
HETATM   15  C19 UNL     1      23.545  -0.964  54.529  1.00  0.00     0.044 A 
HETATM   16  C20 UNL     1      22.298  -0.848  55.045  1.00  0.00     0.011 A 
HETATM   17  C21 UNL     1      21.403  -0.396  54.070  1.00  0.00     0.026 A 
HETATM   18  O1  UNL     1      24.747  -1.324  55.043  1.00  0.00    -0.351 OA
HETATM   19  C22 UNL     1      25.709  -0.389  55.502  1.00  0.00     0.213 C 
ENDROOT
BRANCH   7  20
HETATM   20  N1  UNL     1      21.676   4.235  49.876  1.00  0.00    -0.235 NA
BRANCH  20  21
HETATM   21  P1  UNL     1      21.898   5.082  48.563  1.00  0.00     0.186 P 
BRANCH  21  22
HETATM   22  N2  UNL     1      20.987   4.864  47.012  1.00  0.00    -0.318 N 
HETATM   23  H9  UNL     1      21.138   5.606  46.265  1.00  0.00     0.169 HD
BRANCH  22  24
HETATM   24  C11 UNL     1      20.061   3.875  46.538  1.00  0.00     0.170 C 
HETATM   25  S1  UNL     1      20.169   3.942  44.907  1.00  0.00    -0.041 SA
BRANCH  24  26
HETATM   26  N3  UNL     1      19.103   2.874  46.885  1.00  0.00    -0.376 N 
HETATM   27  H10 UNL     1      19.429   1.913  46.565  1.00  0.00     0.158 HD
HETATM   28  H11 UNL     1      18.230   3.127  47.379  1.00  0.00     0.158 HD
ENDBRANCH  24  26
ENDBRANCH  22  24
ENDBRANCH  21  22
ENDBRANCH  20  21
ENDBRANCH   7  20
BRANCH   1  29
HETATM   29  C3  UNL     1      27.505   0.609  54.243  1.00  0.00    -0.017 C 
BRANCH  29  30
HETATM   30  C2  UNL     1      28.950   0.494  53.869  1.00  0.00    -0.005 C 
HETATM   31  C1  UNL     1      30.124  -0.004  53.396  1.00  0.00     0.037 C 
ENDBRANCH  29  30
ENDBRANCH   1  29
TORSDOF 7
ENDMDL
MODEL 5
REMARK VINA RESULT:      -7.7      2.843      5.875
REMARK  7 active torsions:
REMARK  status: ('A' for Active; 'I' for Inactive)
REMARK    1  A    between atoms: C2_2  and  C3_3 
REMARK    2  A    between atoms: C3_3  and  C4_4 
REMARK    3  A    between atoms: C10_10  and  N1_11 
REMARK    4  A    between atoms: N1_11  and  P1_12 
REMARK    5  A    between atoms: P1_12  and  N2_13 
REMARK    6  A    between atoms: N2_13  and  C11_14 
REMARK    7  A    between atoms: C11_14  and  N3_15 
ROOT
HETATM    1  C4  UNL     1      18.360   0.169  51.823  1.00  0.00    -0.038 C 
HETATM    2  C5  UNL     1      19.194   0.962  50.896  1.00  0.00     0.009 C 
HETATM    3  C6  UNL     1      20.467   0.922  50.458  1.00  0.00     0.009 C 
HETATM    4  C7  UNL     1      21.478   1.486  49.653  1.00  0.00    -0.044 A 
HETATM    5  C8  UNL     1      21.739   1.376  48.369  1.00  0.00     0.010 A 
HETATM    6  C9  UNL     1      22.938   2.207  48.208  1.00  0.00     0.029 A 
HETATM    7  C10 UNL     1      23.367   2.782  49.321  1.00  0.00     0.049 A 
HETATM    8  C12 UNL     1      22.414   2.420  50.361  1.00  0.00     0.028 A 
HETATM    9  C13 UNL     1      21.542   3.684  50.631  1.00  0.00     0.027 C 
HETATM   10  C14 UNL     1      22.940   1.972  51.650  1.00  0.00    -0.004 C 
HETATM   11  C15 UNL     1      23.473   1.721  52.936  1.00  0.00     0.031 C 
HETATM   12  C16 UNL     1      23.541   0.289  53.236  1.00  0.00    -0.014 A 
HETATM   13  C17 UNL     1      22.112   0.378  53.400  1.00  0.00     0.046 A 
HETATM   14  C18 UNL     1      20.751   0.619  53.544  1.00  0.00     0.033 A 
HETATM   15  C19 UNL     1      20.621  -0.756  53.684  1.00  0.00     0.044 A 
HETATM   16  C20 UNL     1      21.677  -1.603  53.648  1.00  0.00     0.011 A 
HETATM   17  C21 UNL     1      22.866  -0.898  53.438  1.00  0.00     0.026 A 
HETATM   18  O1  UNL     1      19.283  -0.923  53.828  1.00  0.00    -0.351 OA
HETATM   19  C22 UNL     1      18.384  -0.990  52.734  1.00  0.00     0.213 C 
ENDROOT
BRANCH   7  20
HETATM   20  N1  UNL     1      24.479   3.597  49.401  1.00  0.00    -0.235 NA
BRANCH  20  21
HETATM   21  P1  UNL     1      24.595   5.165  49.263  1.00  0.00     0.186 P 
BRANCH  21  22
HETATM   22  N2  UNL     1      25.513   6.248  50.390  1.00  0.00    -0.318 N 
HETATM   23  H9  UNL     1      25.835   5.814  51.306  1.00  0.00     0.169 HD
BRANCH  22  24
HETATM   24  C11 UNL     1      25.922   7.622  50.330  1.00  0.00     0.170 C 
HETATM   25  S1  UNL     1      24.649   8.414  49.675  1.00  0.00    -0.041 SA
BRANCH  24  26
HETATM   26  N3  UNL     1      26.954   8.572  50.599  1.00  0.00    -0.376 N 
HETATM   27  H10 UNL     1      27.284   8.494  51.608  1.00  0.00     0.158 HD
HETATM   28  H11 UNL     1      27.282   9.219  49.862  1.00  0.00     0.158 HD
ENDBRANCH  24  26
ENDBRANCH  22  24
ENDBRANCH  21  22
ENDBRANCH  20  21
ENDBRANCH   7  20
BRANCH   1  29
HETATM   29  C3  UNL     1      17.184   0.829  51.707  1.00  0.00    -0.017 C 
BRANCH  29  30
HETATM   30  C2  UNL     1      15.916   1.626  51.683  1.00  0.00    -0.005 C 
HETATM   31  C1  UNL     1      14.606   1.969  51.809  1.00  0.00     0.037 C 
ENDBRANCH  29  30
ENDBRANCH   1  29
TORSDOF 7
ENDMDL
MODEL 6
REMARK VINA RESULT:      -7.4      2.044      4.900
REMARK  7 active torsions:
REMARK  status: ('A' for Active; 'I' for Inactive)
REMARK    1  A    between atoms: C2_2  and  C3_3 
REMARK    2  A    between atoms: C3_3  and  C4_4 
REMARK    3  A    between atoms: C10_10  and  N1_11 
REMARK    4  A    between atoms: N1_11  and  P1_12 
REMARK    5  A    between atoms: P1_12  and  N2_13 
REMARK    6  A    between atoms: N2_13  and  C11_14 
REMARK    7  A    between atoms: C11_14  and  N3_15 
ROOT
HETATM    1  C4  UNL     1      21.597  -0.422  52.416  1.00  0.00    -0.038 C 
HETATM    2  C5  UNL     1      21.379   0.507  51.288  1.00  0.00     0.009 C 
HETATM    3  C6  UNL     1      22.146   1.082  50.341  1.00  0.00     0.009 C 
HETATM    4  C7  UNL     1      22.235   1.943  49.228  1.00  0.00    -0.044 A 
HETATM    5  C8  UNL     1      21.975   1.756  47.952  1.00  0.00     0.010 A 
HETATM    6  C9  UNL     1      22.304   3.057  47.358  1.00  0.00     0.029 A 
HETATM    7  C10 UNL     1      22.731   3.967  48.220  1.00  0.00     0.049 A 
HETATM    8  C12 UNL     1      22.662   3.347  49.536  1.00  0.00     0.028 A 
HETATM    9  C13 UNL     1      21.423   3.961  50.258  1.00  0.00     0.027 C 
HETATM   10  C14 UNL     1      23.808   3.505  50.430  1.00  0.00    -0.004 C 
HETATM   11  C15 UNL     1      24.847   3.828  51.335  1.00  0.00     0.031 C 
HETATM   12  C16 UNL     1      25.828   2.747  51.458  1.00  0.00    -0.014 A 
HETATM   13  C17 UNL     1      24.812   2.076  52.230  1.00  0.00     0.046 A 
HETATM   14  C18 UNL     1      23.751   1.563  52.966  1.00  0.00     0.033 A 
HETATM   15  C19 UNL     1      24.492   0.392  53.036  1.00  0.00     0.044 A 
HETATM   16  C20 UNL     1      25.720   0.262  52.479  1.00  0.00     0.011 A 
HETATM   17  C21 UNL     1      26.094   1.446  51.835  1.00  0.00     0.026 A 
HETATM   18  O1  UNL     1      23.680  -0.444  53.729  1.00  0.00    -0.351 OA
HETATM   19  C22 UNL     1      22.634  -1.189  53.130  1.00  0.00     0.213 C 
ENDROOT
BRANCH   7  20
HETATM   20  N1  UNL     1      23.101   5.253  47.877  1.00  0.00    -0.235 NA
BRANCH  20  21
HETATM   21  P1  UNL     1      23.036   6.583  48.724  1.00  0.00     0.186 P 
BRANCH  21  22
HETATM   22  N2  UNL     1      24.467   7.450  49.420  1.00  0.00    -0.318 N 
HETATM   23  H9  UNL     1      24.282   8.411  49.837  1.00  0.00     0.169 HD
BRANCH  22  24
HETATM   24  C11 UNL     1      25.859   7.125  49.542  1.00  0.00     0.170 C 
HETATM   25  S1  UNL     1      26.593   8.539  49.912  1.00  0.00    -0.041 SA
BRANCH  24  26
HETATM   26  N3  UNL     1      26.855   6.103  49.480  1.00  0.00    -0.376 N 
HETATM   27  H10 UNL     1      27.004   5.783  48.475  1.00  0.00     0.158 HD
HETATM   28  H11 UNL     1      27.323   5.767  50.339  1.00  0.00     0.158 HD
ENDBRANCH  24  26
ENDBRANCH  22  24
ENDBRANCH  21  22
ENDBRANCH  20  21
ENDBRANCH   7  20
BRANCH   1  29
HETATM   29  C3  UNL     1      20.328  -0.540  52.873  1.00  0.00    -0.017 C 
BRANCH  29  30
HETATM   30  C2  UNL     1      18.919  -0.783  53.318  1.00  0.00    -0.005 C 
HETATM   31  C1  UNL     1      17.611  -1.156  53.311  1.00  0.00     0.037 C 
ENDBRANCH  29  30
ENDBRANCH   1  29
TORSDOF 7
ENDMDL
MODEL 7
REMARK VINA RESULT:      -7.3      4.249      5.870
REMARK  7 active torsions:
REMARK  status: ('A' for Active; 'I' for Inactive)
REMARK    1  A    between atoms: C2_2  and  C3_3 
REMARK    2  A    between atoms: C3_3  and  C4_4 
REMARK    3  A    between atoms: C10_10  and  N1_11 
REMARK    4  A    between atoms: N1_11  and  P1_12 
REMARK    5  A    between atoms: P1_12  and  N2_13 
REMARK    6  A    between atoms: N2_13  and  C11_14 
REMARK    7  A    between atoms: C11_14  and  N3_15 
ROOT
HETATM    1  C4  UNL     1      26.134   2.678  51.714  1.00  0.00    -0.038 C 
HETATM    2  C5  UNL     1      24.682   2.849  51.501  1.00  0.00     0.009 C 
HETATM    3  C6  UNL     1      23.559   2.574  52.193  1.00  0.00     0.009 C 
HETATM    4  C7  UNL     1      22.151   2.604  52.256  1.00  0.00    -0.044 A 
HETATM    5  C8  UNL     1      21.308   3.563  52.571  1.00  0.00     0.010 A 
HETATM    6  C9  UNL     1      20.003   2.903  52.450  1.00  0.00     0.029 A 
HETATM    7  C10 UNL     1      20.058   1.632  52.084  1.00  0.00     0.049 A 
HETATM    8  C12 UNL     1      21.465   1.333  51.856  1.00  0.00     0.028 A 
HETATM    9  C13 UNL     1      21.667   1.272  50.311  1.00  0.00     0.027 C 
HETATM   10  C14 UNL     1      22.001   0.091  52.413  1.00  0.00    -0.004 C 
HETATM   11  C15 UNL     1      22.445  -1.195  52.802  1.00  0.00     0.031 C 
HETATM   12  C16 UNL     1      23.198  -1.162  54.058  1.00  0.00    -0.014 A 
HETATM   13  C17 UNL     1      24.259  -0.591  53.267  1.00  0.00     0.046 A 
HETATM   14  C18 UNL     1      25.192  -0.071  52.378  1.00  0.00     0.033 A 
HETATM   15  C19 UNL     1      25.972   0.183  53.498  1.00  0.00     0.044 A 
HETATM   16  C20 UNL     1      25.584  -0.138  54.755  1.00  0.00     0.011 A 
HETATM   17  C21 UNL     1      24.314  -0.725  54.742  1.00  0.00     0.026 A 
HETATM   18  O1  UNL     1      27.071   0.781  52.975  1.00  0.00    -0.351 OA
HETATM   19  C22 UNL     1      27.134   2.163  52.669  1.00  0.00     0.213 C 
ENDROOT
BRANCH   7  20
HETATM   20  N1  UNL     1      18.953   0.819  51.917  1.00  0.00    -0.235 NA
BRANCH  20  21
HETATM   21  P1  UNL     1      17.726   0.970  50.935  1.00  0.00     0.186 P 
BRANCH  21  22
HETATM   22  N2  UNL     1      16.025   0.468  51.305  1.00  0.00    -0.318 N 
HETATM   23  H9  UNL     1      15.293   0.696  50.568  1.00  0.00     0.169 HD
BRANCH  22  24
HETATM   24  C11 UNL     1      15.407  -0.196  52.418  1.00  0.00     0.170 C 
HETATM   25  S1  UNL     1      16.110  -1.671  52.474  1.00  0.00    -0.041 SA
BRANCH  24  26
HETATM   26  N3  UNL     1      14.455  -0.109  53.479  1.00  0.00    -0.376 N 
HETATM   27  H10 UNL     1      13.617   0.479  53.186  1.00  0.00     0.158 HD
HETATM   28  H11 UNL     1      14.627  -0.579  54.383  1.00  0.00     0.158 HD
ENDBRANCH  24  26
ENDBRANCH  22  24
ENDBRANCH  21  22
ENDBRANCH  20  21
ENDBRANCH   7  20
BRANCH   1  29
HETATM   29  C3  UNL     1      26.607   3.227  50.572  1.00  0.00    -0.017 C 
BRANCH  29  30
HETATM   30  C2  UNL     1      27.069   3.944  49.340  1.00  0.00    -0.005 C 
HETATM   31  C1  UNL     1      27.718   4.816  48.522  1.00  0.00     0.037 C 
ENDBRANCH  29  30
ENDBRANCH   1  29
TORSDOF 7
ENDMDL
MODEL 8
REMARK VINA RESULT:      -7.3      3.931      5.147
REMARK  7 active torsions:
REMARK  status: ('A' for Active; 'I' for Inactive)
REMARK    1  A    between atoms: C2_2  and  C3_3 
REMARK    2  A    between atoms: C3_3  and  C4_4 
REMARK    3  A    between atoms: C10_10  and  N1_11 
REMARK    4  A    between atoms: N1_11  and  P1_12 
REMARK    5  A    between atoms: P1_12  and  N2_13 
REMARK    6  A    between atoms: N2_13  and  C11_14 
REMARK    7  A    between atoms: C11_14  and  N3_15 
ROOT
HETATM    1  C4  UNL     1      26.014   2.632  51.863  1.00  0.00    -0.038 C 
HETATM    2  C5  UNL     1      24.568   2.771  51.593  1.00  0.00     0.009 C 
HETATM    3  C6  UNL     1      23.426   2.481  52.246  1.00  0.00     0.009 C 
HETATM    4  C7  UNL     1      22.016   2.483  52.256  1.00  0.00    -0.044 A 
HETATM    5  C8  UNL     1      21.142   3.428  52.526  1.00  0.00     0.010 A 
HETATM    6  C9  UNL     1      19.856   2.739  52.365  1.00  0.00     0.029 A 
HETATM    7  C10 UNL     1      19.951   1.465  52.018  1.00  0.00     0.049 A 
HETATM    8  C12 UNL     1      21.371   1.192  51.847  1.00  0.00     0.028 A 
HETATM    9  C13 UNL     1      21.633   1.118  50.311  1.00  0.00     0.027 C 
HETATM   10  C14 UNL     1      21.912  -0.031  52.439  1.00  0.00    -0.004 C 
HETATM   11  C15 UNL     1      22.366  -1.303  52.861  1.00  0.00     0.031 C 
HETATM   12  C16 UNL     1      23.071  -1.239  54.144  1.00  0.00    -0.014 A 
HETATM   13  C17 UNL     1      24.149  -0.656  53.386  1.00  0.00     0.046 A 
HETATM   14  C18 UNL     1      25.104  -0.127  52.526  1.00  0.00     0.033 A 
HETATM   15  C19 UNL     1      25.837   0.156  53.671  1.00  0.00     0.044 A 
HETATM   16  C20 UNL     1      25.407  -0.157  54.916  1.00  0.00     0.011 A 
HETATM   17  C21 UNL     1      24.151  -0.771  54.864  1.00  0.00     0.026 A 
HETATM   18  O1  UNL     1      26.942   0.771  53.182  1.00  0.00    -0.351 OA
HETATM   19  C22 UNL     1      26.988   2.150  52.860  1.00  0.00     0.213 C 
ENDROOT
BRANCH   7  20
HETATM   20  N1  UNL     1      18.870   0.628  51.820  1.00  0.00    -0.235 NA
BRANCH  20  21
HETATM   21  P1  UNL     1      17.565   0.847  50.961  1.00  0.00     0.186 P 
BRANCH  21  22
HETATM   22  N2  UNL     1      16.289   2.089  51.298  1.00  0.00    -0.318 N 
HETATM   23  H9  UNL     1      15.308   1.722  51.483  1.00  0.00     0.169 HD
BRANCH  22  24
HETATM   24  C11 UNL     1      16.296   3.522  51.373  1.00  0.00     0.170 C 
HETATM   25  S1  UNL     1      15.360   3.883  52.665  1.00  0.00    -0.041 SA
BRANCH  24  26
HETATM   26  N3  UNL     1      16.771   4.744  50.806  1.00  0.00    -0.376 N 
HETATM   27  H10 UNL     1      17.835   4.755  50.772  1.00  0.00     0.158 HD
HETATM   28  H11 UNL     1      16.110   5.475  50.496  1.00  0.00     0.158 HD
ENDBRANCH  24  26
ENDBRANCH  22  24
ENDBRANCH  21  22
ENDBRANCH  20  21
ENDBRANCH   7  20
BRANCH   1  29
HETATM   29  C3  UNL     1      26.519   3.178  50.732  1.00  0.00    -0.017 C 
BRANCH  29  30
HETATM   30  C2  UNL     1      26.962   3.833  49.459  1.00  0.00    -0.005 C 
HETATM   31  C1  UNL     1      27.577   4.681  48.592  1.00  0.00     0.037 C 
ENDBRANCH  29  30
ENDBRANCH   1  29
TORSDOF 7
ENDMDL
MODEL 9
REMARK VINA RESULT:      -7.2      2.630      5.318
REMARK  7 active torsions:
REMARK  status: ('A' for Active; 'I' for Inactive)
REMARK    1  A    between atoms: C2_2  and  C3_3 
REMARK    2  A    between atoms: C3_3  and  C4_4 
REMARK    3  A    between atoms: C10_10  and  N1_11 
REMARK    4  A    between atoms: N1_11  and  P1_12 
REMARK    5  A    between atoms: P1_12  and  N2_13 
REMARK    6  A    between atoms: N2_13  and  C11_14 
REMARK    7  A    between atoms: C11_14  and  N3_15 
ROOT
HETATM    1  C4  UNL     1      21.457  -0.385  52.380  1.00  0.00    -0.038 C 
HETATM    2  C5  UNL     1      21.246   0.503  51.219  1.00  0.00     0.009 C 
HETATM    3  C6  UNL     1      22.022   1.070  50.276  1.00  0.00     0.009 C 
HETATM    4  C7  UNL     1      22.117   1.900  49.139  1.00  0.00    -0.044 A 
HETATM    5  C8  UNL     1      21.897   1.668  47.863  1.00  0.00     0.010 A 
HETATM    6  C9  UNL     1      22.207   2.958  47.238  1.00  0.00     0.029 A 
HETATM    7  C10 UNL     1      22.586   3.905  48.083  1.00  0.00     0.049 A 
HETATM    8  C12 UNL     1      22.499   3.323  49.415  1.00  0.00     0.028 A 
HETATM    9  C13 UNL     1      21.226   3.925  50.086  1.00  0.00     0.027 C 
HETATM   10  C14 UNL     1      23.617   3.539  50.333  1.00  0.00    -0.004 C 
HETATM   11  C15 UNL     1      24.622   3.917  51.255  1.00  0.00     0.031 C 
HETATM   12  C16 UNL     1      25.627   2.867  51.436  1.00  0.00    -0.014 A 
HETATM   13  C17 UNL     1      24.610   2.192  52.202  1.00  0.00     0.046 A 
HETATM   14  C18 UNL     1      23.543   1.673  52.926  1.00  0.00     0.033 A 
HETATM   15  C19 UNL     1      24.313   0.524  53.050  1.00  0.00     0.044 A 
HETATM   16  C20 UNL     1      25.558   0.412  52.529  1.00  0.00     0.011 A 
HETATM   17  C21 UNL     1      25.918   1.586  51.859  1.00  0.00     0.026 A 
HETATM   18  O1  UNL     1      23.505  -0.312  53.747  1.00  0.00    -0.351 OA
HETATM   19  C22 UNL     1      22.496  -1.103  53.144  1.00  0.00     0.213 C 
ENDROOT
BRANCH   7  20
HETATM   20  N1  UNL     1      22.932   5.190  47.711  1.00  0.00    -0.235 NA
BRANCH  20  21
HETATM   21  P1  UNL     1      22.016   6.394  47.262  1.00  0.00     0.186 P 
BRANCH  21  22
HETATM   22  N2  UNL     1      20.424   6.831  48.010  1.00  0.00    -0.318 N 
HETATM   23  H9  UNL     1      19.560   6.384  47.580  1.00  0.00     0.169 HD
BRANCH  22  24
HETATM   24  C11 UNL     1      20.042   7.684  49.098  1.00  0.00     0.170 C 
HETATM   25  S1  UNL     1      21.360   7.755  50.063  1.00  0.00    -0.041 SA
BRANCH  24  26
HETATM   26  N3  UNL     1      19.013   8.486  49.681  1.00  0.00    -0.376 N 
HETATM   27  H10 UNL     1      19.342   8.911  50.600  1.00  0.00     0.158 HD
HETATM   28  H11 UNL     1      18.095   8.588  49.216  1.00  0.00     0.158 HD
ENDBRANCH  24  26
ENDBRANCH  22  24
ENDBRANCH  21  22
ENDBRANCH  20  21
ENDBRANCH   7  20
BRANCH   1  29
HETATM   29  C3  UNL     1      20.181  -0.524  52.808  1.00  0.00    -0.017 C 
BRANCH  29  30
HETATM   30  C2  UNL     1      18.753  -0.768  53.191  1.00  0.00    -0.005 C 
HETATM   31  C1  UNL     1      17.588  -1.405  53.485  1.00  0.00     0.037 C 
ENDBRANCH  29  30
ENDBRANCH   1  29
TORSDOF 7
ENDMDL
