MODEL 1
REMARK VINA RESULT:      -8.0      0.000      0.000
REMARK  2 active torsions:
REMARK  status: ('A' for Active; 'I' for Inactive)
REMARK    1  A    between atoms: O1_2  and  C2_3 
REMARK    2  A    between atoms: N6_25  and  N7_26 
ROOT
HETATM    1  C2  UNL     1      20.208   2.461  51.604  1.00  0.00     0.085 C 
HETATM    2  C3  UNL     1      19.809   1.191  51.684  1.00  0.00     0.143 C 
HETATM    3  N1  UNL     1      19.485  -0.060  52.260  1.00  0.00    -0.194 N 
HETATM    4  C4  UNL     1      20.848  -0.342  52.757  1.00  0.00     0.743 A 
HETATM    5  N2  UNL     1      20.416  -0.924  53.935  1.00  0.00    -0.071 NA
HETATM    6  C5  UNL     1      21.248  -1.333  54.860  1.00  0.00     0.168 A 
HETATM    7  C6  UNL     1      22.622  -1.200  54.707  1.00  0.00     0.077 A 
HETATM    8  C7  UNL     1      23.747  -1.424  55.353  1.00  0.00     0.035 A 
HETATM    9  C8  UNL     1      24.810  -1.014  54.627  1.00  0.00     0.030 A 
HETATM   10  C9  UNL     1      24.290  -0.496  53.406  1.00  0.00     0.041 A 
HETATM   11  N3  UNL     1      22.977  -0.628  53.518  1.00  0.00    -0.221 N 
HETATM   12  N4  UNL     1      22.122  -0.227  52.611  1.00  0.00     0.026 NA
HETATM   13  C10 UNL     1      25.194  -0.068  52.380  1.00  0.00     0.088 C 
HETATM   14  C11 UNL     1      25.500   1.292  52.143  1.00  0.00    -0.002 C 
HETATM   15  C12 UNL     1      26.835   1.714  52.507  1.00  0.00     0.112 C 
HETATM   16  N5  UNL     1      26.479   3.090  52.020  1.00  0.00    -0.277 NA
HETATM   17  C13 UNL     1      26.731   3.043  50.716  1.00  0.00     0.089 C 
HETATM   18  C14 UNL     1      26.710   3.793  49.465  1.00  0.00     0.047 C 
HETATM   19  C15 UNL     1      25.812   4.986  49.607  1.00  0.00     0.005 C 
HETATM   20  C16 UNL     1      24.840   5.218  48.542  1.00  0.00     0.002 C 
HETATM   21  C17 UNL     1      23.438   4.620  48.688  1.00  0.00     0.022 C 
HETATM   22  C18 UNL     1      22.748   5.164  49.878  1.00  0.00     0.147 C 
HETATM   23  N6  UNL     1      21.288   4.832  50.028  1.00  0.00    -0.310 N 
HETATM   24  C19 UNL     1      21.073   4.663  51.487  1.00  0.00     0.112 C 
HETATM   25  C20 UNL     1      20.622   3.645  52.267  1.00  0.00     0.057 C 
HETATM   26  H5  UNL     1      18.554  -0.555  52.274  1.00  0.00     0.183 HD
ENDROOT
BRANCH  23  27
HETATM   27  N7  UNL     1      20.946   4.898  48.773  1.00  0.00    -0.343 N 
HETATM   28  H24 UNL     1      20.728   4.085  48.221  1.00  0.00     0.177 HD
HETATM   29  H25 UNL     1      20.531   5.771  48.436  1.00  0.00     0.177 HD
ENDBRANCH  23  27
BRANCH   1  30
HETATM   30  O1  UNL     1      20.103   2.779  50.295  1.00  0.00    -0.355 OA
HETATM   31  C1  UNL     1      19.025   2.071  49.603  1.00  0.00     0.210 C 
ENDBRANCH   1  30
TORSDOF 2
ENDMDL
MODEL 2
REMARK VINA RESULT:      -7.8      1.998      5.611
REMARK  2 active torsions:
REMARK  status: ('A' for Active; 'I' for Inactive)
REMARK    1  A    between atoms: O1_2  and  C2_3 
REMARK    2  A    between atoms: N6_25  and  N7_26 
ROOT
HETATM    1  C2  UNL     1      23.305   3.453  49.350  1.00  0.00     0.085 C 
HETATM    2  C3  UNL     1      24.108   3.809  50.353  1.00  0.00     0.143 C 
HETATM    3  N1  UNL     1      25.104   3.704  51.351  1.00  0.00    -0.194 N 
HETATM    4  C4  UNL     1      24.409   2.659  52.132  1.00  0.00     0.743 A 
HETATM    5  N2  UNL     1      25.567   1.973  52.452  1.00  0.00    -0.071 NA
HETATM    6  C5  UNL     1      25.553   0.849  53.122  1.00  0.00     0.168 A 
HETATM    7  C6  UNL     1      24.362   0.277  53.551  1.00  0.00     0.077 A 
HETATM    8  C7  UNL     1      23.908  -0.787  54.179  1.00  0.00     0.035 A 
HETATM    9  C8  UNL     1      22.560  -0.768  54.250  1.00  0.00     0.030 A 
HETATM   10  C9  UNL     1      22.138   0.436  53.614  1.00  0.00     0.041 A 
HETATM   11  N3  UNL     1      23.261   1.012  53.211  1.00  0.00    -0.221 N 
HETATM   12  N4  UNL     1      23.305   2.134  52.537  1.00  0.00     0.026 NA
HETATM   13  C10 UNL     1      20.749   0.786  53.617  1.00  0.00     0.088 C 
HETATM   14  C11 UNL     1      19.906   0.593  52.499  1.00  0.00    -0.002 C 
HETATM   15  C12 UNL     1      18.912  -0.450  52.628  1.00  0.00     0.112 C 
HETATM   16  N5  UNL     1      18.443  -0.107  51.243  1.00  0.00    -0.277 NA
HETATM   17  C13 UNL     1      17.583   0.887  51.433  1.00  0.00     0.089 C 
HETATM   18  C14 UNL     1      16.677   1.828  50.783  1.00  0.00     0.047 C 
HETATM   19  C15 UNL     1      17.023   1.936  49.327  1.00  0.00     0.005 C 
HETATM   20  C16 UNL     1      17.136   3.280  48.767  1.00  0.00     0.002 C 
HETATM   21  C17 UNL     1      18.510   3.956  48.755  1.00  0.00     0.022 C 
HETATM   22  C18 UNL     1      19.474   3.185  47.940  1.00  0.00     0.147 C 
HETATM   23  N6  UNL     1      20.801   3.838  47.659  1.00  0.00    -0.310 N 
HETATM   24  C19 UNL     1      21.792   2.732  47.676  1.00  0.00     0.112 C 
HETATM   25  C20 UNL     1      22.911   2.472  48.403  1.00  0.00     0.057 C 
HETATM   26  H5  UNL     1      26.008   4.239  51.436  1.00  0.00     0.183 HD
ENDROOT
BRANCH  23  27
HETATM   27  N7  UNL     1      20.386   5.062  47.510  1.00  0.00    -0.343 N 
HETATM   28  H24 UNL     1      20.514   5.585  46.659  1.00  0.00     0.177 HD
HETATM   29  H25 UNL     1      19.609   5.378  48.096  1.00  0.00     0.177 HD
ENDBRANCH  23  27
BRANCH   1  30
HETATM   30  O1  UNL     1      22.588   4.562  49.064  1.00  0.00    -0.355 OA
HETATM   31  C1  UNL     1      23.344   5.806  49.219  1.00  0.00     0.210 C 
ENDBRANCH   1  30
TORSDOF 2
ENDMDL
MODEL 3
REMARK VINA RESULT:      -7.5      2.138      6.382
REMARK  2 active torsions:
REMARK  status: ('A' for Active; 'I' for Inactive)
REMARK    1  A    between atoms: O1_2  and  C2_3 
REMARK    2  A    between atoms: N6_25  and  N7_26 
ROOT
HETATM    1  C2  UNL     1      21.765   4.881  50.419  1.00  0.00     0.085 C 
HETATM    2  C3  UNL     1      20.990   4.911  49.335  1.00  0.00     0.143 C 
HETATM    3  N1  UNL     1      19.836   5.095  48.539  1.00  0.00    -0.194 N 
HETATM    4  C4  UNL     1      19.031   4.059  49.220  1.00  0.00     0.743 A 
HETATM    5  N2  UNL     1      17.851   4.777  49.156  1.00  0.00    -0.071 NA
HETATM    6  C5  UNL     1      16.739   4.348  49.697  1.00  0.00     0.168 A 
HETATM    7  C6  UNL     1      16.685   3.136  50.374  1.00  0.00     0.077 A 
HETATM    8  C7  UNL     1      15.847   2.384  51.057  1.00  0.00     0.035 A 
HETATM    9  C8  UNL     1      16.459   1.270  51.513  1.00  0.00     0.030 A 
HETATM   10  C9  UNL     1      17.808   1.334  51.057  1.00  0.00     0.041 A 
HETATM   11  N3  UNL     1      17.881   2.476  50.389  1.00  0.00    -0.221 N 
HETATM   12  N4  UNL     1      18.980   2.931  49.840  1.00  0.00     0.026 NA
HETATM   13  C10 UNL     1      18.689   0.232  51.306  1.00  0.00     0.088 C 
HETATM   14  C11 UNL     1      19.656   0.241  52.337  1.00  0.00    -0.002 C 
HETATM   15  C12 UNL     1      19.395  -0.636  53.458  1.00  0.00     0.112 C 
HETATM   16  N5  UNL     1      20.685  -0.163  54.065  1.00  0.00    -0.277 NA
HETATM   17  C13 UNL     1      21.604  -0.952  53.521  1.00  0.00     0.089 C 
HETATM   18  C14 UNL     1      23.028  -1.268  53.457  1.00  0.00     0.047 C 
HETATM   19  C15 UNL     1      23.824  -0.107  53.977  1.00  0.00     0.005 C 
HETATM   20  C16 UNL     1      24.959   0.336  53.171  1.00  0.00     0.002 C 
HETATM   21  C17 UNL     1      24.735   1.440  52.134  1.00  0.00     0.022 C 
HETATM   22  C18 UNL     1      24.290   2.695  52.781  1.00  0.00     0.147 C 
HETATM   23  N6  UNL     1      24.240   3.924  51.915  1.00  0.00    -0.310 N 
HETATM   24  C19 UNL     1      23.061   4.690  52.393  1.00  0.00     0.112 C 
HETATM   25  C20 UNL     1      21.917   5.135  51.807  1.00  0.00     0.057 C 
HETATM   26  H5  UNL     1      19.689   5.766  47.740  1.00  0.00     0.183 HD
ENDROOT
BRANCH  23  27
HETATM   27  N7  UNL     1      25.300   3.697  51.195  1.00  0.00    -0.343 N 
HETATM   28  H24 UNL     1      26.227   3.643  51.585  1.00  0.00     0.177 HD
HETATM   29  H25 UNL     1      25.177   3.204  50.306  1.00  0.00     0.177 HD
ENDBRANCH  23  27
BRANCH   1  30
HETATM   30  O1  UNL     1      22.981   4.496  49.972  1.00  0.00    -0.355 OA
HETATM   31  C1  UNL     1      23.301   5.002  48.635  1.00  0.00     0.210 C 
ENDBRANCH   1  30
TORSDOF 2
ENDMDL
MODEL 4
REMARK VINA RESULT:      -7.3      2.156      2.879
REMARK  2 active torsions:
REMARK  status: ('A' for Active; 'I' for Inactive)
REMARK    1  A    between atoms: O1_2  and  C2_3 
REMARK    2  A    between atoms: N6_25  and  N7_26 
ROOT
HETATM    1  C2  UNL     1      18.664   3.489  49.214  1.00  0.00     0.085 C 
HETATM    2  C3  UNL     1      18.197   2.253  49.035  1.00  0.00     0.143 C 
HETATM    3  N1  UNL     1      17.588   1.013  49.337  1.00  0.00    -0.194 N 
HETATM    4  C4  UNL     1      18.591   0.607  50.344  1.00  0.00     0.743 A 
HETATM    5  N2  UNL     1      17.666   0.020  51.188  1.00  0.00    -0.071 NA
HETATM    6  C5  UNL     1      17.999  -0.485  52.350  1.00  0.00     0.168 A 
HETATM    7  C6  UNL     1      19.312  -0.456  52.801  1.00  0.00     0.077 A 
HETATM    8  C7  UNL     1      20.040  -0.791  53.846  1.00  0.00     0.035 A 
HETATM    9  C8  UNL     1      21.332  -0.441  53.666  1.00  0.00     0.030 A 
HETATM   10  C9  UNL     1      21.413   0.158  52.375  1.00  0.00     0.041 A 
HETATM   11  N3  UNL     1      20.172   0.127  51.913  1.00  0.00    -0.221 N 
HETATM   12  N4  UNL     1      19.810   0.626  50.758  1.00  0.00     0.026 NA
HETATM   13  C10 UNL     1      22.691   0.548  51.858  1.00  0.00     0.088 C 
HETATM   14  C11 UNL     1      23.145   1.887  51.862  1.00  0.00    -0.002 C 
HETATM   15  C12 UNL     1      24.220   2.189  52.782  1.00  0.00     0.112 C 
HETATM   16  N5  UNL     1      24.184   3.605  52.281  1.00  0.00    -0.277 NA
HETATM   17  C13 UNL     1      24.964   3.584  51.206  1.00  0.00     0.089 C 
HETATM   18  C14 UNL     1      25.522   4.376  50.114  1.00  0.00     0.047 C 
HETATM   19  C15 UNL     1      24.718   5.631  49.941  1.00  0.00     0.005 C 
HETATM   20  C16 UNL     1      24.307   5.976  48.583  1.00  0.00     0.002 C 
HETATM   21  C17 UNL     1      22.945   5.486  48.083  1.00  0.00     0.022 C 
HETATM   22  C18 UNL     1      21.846   6.041  48.903  1.00  0.00     0.147 C 
HETATM   23  N6  UNL     1      20.445   5.821  48.399  1.00  0.00    -0.310 N 
HETATM   24  C19 UNL     1      19.619   5.619  49.617  1.00  0.00     0.112 C 
HETATM   25  C20 UNL     1      18.822   4.614  50.065  1.00  0.00     0.057 C 
HETATM   26  H5  UNL     1      16.713   0.593  48.925  1.00  0.00     0.183 HD
ENDROOT
BRANCH  23  27
HETATM   27  N7  UNL     1      20.675   5.957  47.125  1.00  0.00    -0.343 N 
HETATM   28  H24 UNL     1      21.549   5.703  46.695  1.00  0.00     0.177 HD
HETATM   29  H25 UNL     1      19.870   5.964  46.493  1.00  0.00     0.177 HD
ENDBRANCH  23  27
BRANCH   1  30
HETATM   30  O1  UNL     1      19.145   3.860  48.007  1.00  0.00    -0.355 OA
HETATM   31  C1  UNL     1      18.429   3.260  46.880  1.00  0.00     0.210 C 
ENDBRANCH   1  30
TORSDOF 2
ENDMDL
MODEL 5
REMARK VINA RESULT:      -7.0      2.113      6.184
REMARK  2 active torsions:
REMARK  status: ('A' for Active; 'I' for Inactive)
REMARK    1  A    between atoms: O1_2  and  C2_3 
REMARK    2  A    between atoms: N6_25  and  N7_26 
ROOT
HETATM    1  C2  UNL     1      21.038   4.500  48.406  1.00  0.00     0.085 C 
HETATM    2  C3  UNL     1      21.841   5.512  48.737  1.00  0.00     0.143 C 
HETATM    3  N1  UNL     1      23.024   6.278  48.853  1.00  0.00    -0.194 N 
HETATM    4  C4  UNL     1      23.750   5.288  49.676  1.00  0.00     0.743 A 
HETATM    5  N2  UNL     1      24.970   5.513  49.065  1.00  0.00    -0.071 NA
HETATM    6  C5  UNL     1      26.042   4.823  49.365  1.00  0.00     0.168 A 
HETATM    7  C6  UNL     1      26.009   3.816  50.320  1.00  0.00     0.077 A 
HETATM    8  C7  UNL     1      26.786   2.907  50.873  1.00  0.00     0.035 A 
HETATM    9  C8  UNL     1      26.100   2.167  51.770  1.00  0.00     0.030 A 
HETATM   10  C9  UNL     1      24.769   2.676  51.782  1.00  0.00     0.041 A 
HETATM   11  N3  UNL     1      24.778   3.655  50.889  1.00  0.00    -0.221 N 
HETATM   12  N4  UNL     1      23.721   4.360  50.568  1.00  0.00     0.026 NA
HETATM   13  C10 UNL     1      23.821   2.149  52.717  1.00  0.00     0.088 C 
HETATM   14  C11 UNL     1      22.829   1.208  52.357  1.00  0.00    -0.002 C 
HETATM   15  C12 UNL     1      23.011  -0.133  52.871  1.00  0.00     0.112 C 
HETATM   16  N5  UNL     1      21.736  -0.519  52.178  1.00  0.00    -0.277 NA
HETATM   17  C13 UNL     1      20.787  -0.196  53.050  1.00  0.00     0.089 C 
HETATM   18  C14 UNL     1      19.350  -0.170  53.302  1.00  0.00     0.047 C 
HETATM   19  C15 UNL     1      18.608  -0.289  52.003  1.00  0.00     0.005 C 
HETATM   20  C16 UNL     1      17.521   0.659  51.769  1.00  0.00     0.002 C 
HETATM   21  C17 UNL     1      17.834   1.966  51.035  1.00  0.00     0.022 C 
HETATM   22  C18 UNL     1      18.333   1.702  49.668  1.00  0.00     0.147 C 
HETATM   23  N6  UNL     1      18.476   2.891  48.756  1.00  0.00    -0.310 N 
HETATM   24  C19 UNL     1      19.683   2.613  47.938  1.00  0.00     0.112 C 
HETATM   25  C20 UNL     1      20.865   3.257  47.743  1.00  0.00     0.057 C 
HETATM   26  H5  UNL     1      23.229   7.233  48.459  1.00  0.00     0.183 HD
ENDROOT
BRANCH  23  27
HETATM   27  N7  UNL     1      17.423   3.554  49.138  1.00  0.00    -0.343 N 
HETATM   28  H24 UNL     1      17.312   3.920  50.070  1.00  0.00     0.177 HD
HETATM   29  H25 UNL     1      16.875   4.035  48.419  1.00  0.00     0.177 HD
ENDBRANCH  23  27
BRANCH   1  30
HETATM   30  O1  UNL     1      19.814   4.863  48.850  1.00  0.00    -0.355 OA
HETATM   31  C1  UNL     1      19.805   6.139  49.567  1.00  0.00     0.210 C 
ENDBRANCH   1  30
TORSDOF 2
ENDMDL
MODEL 6
REMARK VINA RESULT:      -7.0      7.189     10.567
REMARK  2 active torsions:
REMARK  status: ('A' for Active; 'I' for Inactive)
REMARK    1  A    between atoms: O1_2  and  C2_3 
REMARK    2  A    between atoms: N6_25  and  N7_26 
ROOT
HETATM    1  C2  UNL     1      27.687  11.044  47.560  1.00  0.00     0.085 C 
HETATM    2  C3  UNL     1      26.634  10.487  46.961  1.00  0.00     0.143 C 
HETATM    3  N1  UNL     1      25.423   9.772  46.810  1.00  0.00    -0.194 N 
HETATM    4  C4  UNL     1      25.958   8.487  47.309  1.00  0.00     0.743 A 
HETATM    5  N2  UNL     1      24.801   8.142  47.984  1.00  0.00    -0.071 NA
HETATM    6  C5  UNL     1      24.712   7.057  48.712  1.00  0.00     0.168 A 
HETATM    7  C6  UNL     1      25.787   6.188  48.849  1.00  0.00     0.077 A 
HETATM    8  C7  UNL     1      26.130   5.077  49.468  1.00  0.00     0.035 A 
HETATM    9  C8  UNL     1      27.411   4.748  49.196  1.00  0.00     0.030 A 
HETATM   10  C9  UNL     1      27.907   5.749  48.311  1.00  0.00     0.041 A 
HETATM   11  N3  UNL     1      26.891   6.584  48.148  1.00  0.00    -0.221 N 
HETATM   12  N4  UNL     1      26.952   7.677  47.428  1.00  0.00     0.026 NA
HETATM   13  C10 UNL     1      29.224   5.617  47.764  1.00  0.00     0.088 C 
HETATM   14  C11 UNL     1      30.336   6.337  48.257  1.00  0.00    -0.002 C 
HETATM   15  C12 UNL     1      31.326   5.562  48.973  1.00  0.00     0.112 C 
HETATM   16  N5  UNL     1      32.111   6.829  49.159  1.00  0.00    -0.277 NA
HETATM   17  C13 UNL     1      32.832   6.925  48.047  1.00  0.00     0.089 C 
HETATM   18  C14 UNL     1      33.814   7.723  47.321  1.00  0.00     0.047 C 
HETATM   19  C15 UNL     1      33.847   9.114  47.883  1.00  0.00     0.005 C 
HETATM   20  C16 UNL     1      33.798  10.219  46.928  1.00  0.00     0.002 C 
HETATM   21  C17 UNL     1      32.434  10.807  46.557  1.00  0.00     0.022 C 
HETATM   22  C18 UNL     1      31.760  11.377  47.744  1.00  0.00     0.147 C 
HETATM   23  N6  UNL     1      30.512  12.181  47.496  1.00  0.00    -0.310 N 
HETATM   24  C19 UNL     1      29.620  11.881  48.645  1.00  0.00     0.112 C 
HETATM   25  C20 UNL     1      28.370  11.360  48.764  1.00  0.00     0.057 C 
HETATM   26  H5  UNL     1      24.497  10.118  46.447  1.00  0.00     0.183 HD
ENDROOT
BRANCH  23  27
HETATM   27  N7  UNL     1      30.875  12.766  46.392  1.00  0.00    -0.343 N 
HETATM   28  H24 UNL     1      31.480  12.332  45.714  1.00  0.00     0.177 HD
HETATM   29  H25 UNL     1      30.269  13.502  46.019  1.00  0.00     0.177 HD
ENDBRANCH  23  27
BRANCH   1  30
HETATM   30  O1  UNL     1      28.384  11.636  46.565  1.00  0.00    -0.355 OA
HETATM   31  C1  UNL     1      27.539  12.188  45.504  1.00  0.00     0.210 C 
ENDBRANCH   1  30
TORSDOF 2
ENDMDL
MODEL 7
REMARK VINA RESULT:      -6.9     10.523     13.613
REMARK  2 active torsions:
REMARK  status: ('A' for Active; 'I' for Inactive)
REMARK    1  A    between atoms: O1_2  and  C2_3 
REMARK    2  A    between atoms: N6_25  and  N7_26 
ROOT
HETATM    1  C2  UNL     1      31.183   6.744  48.766  1.00  0.00     0.085 C 
HETATM    2  C3  UNL     1      31.191   7.935  49.364  1.00  0.00     0.143 C 
HETATM    3  N1  UNL     1      30.748   9.217  49.766  1.00  0.00    -0.194 N 
HETATM    4  C4  UNL     1      30.697   9.780  48.400  1.00  0.00     0.743 A 
HETATM    5  N2  UNL     1      29.549  10.517  48.629  1.00  0.00    -0.071 NA
HETATM    6  C5  UNL     1      28.964  11.214  47.687  1.00  0.00     0.168 A 
HETATM    7  C6  UNL     1      29.470  11.248  46.394  1.00  0.00     0.077 A 
HETATM    8  C7  UNL     1      29.203  11.751  45.206  1.00  0.00     0.035 A 
HETATM    9  C8  UNL     1      30.122  11.359  44.298  1.00  0.00     0.030 A 
HETATM   10  C9  UNL     1      31.058  10.542  44.996  1.00  0.00     0.041 A 
HETATM   11  N3  UNL     1      30.608  10.508  46.242  1.00  0.00    -0.221 N 
HETATM   12  N4  UNL     1      31.171   9.819  47.203  1.00  0.00     0.026 NA
HETATM   13  C10 UNL     1      32.215  10.051  44.310  1.00  0.00     0.088 C 
HETATM   14  C11 UNL     1      32.316   8.728  43.822  1.00  0.00    -0.002 C 
HETATM   15  C12 UNL     1      32.276   8.578  42.384  1.00  0.00     0.112 C 
HETATM   16  N5  UNL     1      32.428   7.097  42.583  1.00  0.00    -0.277 NA
HETATM   17  C13 UNL     1      33.741   6.919  42.675  1.00  0.00     0.089 C 
HETATM   18  C14 UNL     1      34.808   5.941  42.863  1.00  0.00     0.047 C 
HETATM   19  C15 UNL     1      34.241   4.686  43.457  1.00  0.00     0.005 C 
HETATM   20  C16 UNL     1      34.946   4.113  44.601  1.00  0.00     0.002 C 
HETATM   21  C17 UNL     1      34.512   4.525  46.010  1.00  0.00     0.022 C 
HETATM   22  C18 UNL     1      33.108   4.137  46.269  1.00  0.00     0.147 C 
HETATM   23  N6  UNL     1      32.614   4.283  47.683  1.00  0.00    -0.310 N 
HETATM   24  C19 UNL     1      31.196   4.705  47.559  1.00  0.00     0.112 C 
HETATM   25  C20 UNL     1      30.487   5.784  47.986  1.00  0.00     0.057 C 
HETATM   26  H5  UNL     1      30.553   9.569  50.739  1.00  0.00     0.183 HD
ENDROOT
BRANCH  23  27
HETATM   27  N7  UNL     1      33.699   3.923  48.305  1.00  0.00    -0.343 N 
HETATM   28  H24 UNL     1      33.702   3.589  49.256  1.00  0.00     0.177 HD
HETATM   29  H25 UNL     1      34.495   3.617  47.739  1.00  0.00     0.177 HD
ENDBRANCH  23  27
BRANCH   1  30
HETATM   30  O1  UNL     1      32.347   6.161  49.129  1.00  0.00    -0.355 OA
HETATM   31  C1  UNL     1      33.496   7.067  49.086  1.00  0.00     0.210 C 
ENDBRANCH   1  30
TORSDOF 2
ENDMDL
MODEL 8
REMARK VINA RESULT:      -6.8      9.606     13.145
REMARK  2 active torsions:
REMARK  status: ('A' for Active; 'I' for Inactive)
REMARK    1  A    between atoms: O1_2  and  C2_3 
REMARK    2  A    between atoms: N6_25  and  N7_26 
ROOT
HETATM    1  C2  UNL     1      31.769   6.292  48.462  1.00  0.00     0.085 C 
HETATM    2  C3  UNL     1      31.818   5.061  47.950  1.00  0.00     0.143 C 
HETATM    3  N1  UNL     1      32.360   3.893  47.367  1.00  0.00    -0.194 N 
HETATM    4  C4  UNL     1      32.793   4.550  46.115  1.00  0.00     0.743 A 
HETATM    5  N2  UNL     1      33.965   3.823  46.011  1.00  0.00    -0.071 NA
HETATM    6  C5  UNL     1      34.842   4.040  45.062  1.00  0.00     0.168 A 
HETATM    7  C6  UNL     1      34.640   5.025  44.103  1.00  0.00     0.077 A 
HETATM    8  C7  UNL     1      35.233   5.573  43.063  1.00  0.00     0.035 A 
HETATM    9  C8  UNL     1      34.482   6.572  42.551  1.00  0.00     0.030 A 
HETATM   10  C9  UNL     1      33.301   6.639  43.346  1.00  0.00     0.041 A 
HETATM   11  N3  UNL     1      33.460   5.694  44.261  1.00  0.00    -0.221 N 
HETATM   12  N4  UNL     1      32.601   5.456  45.221  1.00  0.00     0.026 NA
HETATM   13  C10 UNL     1      32.257   7.551  42.982  1.00  0.00     0.088 C 
HETATM   14  C11 UNL     1      32.059   8.790  43.632  1.00  0.00    -0.002 C 
HETATM   15  C12 UNL     1      32.385   9.970  42.861  1.00  0.00     0.112 C 
HETATM   16  N5  UNL     1      31.963  10.798  44.040  1.00  0.00    -0.277 NA
HETATM   17  C13 UNL     1      30.649  10.928  43.887  1.00  0.00     0.089 C 
HETATM   18  C14 UNL     1      29.428  11.493  44.450  1.00  0.00     0.047 C 
HETATM   19  C15 UNL     1      29.648  11.831  45.895  1.00  0.00     0.005 C 
HETATM   20  C16 UNL     1      28.631  11.388  46.846  1.00  0.00     0.002 C 
HETATM   21  C17 UNL     1      28.809  10.029  47.528  1.00  0.00     0.022 C 
HETATM   22  C18 UNL     1      30.045  10.000  48.341  1.00  0.00     0.147 C 
HETATM   23  N6  UNL     1      30.239   8.808  49.239  1.00  0.00    -0.310 N 
HETATM   24  C19 UNL     1      31.698   8.536  49.218  1.00  0.00     0.112 C 
HETATM   25  C20 UNL     1      32.458   7.463  48.869  1.00  0.00     0.057 C 
HETATM   26  H5  UNL     1      32.393   2.916  47.761  1.00  0.00     0.183 HD
ENDROOT
BRANCH  23  27
HETATM   27  N7  UNL     1      29.002   8.642  49.610  1.00  0.00    -0.343 N 
HETATM   28  H24 UNL     1      28.349   9.403  49.698  1.00  0.00     0.177 HD
HETATM   29  H25 UNL     1      28.576   7.725  49.454  1.00  0.00     0.177 HD
ENDBRANCH  23  27
BRANCH   1  30
HETATM   30  O1  UNL     1      30.477   6.472  48.817  1.00  0.00    -0.355 OA
HETATM   31  C1  UNL     1      29.549   5.571  48.131  1.00  0.00     0.210 C 
ENDBRANCH   1  30
TORSDOF 2
ENDMDL
MODEL 9
REMARK VINA RESULT:      -6.8     10.819     14.858
REMARK  2 active torsions:
REMARK  status: ('A' for Active; 'I' for Inactive)
REMARK    1  A    between atoms: O1_2  and  C2_3 
REMARK    2  A    between atoms: N6_25  and  N7_26 
ROOT
HETATM    1  C2  UNL     1      33.765   5.436  46.714  1.00  0.00     0.085 C 
HETATM    2  C3  UNL     1      33.726   4.848  45.518  1.00  0.00     0.143 C 
HETATM    3  N1  UNL     1      34.143   4.447  44.227  1.00  0.00    -0.194 N 
HETATM    4  C4  UNL     1      34.219   5.816  43.674  1.00  0.00     0.743 A 
HETATM    5  N2  UNL     1      35.351   5.565  42.920  1.00  0.00    -0.071 NA
HETATM    6  C5  UNL     1      35.950   6.498  42.223  1.00  0.00     0.168 A 
HETATM    7  C6  UNL     1      35.476   7.804  42.206  1.00  0.00     0.077 A 
HETATM    8  C7  UNL     1      35.764   8.988  41.709  1.00  0.00     0.035 A 
HETATM    9  C8  UNL     1      34.873   9.915  42.120  1.00  0.00     0.030 A 
HETATM   10  C9  UNL     1      33.932   9.233  42.945  1.00  0.00     0.041 A 
HETATM   11  N3  UNL     1      34.351   7.977  42.963  1.00  0.00    -0.221 N 
HETATM   12  N4  UNL     1      33.775   7.024  43.652  1.00  0.00     0.026 NA
HETATM   13  C10 UNL     1      32.798   9.944  43.457  1.00  0.00     0.088 C 
HETATM   14  C11 UNL     1      32.727  10.422  44.785  1.00  0.00    -0.002 C 
HETATM   15  C12 UNL     1      32.804  11.858  44.946  1.00  0.00     0.112 C 
HETATM   16  N5  UNL     1      32.667  11.650  46.427  1.00  0.00    -0.277 NA
HETATM   17  C13 UNL     1      31.354  11.589  46.622  1.00  0.00     0.089 C 
HETATM   18  C14 UNL     1      30.296  11.419  47.612  1.00  0.00     0.047 C 
HETATM   19  C15 UNL     1      30.865  10.801  48.855  1.00  0.00     0.005 C 
HETATM   20  C16 UNL     1      30.140   9.670  49.428  1.00  0.00     0.002 C 
HETATM   21  C17 UNL     1      30.534   8.254  48.999  1.00  0.00     0.022 C 
HETATM   22  C18 UNL     1      31.936   7.957  49.367  1.00  0.00     0.147 C 
HETATM   23  N6  UNL     1      32.395   6.533  49.203  1.00  0.00    -0.310 N 
HETATM   24  C19 UNL     1      33.809   6.627  48.762  1.00  0.00     0.112 C 
HETATM   25  C20 UNL     1      34.493   6.191  47.670  1.00  0.00     0.057 C 
HETATM   26  H5  UNL     1      34.310   3.472  43.865  1.00  0.00     0.183 HD
ENDROOT
BRANCH  23  27
HETATM   27  N7  UNL     1      31.300   5.934  49.572  1.00  0.00    -0.343 N 
HETATM   28  H24 UNL     1      30.428   6.420  49.711  1.00  0.00     0.177 HD
HETATM   29  H25 UNL     1      31.207   4.937  49.364  1.00  0.00     0.177 HD
ENDBRANCH  23  27
BRANCH   1  30
HETATM   30  O1  UNL     1      32.600   5.097  47.310  1.00  0.00    -0.355 OA
HETATM   31  C1  UNL     1      32.132   3.754  46.960  1.00  0.00     0.210 C 
ENDBRANCH   1  30
TORSDOF 2
ENDMDL
