MODEL 1
REMARK VINA RESULT:     -10.1      0.000      0.000
REMARK  4 active torsions:
REMARK  status: ('A' for Active; 'I' for Inactive)
REMARK    1  A    between atoms: C2_2  and  C3_3 
REMARK    2  A    between atoms: C3_3  and  O1_4 
REMARK    3  A    between atoms: O1_4  and  C4_5 
REMARK    4  A    between atoms: C10_11  and  C11_12 
ROOT
HETATM    1  C4  UNL     1      27.155   1.469  53.831  1.00  0.00     0.141 C 
HETATM    2  C5  UNL     1      25.750   0.986  54.553  1.00  0.00     0.040 C 
HETATM    3  C6  UNL     1      25.961   0.143  53.485  1.00  0.00     0.035 A 
HETATM    4  C7  UNL     1      26.461  -0.342  52.119  1.00  0.00     0.025 A 
HETATM    5  C8  UNL     1      26.584   0.850  52.606  1.00  0.00     0.024 A 
HETATM    6  C9  UNL     1      25.659   1.870  51.764  1.00  0.00    -0.004 C 
HETATM    7  C10 UNL     1      24.267   1.637  51.476  1.00  0.00    -0.035 C 
HETATM    8  C13 UNL     1      23.508   0.609  52.340  1.00  0.00     0.019 A 
HETATM    9  C14 UNL     1      24.316  -0.148  53.450  1.00  0.00     0.076 A 
HETATM   10  O4  UNL     1      23.368  -0.848  54.079  1.00  0.00    -0.308 OA
HETATM   11  C15 UNL     1      22.234  -0.583  53.483  1.00  0.00     0.141 A 
HETATM   12  C16 UNL     1      22.226   0.295  52.410  1.00  0.00     0.066 A 
HETATM   13  C17 UNL     1      21.156   0.739  51.611  1.00  0.00     0.197 A 
HETATM   14  O5  UNL     1      21.264   1.529  50.672  1.00  0.00    -0.286 OA
HETATM   15  C18 UNL     1      19.861   0.175  51.986  1.00  0.00     0.029 A 
HETATM   16  C19 UNL     1      18.723   0.531  51.279  1.00  0.00     0.016 A 
HETATM   17  C20 UNL     1      17.496   0.006  51.624  1.00  0.00     0.001 A 
HETATM   18  C21 UNL     1      17.477  -0.870  52.689  1.00  0.00     0.001 A 
HETATM   19  C22 UNL     1      18.576  -1.258  53.426  1.00  0.00     0.016 A 
HETATM   20  C23 UNL     1      19.793  -0.723  53.064  1.00  0.00     0.031 A 
HETATM   21  C24 UNL     1      20.960  -1.154  53.872  1.00  0.00     0.217 A 
HETATM   22  O6  UNL     1      20.872  -1.945  54.815  1.00  0.00    -0.284 OA
ENDROOT
BRANCH   1  23
HETATM   23  O1  UNL     1      28.167   0.886  54.408  1.00  0.00    -0.384 OA
BRANCH  23  24
HETATM   24  C3  UNL     1      29.458   1.218  54.205  1.00  0.00     0.168 C 
BRANCH  24  25
HETATM   25  C2  UNL     1      30.138   0.112  53.419  1.00  0.00     0.022 C 
HETATM   26  C1  UNL     1      29.534  -1.228  53.772  1.00  0.00     0.007 C 
ENDBRANCH  24  25
ENDBRANCH  23  24
ENDBRANCH   1  23
BRANCH   7  27
HETATM   27  C11 UNL     1      23.489   2.247  50.524  1.00  0.00     0.030 A 
HETATM   28  O2  UNL     1      23.973   3.220  49.898  1.00  0.00     0.000 OA
HETATM   29  C12 UNL     1      23.275   4.012  48.825  1.00  0.00     0.000 A 
HETATM   30  O3  UNL     1      24.021   3.317  49.835  1.00  0.00     0.000 OA
ENDBRANCH   7  27
TORSDOF 4
ENDMDL
MODEL 2
REMARK VINA RESULT:      -9.6      2.411      6.051
REMARK  4 active torsions:
REMARK  status: ('A' for Active; 'I' for Inactive)
REMARK    1  A    between atoms: C2_2  and  C3_3 
REMARK    2  A    between atoms: C3_3  and  O1_4 
REMARK    3  A    between atoms: O1_4  and  C4_5 
REMARK    4  A    between atoms: C10_11  and  C11_12 
ROOT
HETATM    1  C4  UNL     1      26.103  -1.010  53.020  1.00  0.00     0.141 C 
HETATM    2  C5  UNL     1      26.569  -0.134  51.700  1.00  0.00     0.040 C 
HETATM    3  C6  UNL     1      26.642   0.710  52.786  1.00  0.00     0.035 A 
HETATM    4  C7  UNL     1      26.331   1.297  54.167  1.00  0.00     0.025 A 
HETATM    5  C8  UNL     1      25.725   0.306  53.596  1.00  0.00     0.024 A 
HETATM    6  C9  UNL     1      24.222   0.749  53.209  1.00  0.00    -0.004 C 
HETATM    7  C10 UNL     1      23.903   1.954  52.488  1.00  0.00    -0.035 C 
HETATM    8  C13 UNL     1      25.026   2.638  51.682  1.00  0.00     0.019 A 
HETATM    9  C14 UNL     1      26.456   1.997  51.737  1.00  0.00     0.076 A 
HETATM   10  O4  UNL     1      27.143   2.734  50.859  1.00  0.00    -0.308 OA
HETATM   11  C15 UNL     1      26.317   3.629  50.379  1.00  0.00     0.141 A 
HETATM   12  C16 UNL     1      25.006   3.645  50.827  1.00  0.00     0.066 A 
HETATM   13  C17 UNL     1      23.938   4.492  50.474  1.00  0.00     0.197 A 
HETATM   14  O5  UNL     1      22.800   4.416  50.940  1.00  0.00    -0.286 OA
HETATM   15  C18 UNL     1      24.288   5.505  49.480  1.00  0.00     0.029 A 
HETATM   16  C19 UNL     1      23.328   6.404  49.044  1.00  0.00     0.016 A 
HETATM   17  C20 UNL     1      23.645   7.364  48.107  1.00  0.00     0.001 A 
HETATM   18  C21 UNL     1      24.945   7.369  47.645  1.00  0.00     0.001 A 
HETATM   19  C22 UNL     1      25.939   6.500  48.043  1.00  0.00     0.016 A 
HETATM   20  C23 UNL     1      25.601   5.549  48.981  1.00  0.00     0.031 A 
HETATM   21  C24 UNL     1      26.686   4.626  49.394  1.00  0.00     0.217 A 
HETATM   22  O6  UNL     1      27.832   4.687  48.939  1.00  0.00    -0.284 OA
ENDROOT
BRANCH   1  23
HETATM   23  O1  UNL     1      27.133  -1.634  53.517  1.00  0.00    -0.384 OA
BRANCH  23  24
HETATM   24  C3  UNL     1      27.919  -2.485  52.827  1.00  0.00     0.168 C 
BRANCH  24  25
HETATM   25  C2  UNL     1      29.336  -2.400  53.364  1.00  0.00     0.022 C 
HETATM   26  C1  UNL     1      29.758  -0.955  53.497  1.00  0.00     0.007 C 
ENDBRANCH  24  25
ENDBRANCH  23  24
ENDBRANCH   1  23
BRANCH   7  27
HETATM   27  C11 UNL     1      22.686   2.582  52.393  1.00  0.00     0.030 A 
HETATM   28  O2  UNL     1      21.650   1.899  52.572  1.00  0.00     0.000 OA
HETATM   29  C12 UNL     1      20.236   2.408  52.507  1.00  0.00     0.000 A 
HETATM   30  O3  UNL     1      21.547   1.831  52.590  1.00  0.00     0.000 OA
ENDBRANCH   7  27
TORSDOF 4
ENDMDL
MODEL 3
REMARK VINA RESULT:      -8.9      2.037      2.770
REMARK  4 active torsions:
REMARK  status: ('A' for Active; 'I' for Inactive)
REMARK    1  A    between atoms: C2_2  and  C3_3 
REMARK    2  A    between atoms: C3_3  and  O1_4 
REMARK    3  A    between atoms: O1_4  and  C4_5 
REMARK    4  A    between atoms: C10_11  and  C11_12 
ROOT
HETATM    1  C4  UNL     1      27.559   0.841  53.813  1.00  0.00     0.141 C 
HETATM    2  C5  UNL     1      25.987   1.082  54.258  1.00  0.00     0.040 C 
HETATM    3  C6  UNL     1      25.965   0.337  53.100  1.00  0.00     0.035 A 
HETATM    4  C7  UNL     1      26.422  -0.224  51.748  1.00  0.00     0.025 A 
HETATM    5  C8  UNL     1      27.011   0.698  52.439  1.00  0.00     0.024 A 
HETATM    6  C9  UNL     1      26.883   2.110  51.669  1.00  0.00    -0.004 C 
HETATM    7  C10 UNL     1      25.640   2.640  51.169  1.00  0.00    -0.035 C 
HETATM    8  C13 UNL     1      24.325   2.074  51.744  1.00  0.00     0.019 A 
HETATM    9  C14 UNL     1      24.429   0.926  52.806  1.00  0.00     0.076 A 
HETATM   10  O4  UNL     1      23.158   0.756  53.182  1.00  0.00    -0.308 OA
HETATM   11  C15 UNL     1      22.438   1.607  52.497  1.00  0.00     0.141 A 
HETATM   12  C16 UNL     1      23.067   2.449  51.595  1.00  0.00     0.066 A 
HETATM   13  C17 UNL     1      22.527   3.438  50.750  1.00  0.00     0.197 A 
HETATM   14  O5  UNL     1      23.187   4.137  49.979  1.00  0.00    -0.286 OA
HETATM   15  C18 UNL     1      21.077   3.582  50.856  1.00  0.00     0.029 A 
HETATM   16  C19 UNL     1      20.419   4.521  50.078  1.00  0.00     0.016 A 
HETATM   17  C20 UNL     1      19.051   4.667  50.169  1.00  0.00     0.001 A 
HETATM   18  C21 UNL     1      18.401   3.839  51.061  1.00  0.00     0.001 A 
HETATM   19  C22 UNL     1      19.005   2.889  51.858  1.00  0.00     0.016 A 
HETATM   20  C23 UNL     1      20.372   2.760  51.751  1.00  0.00     0.031 A 
HETATM   21  C24 UNL     1      20.999   1.733  52.618  1.00  0.00     0.217 A 
HETATM   22  O6  UNL     1      20.355   1.023  53.396  1.00  0.00    -0.284 OA
ENDROOT
BRANCH   1  23
HETATM   23  O1  UNL     1      28.025  -0.219  54.410  1.00  0.00    -0.384 OA
BRANCH  23  24
HETATM   24  C3  UNL     1      29.336  -0.511  54.539  1.00  0.00     0.168 C 
BRANCH  24  25
HETATM   25  C2  UNL     1      29.785  -1.319  53.335  1.00  0.00     0.022 C 
HETATM   26  C1  UNL     1      28.943  -2.567  53.199  1.00  0.00     0.007 C 
ENDBRANCH  24  25
ENDBRANCH  23  24
ENDBRANCH   1  23
BRANCH   7  27
HETATM   27  C11 UNL     1      25.461   3.635  50.241  1.00  0.00     0.030 A 
HETATM   28  O2  UNL     1      26.467   4.272  49.851  1.00  0.00     0.000 OA
HETATM   29  C12 UNL     1      26.468   5.391  48.846  1.00  0.00     0.000 A 
HETATM   30  O3  UNL     1      26.568   4.335  49.812  1.00  0.00     0.000 OA
ENDBRANCH   7  27
TORSDOF 4
ENDMDL
MODEL 4
REMARK VINA RESULT:      -8.9      1.778      7.185
REMARK  4 active torsions:
REMARK  status: ('A' for Active; 'I' for Inactive)
REMARK    1  A    between atoms: C2_2  and  C3_3 
REMARK    2  A    between atoms: C3_3  and  O1_4 
REMARK    3  A    between atoms: O1_4  and  C4_5 
REMARK    4  A    between atoms: C10_11  and  C11_12 
ROOT
HETATM    1  C4  UNL     1      19.761   0.445  51.455  1.00  0.00     0.141 C 
HETATM    2  C5  UNL     1      21.198  -0.368  51.429  1.00  0.00     0.040 C 
HETATM    3  C6  UNL     1      20.993   0.041  52.728  1.00  0.00     0.035 A 
HETATM    4  C7  UNL     1      20.479   0.884  53.901  1.00  0.00     0.025 A 
HETATM    5  C8  UNL     1      20.325   1.139  52.642  1.00  0.00     0.024 A 
HETATM    6  C9  UNL     1      21.193   2.442  52.249  1.00  0.00    -0.004 C 
HETATM    7  C10 UNL     1      22.586   2.605  52.581  1.00  0.00    -0.035 C 
HETATM    8  C13 UNL     1      23.401   1.346  52.939  1.00  0.00     0.019 A 
HETATM    9  C14 UNL     1      22.646  -0.028  52.961  1.00  0.00     0.076 A 
HETATM   10  O4  UNL     1      23.633  -0.903  53.175  1.00  0.00    -0.308 OA
HETATM   11  C15 UNL     1      24.743  -0.216  53.268  1.00  0.00     0.141 A 
HETATM   12  C16 UNL     1      24.694   1.163  53.138  1.00  0.00     0.066 A 
HETATM   13  C17 UNL     1      25.729   2.116  53.198  1.00  0.00     0.197 A 
HETATM   14  O5  UNL     1      25.571   3.331  53.068  1.00  0.00    -0.286 OA
HETATM   15  C18 UNL     1      27.051   1.541  53.434  1.00  0.00     0.029 A 
HETATM   16  C19 UNL     1      28.159   2.370  53.515  1.00  0.00     0.016 A 
HETATM   17  C20 UNL     1      29.412   1.841  53.737  1.00  0.00     0.001 A 
HETATM   18  C21 UNL     1      29.487   0.469  53.870  1.00  0.00     0.001 A 
HETATM   19  C22 UNL     1      28.420  -0.401  53.799  1.00  0.00     0.016 A 
HETATM   20  C23 UNL     1      27.177   0.149  53.577  1.00  0.00     0.031 A 
HETATM   21  C24 UNL     1      26.045  -0.806  53.504  1.00  0.00     0.217 A 
HETATM   22  O6  UNL     1      26.183  -2.026  53.633  1.00  0.00    -0.284 OA
ENDROOT
BRANCH   1  23
HETATM   23  O1  UNL     1      18.784  -0.398  51.634  1.00  0.00    -0.384 OA
BRANCH  23  24
HETATM   24  C3  UNL     1      17.497  -0.047  51.836  1.00  0.00     0.168 C 
BRANCH  24  25
HETATM   25  C2  UNL     1      16.816  -1.117  52.669  1.00  0.00     0.022 C 
HETATM   26  C1  UNL     1      17.847  -1.946  53.401  1.00  0.00     0.007 C 
ENDBRANCH  24  25
ENDBRANCH  23  24
ENDBRANCH   1  23
BRANCH   7  27
HETATM   27  C11 UNL     1      23.318   3.766  52.592  1.00  0.00     0.030 A 
HETATM   28  O2  UNL     1      23.137   4.591  51.666  1.00  0.00     0.000 OA
HETATM   29  C12 UNL     1      23.844   5.911  51.509  1.00  0.00     0.000 A 
HETATM   30  O3  UNL     1      23.118   4.674  51.574  1.00  0.00     0.000 OA
ENDBRANCH   7  27
TORSDOF 4
ENDMDL
MODEL 5
REMARK VINA RESULT:      -8.8      2.858      7.376
REMARK  4 active torsions:
REMARK  status: ('A' for Active; 'I' for Inactive)
REMARK    1  A    between atoms: C2_2  and  C3_3 
REMARK    2  A    between atoms: C3_3  and  O1_4 
REMARK    3  A    between atoms: O1_4  and  C4_5 
REMARK    4  A    between atoms: C10_11  and  C11_12 
ROOT
HETATM    1  C4  UNL     1      21.157   2.405  48.210  1.00  0.00     0.141 C 
HETATM    2  C5  UNL     1      21.761   1.287  49.265  1.00  0.00     0.040 C 
HETATM    3  C6  UNL     1      21.654   2.473  49.957  1.00  0.00     0.035 A 
HETATM    4  C7  UNL     1      21.599   3.984  50.211  1.00  0.00     0.025 A 
HETATM    5  C8  UNL     1      21.836   3.400  49.081  1.00  0.00     0.024 A 
HETATM    6  C9  UNL     1      23.373   3.654  48.658  1.00  0.00    -0.004 C 
HETATM    7  C10 UNL     1      24.493   3.421  49.534  1.00  0.00    -0.035 C 
HETATM    8  C13 UNL     1      24.282   2.506  50.757  1.00  0.00     0.019 A 
HETATM    9  C14 UNL     1      22.846   1.922  50.991  1.00  0.00     0.076 A 
HETATM   10  O4  UNL     1      23.028   1.097  52.026  1.00  0.00    -0.308 OA
HETATM   11  C15 UNL     1      24.293   1.166  52.354  1.00  0.00     0.141 A 
HETATM   12  C16 UNL     1      25.131   2.002  51.635  1.00  0.00     0.066 A 
HETATM   13  C17 UNL     1      26.509   2.253  51.786  1.00  0.00     0.197 A 
HETATM   14  O5  UNL     1      27.161   3.026  51.083  1.00  0.00    -0.286 OA
HETATM   15  C18 UNL     1      27.131   1.506  52.876  1.00  0.00     0.029 A 
HETATM   16  C19 UNL     1      28.485   1.660  53.133  1.00  0.00     0.016 A 
HETATM   17  C20 UNL     1      29.085   0.960  54.158  1.00  0.00     0.001 A 
HETATM   18  C21 UNL     1      28.270   0.119  54.890  1.00  0.00     0.001 A 
HETATM   19  C22 UNL     1      26.921  -0.072  54.678  1.00  0.00     0.016 A 
HETATM   20  C23 UNL     1      26.342   0.638  53.649  1.00  0.00     0.031 A 
HETATM   21  C24 UNL     1      24.890   0.415  53.440  1.00  0.00     0.217 A 
HETATM   22  O6  UNL     1      24.220  -0.354  54.135  1.00  0.00    -0.284 OA
ENDROOT
BRANCH   1  23
HETATM   23  O1  UNL     1      19.855   2.357  48.219  1.00  0.00    -0.384 OA
BRANCH  23  24
HETATM   24  C3  UNL     1      19.053   3.202  47.540  1.00  0.00     0.168 C 
BRANCH  24  25
HETATM   25  C2  UNL     1      17.923   3.651  48.447  1.00  0.00     0.022 C 
HETATM   26  C1  UNL     1      18.237   5.002  49.045  1.00  0.00     0.007 C 
ENDBRANCH  24  25
ENDBRANCH  23  24
ENDBRANCH   1  23
BRANCH   7  27
HETATM   27  C11 UNL     1      25.774   3.897  49.407  1.00  0.00     0.030 A 
HETATM   28  O2  UNL     1      25.937   5.043  48.927  1.00  0.00     0.000 OA
HETATM   29  C12 UNL     1      27.260   5.729  48.711  1.00  0.00     0.000 A 
HETATM   30  O3  UNL     1      25.954   5.158  48.880  1.00  0.00     0.000 OA
ENDBRANCH   7  27
TORSDOF 4
ENDMDL
MODEL 6
REMARK VINA RESULT:      -8.8      2.278      4.822
REMARK  4 active torsions:
REMARK  status: ('A' for Active; 'I' for Inactive)
REMARK    1  A    between atoms: C2_2  and  C3_3 
REMARK    2  A    between atoms: C3_3  and  O1_4 
REMARK    3  A    between atoms: O1_4  and  C4_5 
REMARK    4  A    between atoms: C10_11  and  C11_12 
ROOT
HETATM    1  C4  UNL     1      24.924   3.893  49.581  1.00  0.00     0.141 C 
HETATM    2  C5  UNL     1      23.491   3.192  49.153  1.00  0.00     0.040 C 
HETATM    3  C6  UNL     1      23.243   3.962  50.268  1.00  0.00     0.035 A 
HETATM    4  C7  UNL     1      23.504   4.700  51.586  1.00  0.00     0.025 A 
HETATM    5  C8  UNL     1      24.339   3.947  50.946  1.00  0.00     0.024 A 
HETATM    6  C9  UNL     1      24.605   2.601  51.794  1.00  0.00    -0.004 C 
HETATM    7  C10 UNL     1      23.556   1.768  52.325  1.00  0.00    -0.035 C 
HETATM    8  C13 UNL     1      22.143   1.906  51.722  1.00  0.00     0.019 A 
HETATM    9  C14 UNL     1      21.933   2.978  50.597  1.00  0.00     0.076 A 
HETATM   10  O4  UNL     1      20.671   2.760  50.215  1.00  0.00    -0.308 OA
HETATM   11  C15 UNL     1      20.212   1.778  50.947  1.00  0.00     0.141 A 
HETATM   12  C16 UNL     1      21.041   1.198  51.893  1.00  0.00     0.066 A 
HETATM   13  C17 UNL     1      20.792   0.144  52.793  1.00  0.00     0.197 A 
HETATM   14  O5  UNL     1      21.611  -0.296  53.601  1.00  0.00    -0.286 OA
HETATM   15  C18 UNL     1      19.443  -0.411  52.698  1.00  0.00     0.029 A 
HETATM   16  C19 UNL     1      19.067  -1.455  53.528  1.00  0.00     0.016 A 
HETATM   17  C20 UNL     1      17.798  -1.987  53.447  1.00  0.00     0.001 A 
HETATM   18  C21 UNL     1      16.952  -1.427  52.512  1.00  0.00     0.001 A 
HETATM   19  C22 UNL     1      17.274  -0.389  51.662  1.00  0.00     0.016 A 
HETATM   20  C23 UNL     1      18.547   0.128  51.760  1.00  0.00     0.031 A 
HETATM   21  C24 UNL     1      18.870   1.243  50.836  1.00  0.00     0.217 A 
HETATM   22  O6  UNL     1      18.062   1.698  50.021  1.00  0.00    -0.284 OA
ENDROOT
BRANCH   1  23
HETATM   23  O1  UNL     1      25.080   5.008  48.925  1.00  0.00    -0.384 OA
BRANCH  23  24
HETATM   24  C3  UNL     1      26.237   5.696  48.850  1.00  0.00     0.168 C 
BRANCH  24  25
HETATM   25  C2  UNL     1      27.395   4.717  48.802  1.00  0.00     0.022 C 
HETATM   26  C1  UNL     1      28.625   5.389  48.236  1.00  0.00     0.007 C 
ENDBRANCH  24  25
ENDBRANCH  23  24
ENDBRANCH   1  23
BRANCH   7  27
HETATM   27  C11 UNL     1      23.653   0.815  53.307  1.00  0.00     0.030 A 
HETATM   28  O2  UNL     1      24.779   0.315  53.540  1.00  0.00     0.000 OA
HETATM   29  C12 UNL     1      25.079  -0.738  54.572  1.00  0.00     0.000 A 
HETATM   30  O3  UNL     1      24.891   0.265  53.564  1.00  0.00     0.000 OA
ENDBRANCH   7  27
TORSDOF 4
ENDMDL
MODEL 7
REMARK VINA RESULT:      -8.7      2.053      7.817
REMARK  4 active torsions:
REMARK  status: ('A' for Active; 'I' for Inactive)
REMARK    1  A    between atoms: C2_2  and  C3_3 
REMARK    2  A    between atoms: C3_3  and  O1_4 
REMARK    3  A    between atoms: O1_4  and  C4_5 
REMARK    4  A    between atoms: C10_11  and  C11_12 
ROOT
HETATM    1  C4  UNL     1      20.064   2.955  49.792  1.00  0.00     0.141 C 
HETATM    2  C5  UNL     1      21.539   3.554  50.231  1.00  0.00     0.040 C 
HETATM    3  C6  UNL     1      21.771   2.384  49.542  1.00  0.00     0.035 A 
HETATM    4  C7  UNL     1      21.523   0.981  48.977  1.00  0.00     0.025 A 
HETATM    5  C8  UNL     1      20.749   1.637  49.781  1.00  0.00     0.024 A 
HETATM    6  C9  UNL     1      20.745   0.919  51.226  1.00  0.00    -0.004 C 
HETATM    7  C10 UNL     1      21.941   0.555  51.942  1.00  0.00    -0.035 C 
HETATM    8  C13 UNL     1      23.265   1.237  51.542  1.00  0.00     0.019 A 
HETATM    9  C14 UNL     1      23.228   2.254  50.349  1.00  0.00     0.076 A 
HETATM   10  O4  UNL     1      24.471   2.746  50.343  1.00  0.00    -0.308 OA
HETATM   11  C15 UNL     1      25.122   2.156  51.312  1.00  0.00     0.141 A 
HETATM   12  C16 UNL     1      24.465   1.220  52.094  1.00  0.00     0.066 A 
HETATM   13  C17 UNL     1      24.934   0.456  53.180  1.00  0.00     0.197 A 
HETATM   14  O5  UNL     1      24.255  -0.356  53.810  1.00  0.00    -0.286 OA
HETATM   15  C18 UNL     1      26.333   0.704  53.519  1.00  0.00     0.029 A 
HETATM   16  C19 UNL     1      26.920   0.018  54.571  1.00  0.00     0.016 A 
HETATM   17  C20 UNL     1      28.239   0.243  54.901  1.00  0.00     0.001 A 
HETATM   18  C21 UNL     1      28.916   1.172  54.137  1.00  0.00     0.001 A 
HETATM   19  C22 UNL     1      28.383   1.882  53.082  1.00  0.00     0.016 A 
HETATM   20  C23 UNL     1      27.063   1.641  52.769  1.00  0.00     0.031 A 
HETATM   21  C24 UNL     1      26.512   2.417  51.631  1.00  0.00     0.217 A 
HETATM   22  O6  UNL     1      27.176   3.234  50.988  1.00  0.00    -0.284 OA
ENDROOT
BRANCH   1  23
HETATM   23  O1  UNL     1      19.700   3.477  48.654  1.00  0.00    -0.384 OA
BRANCH  23  24
HETATM   24  C3  UNL     1      19.001   4.623  48.527  1.00  0.00     0.168 C 
BRANCH  24  25
HETATM   25  C2  UNL     1      19.471   5.356  47.284  1.00  0.00     0.022 C 
HETATM   26  C1  UNL     1      20.333   4.448  46.436  1.00  0.00     0.007 C 
ENDBRANCH  24  25
ENDBRANCH  23  24
ENDBRANCH   1  23
BRANCH   7  27
HETATM   27  C11 UNL     1      22.061  -0.326  52.988  1.00  0.00     0.030 A 
HETATM   28  O2  UNL     1      21.019  -0.851  53.445  1.00  0.00     0.000 OA
HETATM   29  C12 UNL     1      20.952  -1.833  54.583  1.00  0.00     0.000 A 
HETATM   30  O3  UNL     1      20.915  -0.904  53.490  1.00  0.00     0.000 OA
ENDBRANCH   7  27
TORSDOF 4
ENDMDL
MODEL 8
REMARK VINA RESULT:      -8.4      2.588      5.885
REMARK  4 active torsions:
REMARK  status: ('A' for Active; 'I' for Inactive)
REMARK    1  A    between atoms: C2_2  and  C3_3 
REMARK    2  A    between atoms: C3_3  and  O1_4 
REMARK    3  A    between atoms: O1_4  and  C4_5 
REMARK    4  A    between atoms: C10_11  and  C11_12 
ROOT
HETATM    1  C4  UNL     1      24.808   5.759  48.435  1.00  0.00     0.141 C 
HETATM    2  C5  UNL     1      23.476   4.854  48.805  1.00  0.00     0.040 C 
HETATM    3  C6  UNL     1      23.890   5.454  49.974  1.00  0.00     0.035 A 
HETATM    4  C7  UNL     1      24.830   6.097  51.000  1.00  0.00     0.025 A 
HETATM    5  C8  UNL     1      25.168   5.574  49.865  1.00  0.00     0.024 A 
HETATM    6  C9  UNL     1      26.010   4.222  50.128  1.00  0.00    -0.004 C 
HETATM    7  C10 UNL     1      25.574   3.166  51.004  1.00  0.00    -0.035 C 
HETATM    8  C13 UNL     1      24.080   3.102  51.380  1.00  0.00     0.019 A 
HETATM    9  C14 UNL     1      23.139   4.222  50.816  1.00  0.00     0.076 A 
HETATM   10  O4  UNL     1      21.928   3.816  51.211  1.00  0.00    -0.308 OA
HETATM   11  C15 UNL     1      22.094   2.700  51.874  1.00  0.00     0.141 A 
HETATM   12  C16 UNL     1      23.374   2.192  52.028  1.00  0.00     0.066 A 
HETATM   13  C17 UNL     1      23.814   1.028  52.687  1.00  0.00     0.197 A 
HETATM   14  O5  UNL     1      24.989   0.668  52.764  1.00  0.00    -0.286 OA
HETATM   15  C18 UNL     1      22.738   0.249  53.297  1.00  0.00     0.029 A 
HETATM   16  C19 UNL     1      23.034  -0.921  53.977  1.00  0.00     0.016 A 
HETATM   17  C20 UNL     1      22.029  -1.665  54.556  1.00  0.00     0.001 A 
HETATM   18  C21 UNL     1      20.744  -1.180  54.417  1.00  0.00     0.001 A 
HETATM   19  C22 UNL     1      20.393  -0.024  53.752  1.00  0.00     0.016 A 
HETATM   20  C23 UNL     1      21.414   0.705  53.181  1.00  0.00     0.031 A 
HETATM   21  C24 UNL     1      21.012   1.943  52.471  1.00  0.00     0.217 A 
HETATM   22  O6  UNL     1      19.840   2.321  52.385  1.00  0.00    -0.284 OA
ENDROOT
BRANCH   1  23
HETATM   23  O1  UNL     1      24.436   6.942  48.035  1.00  0.00    -0.384 OA
BRANCH  23  24
HETATM   24  C3  UNL     1      25.234   8.028  48.014  1.00  0.00     0.168 C 
BRANCH  24  25
HETATM   25  C2  UNL     1      25.898   8.131  46.654  1.00  0.00     0.022 C 
HETATM   26  C1  UNL     1      27.402   8.146  46.805  1.00  0.00     0.007 C 
ENDBRANCH  24  25
ENDBRANCH  23  24
ENDBRANCH   1  23
BRANCH   7  27
HETATM   27  C11 UNL     1      26.329   2.155  51.545  1.00  0.00     0.030 A 
HETATM   28  O2  UNL     1      27.369   2.462  52.174  1.00  0.00     0.000 OA
HETATM   29  C12 UNL     1      28.319   1.498  52.832  1.00  0.00     0.000 A 
HETATM   30  O3  UNL     1      27.472   2.493  52.238  1.00  0.00     0.000 OA
ENDBRANCH   7  27
TORSDOF 4
ENDMDL
MODEL 9
REMARK VINA RESULT:      -8.3      7.550     10.137
REMARK  4 active torsions:
REMARK  status: ('A' for Active; 'I' for Inactive)
REMARK    1  A    between atoms: C2_2  and  C3_3 
REMARK    2  A    between atoms: C3_3  and  O1_4 
REMARK    3  A    between atoms: O1_4  and  C4_5 
REMARK    4  A    between atoms: C10_11  and  C11_12 
ROOT
HETATM    1  C4  UNL     1      33.749   6.387  47.996  1.00  0.00     0.141 C 
HETATM    2  C5  UNL     1      32.461   5.608  48.674  1.00  0.00     0.040 C 
HETATM    3  C6  UNL     1      32.114   5.897  47.372  1.00  0.00     0.035 A 
HETATM    4  C7  UNL     1      32.093   6.625  46.023  1.00  0.00     0.025 A 
HETATM    5  C8  UNL     1      32.740   6.986  47.084  1.00  0.00     0.024 A 
HETATM    6  C9  UNL     1      32.082   8.334  47.679  1.00  0.00    -0.004 C 
HETATM    7  C10 UNL     1      30.673   8.495  47.929  1.00  0.00    -0.035 C 
HETATM    8  C13 UNL     1      29.805   7.225  48.044  1.00  0.00     0.019 A 
HETATM    9  C14 UNL     1      30.510   5.840  47.837  1.00  0.00     0.076 A 
HETATM   10  O4  UNL     1      29.537   4.969  48.120  1.00  0.00    -0.308 OA
HETATM   11  C15 UNL     1      28.473   5.667  48.424  1.00  0.00     0.141 A 
HETATM   12  C16 UNL     1      28.546   7.050  48.402  1.00  0.00     0.066 A 
HETATM   13  C17 UNL     1      27.559   8.014  48.685  1.00  0.00     0.197 A 
HETATM   14  O5  UNL     1      27.734   9.232  48.633  1.00  0.00    -0.286 OA
HETATM   15  C18 UNL     1      26.264   7.446  49.056  1.00  0.00     0.029 A 
HETATM   16  C19 UNL     1      25.205   8.286  49.360  1.00  0.00     0.016 A 
HETATM   17  C20 UNL     1      23.979   7.764  49.713  1.00  0.00     0.001 A 
HETATM   18  C21 UNL     1      23.881   6.388  49.742  1.00  0.00     0.001 A 
HETATM   19  C22 UNL     1      24.901   5.506  49.450  1.00  0.00     0.016 A 
HETATM   20  C23 UNL     1      26.117   6.050  49.099  1.00  0.00     0.031 A 
HETATM   21  C24 UNL     1      27.198   5.083  48.790  1.00  0.00     0.217 A 
HETATM   22  O6  UNL     1      27.041   3.859  48.836  1.00  0.00    -0.284 OA
ENDROOT
BRANCH   1  23
HETATM   23  O1  UNL     1      34.585   5.513  47.511  1.00  0.00    -0.384 OA
BRANCH  23  24
HETATM   24  C3  UNL     1      35.012   4.416  48.168  1.00  0.00     0.168 C 
BRANCH  24  25
HETATM   25  C2  UNL     1      34.905   3.213  47.248  1.00  0.00     0.022 C 
HETATM   26  C1  UNL     1      35.031   3.646  45.805  1.00  0.00     0.007 C 
ENDBRANCH  24  25
ENDBRANCH  23  24
ENDBRANCH   1  23
BRANCH   7  27
HETATM   27  C11 UNL     1      29.978   9.664  48.114  1.00  0.00     0.030 A 
HETATM   28  O2  UNL     1      30.592  10.652  48.582  1.00  0.00     0.000 OA
HETATM   29  C12 UNL     1      30.002  12.009  48.854  1.00  0.00     0.000 A 
HETATM   30  O3  UNL     1      30.654  10.751  48.628  1.00  0.00     0.000 OA
ENDBRANCH   7  27
TORSDOF 4
ENDMDL
