MODEL 1
REMARK VINA RESULT:      -7.5      0.000      0.000
REMARK  6 active torsions:
REMARK  status: ('A' for Active; 'I' for Inactive)
REMARK    1  A    between atoms: C3_6  and  C4_7 
REMARK    2  A    between atoms: C4_7  and  C5_8 
REMARK    3  A    between atoms: C6_9  and  C7_10 
REMARK    4  A    between atoms: C9_13  and  N3_14 
REMARK    5  A    between atoms: N3_14  and  C10_15 
REMARK    6  A    between atoms: C10_15  and  C11_16 
ROOT
HETATM    1  C7  UNL     1      23.301   1.878  52.107  1.00  0.00     0.066 A 
HETATM    2  C8  UNL     1      22.394   2.916  52.312  1.00  0.00     0.085 A 
HETATM    3  S2  UNL     1      23.387   4.428  51.791  1.00  0.00    -0.062 SA
HETATM    4  C9  UNL     1      24.867   3.335  51.390  1.00  0.00     0.167 A 
HETATM    5  N4  UNL     1      24.410   2.365  51.660  1.00  0.00    -0.224 NA
ENDROOT
BRANCH   1   6
HETATM    6  C6  UNL     1      23.160   0.413  52.320  1.00  0.00     0.032 C 
HETATM    7  C5  UNL     1      23.581  -0.512  53.158  1.00  0.00    -0.001 C 
BRANCH   7   8
HETATM    8  C4  UNL     1      24.458  -0.016  54.229  1.00  0.00    -0.009 C 
BRANCH   8   9
HETATM    9  C3  UNL     1      25.372  -0.577  53.546  1.00  0.00     0.047 A 
HETATM   10  C1  UNL     1      26.432  -0.402  53.753  1.00  0.00     0.015 A 
HETATM   11  S1  UNL     1      27.623  -0.188  54.004  1.00  0.00    -0.075 SA
HETATM   12  N2  UNL     1      26.501   0.265  54.556  1.00  0.00     0.000 N 
HETATM   13  C2  UNL     1      29.033   0.085  54.326  1.00  0.00     0.190 A 
HETATM   14  N1  UNL     1      27.924   0.548  54.891  1.00  0.00    -0.165 NA
HETATM   15  H2  UNL     1      26.044   1.051  55.508  1.00  0.00     0.000 HD
ENDBRANCH   8   9
ENDBRANCH   7   8
ENDBRANCH   1   6
BRANCH   4  16
HETATM   16  N3  UNL     1      26.111   3.952  50.881  1.00  0.00    -0.365 N 
HETATM   17  H7  UNL     1      26.658   4.531  51.528  1.00  0.00     0.162 HD
BRANCH  16  18
HETATM   18  C10 UNL     1      26.507   3.713  49.490  1.00  0.00     0.160 C 
BRANCH  18  19
HETATM   19  C11 UNL     1      26.966   4.994  48.864  1.00  0.00    -0.041 A 
HETATM   20  C12 UNL     1      28.294   5.081  48.485  1.00  0.00     0.009 A 
HETATM   21  C13 UNL     1      28.829   6.213  47.897  1.00  0.00     0.001 A 
HETATM   22  C14 UNL     1      28.025   7.302  47.677  1.00  0.00     0.000 A 
HETATM   23  C15 UNL     1      26.714   7.196  48.060  1.00  0.00     0.001 A 
HETATM   24  C16 UNL     1      26.158   6.079  48.646  1.00  0.00     0.009 A 
ENDBRANCH  18  19
ENDBRANCH  16  18
ENDBRANCH   4  16
TORSDOF 6
ENDMDL
MODEL 2
REMARK VINA RESULT:      -7.4      2.443      6.157
REMARK  6 active torsions:
REMARK  status: ('A' for Active; 'I' for Inactive)
REMARK    1  A    between atoms: C3_6  and  C4_7 
REMARK    2  A    between atoms: C4_7  and  C5_8 
REMARK    3  A    between atoms: C6_9  and  C7_10 
REMARK    4  A    between atoms: C9_13  and  N3_14 
REMARK    5  A    between atoms: N3_14  and  C10_15 
REMARK    6  A    between atoms: C10_15  and  C11_16 
ROOT
HETATM    1  C7  UNL     1      24.251   4.060  50.940  1.00  0.00     0.066 A 
HETATM    2  C8  UNL     1      23.738   5.276  51.387  1.00  0.00     0.085 A 
HETATM    3  S2  UNL     1      21.981   4.816  51.881  1.00  0.00    -0.062 SA
HETATM    4  C9  UNL     1      22.292   3.030  51.374  1.00  0.00     0.167 A 
HETATM    5  N4  UNL     1      23.340   3.151  51.045  1.00  0.00    -0.224 NA
ENDROOT
BRANCH   1   6
HETATM    6  C6  UNL     1      25.595   3.714  50.405  1.00  0.00     0.032 C 
HETATM    7  C5  UNL     1      26.501   2.766  50.538  1.00  0.00    -0.001 C 
BRANCH   7   8
HETATM    8  C4  UNL     1      26.139   1.700  51.483  1.00  0.00    -0.009 C 
BRANCH   8   9
HETATM    9  C3  UNL     1      27.159   2.113  52.119  1.00  0.00     0.047 A 
HETATM   10  C1  UNL     1      27.609   1.525  52.925  1.00  0.00     0.015 A 
HETATM   11  S1  UNL     1      28.101   0.844  53.832  1.00  0.00    -0.075 SA
HETATM   12  N2  UNL     1      27.057   0.643  53.032  1.00  0.00     0.000 N 
HETATM   13  C2  UNL     1      28.665   0.012  54.906  1.00  0.00     0.190 A 
HETATM   14  N1  UNL     1      27.620  -0.208  54.117  1.00  0.00    -0.165 NA
HETATM   15  H2  UNL     1      26.099  -0.216  52.755  1.00  0.00     0.000 HD
ENDBRANCH   8   9
ENDBRANCH   7   8
ENDBRANCH   1   6
BRANCH   4  16
HETATM   16  N3  UNL     1      21.209   2.033  51.518  1.00  0.00    -0.365 N 
HETATM   17  H7  UNL     1      20.275   2.373  51.773  1.00  0.00     0.162 HD
BRANCH  16  18
HETATM   18  C10 UNL     1      21.511   0.616  51.294  1.00  0.00     0.160 C 
BRANCH  18  19
HETATM   19  C11 UNL     1      21.978  -0.014  52.571  1.00  0.00    -0.041 A 
HETATM   20  C12 UNL     1      21.021  -0.576  53.395  1.00  0.00     0.009 A 
HETATM   21  C13 UNL     1      21.335  -1.184  54.596  1.00  0.00     0.001 A 
HETATM   22  C14 UNL     1      22.643  -1.239  55.002  1.00  0.00     0.000 A 
HETATM   23  C15 UNL     1      23.577  -0.676  54.172  1.00  0.00     0.001 A 
HETATM   24  C16 UNL     1      23.288  -0.065  52.970  1.00  0.00     0.009 A 
ENDBRANCH  18  19
ENDBRANCH  16  18
ENDBRANCH   4  16
TORSDOF 6
ENDMDL
MODEL 3
REMARK VINA RESULT:      -7.3      3.560      5.145
REMARK  6 active torsions:
REMARK  status: ('A' for Active; 'I' for Inactive)
REMARK    1  A    between atoms: C3_6  and  C4_7 
REMARK    2  A    between atoms: C4_7  and  C5_8 
REMARK    3  A    between atoms: C6_9  and  C7_10 
REMARK    4  A    between atoms: C9_13  and  N3_14 
REMARK    5  A    between atoms: N3_14  and  C10_15 
REMARK    6  A    between atoms: C10_15  and  C11_16 
ROOT
HETATM    1  C7  UNL     1      26.881   4.592  49.000  1.00  0.00     0.066 A 
HETATM    2  C8  UNL     1      26.322   5.865  49.092  1.00  0.00     0.085 A 
HETATM    3  S2  UNL     1      27.735   6.970  48.523  1.00  0.00    -0.062 SA
HETATM    4  C9  UNL     1      28.831   5.461  48.267  1.00  0.00     0.167 A 
HETATM    5  N4  UNL     1      28.098   4.693  48.576  1.00  0.00    -0.224 NA
ENDROOT
BRANCH   1   6
HETATM    6  C6  UNL     1      26.304   3.256  49.301  1.00  0.00     0.032 C 
HETATM    7  C5  UNL     1      26.242   2.405  50.304  1.00  0.00    -0.001 C 
BRANCH   7   8
HETATM    8  C4  UNL     1      26.933   2.846  51.525  1.00  0.00    -0.009 C 
BRANCH   8   9
HETATM    9  C3  UNL     1      26.810   1.627  51.865  1.00  0.00     0.047 A 
HETATM   10  C1  UNL     1      27.334   1.219  52.734  1.00  0.00     0.015 A 
HETATM   11  S1  UNL     1      27.938   0.779  53.719  1.00  0.00    -0.075 SA
HETATM   12  N2  UNL     1      27.898   1.987  53.165  1.00  0.00     0.000 N 
HETATM   13  C2  UNL     1      28.667   0.283  54.897  1.00  0.00     0.190 A 
HETATM   14  N1  UNL     1      28.640   1.496  54.360  1.00  0.00    -0.165 NA
HETATM   15  H2  UNL     1      28.367   3.212  53.286  1.00  0.00     0.000 HD
ENDBRANCH   8   9
ENDBRANCH   7   8
ENDBRANCH   1   6
BRANCH   4  16
HETATM   16  N3  UNL     1      30.216   5.640  47.781  1.00  0.00    -0.365 N 
HETATM   17  H7  UNL     1      30.379   5.586  46.769  1.00  0.00     0.162 HD
BRANCH  16  18
HETATM   18  C10 UNL     1      31.286   5.884  48.753  1.00  0.00     0.160 C 
BRANCH  18  19
HETATM   19  C11 UNL     1      32.514   5.121  48.360  1.00  0.00    -0.041 A 
HETATM   20  C12 UNL     1      32.338   3.928  47.682  1.00  0.00     0.009 A 
HETATM   21  C13 UNL     1      33.397   3.141  47.269  1.00  0.00     0.001 A 
HETATM   22  C14 UNL     1      34.680   3.543  47.537  1.00  0.00     0.000 A 
HETATM   23  C15 UNL     1      34.834   4.726  48.209  1.00  0.00     0.001 A 
HETATM   24  C16 UNL     1      33.794   5.529  48.630  1.00  0.00     0.009 A 
ENDBRANCH  18  19
ENDBRANCH  16  18
ENDBRANCH   4  16
TORSDOF 6
ENDMDL
MODEL 4
REMARK VINA RESULT:      -7.2      2.270      6.990
REMARK  6 active torsions:
REMARK  status: ('A' for Active; 'I' for Inactive)
REMARK    1  A    between atoms: C3_6  and  C4_7 
REMARK    2  A    between atoms: C4_7  and  C5_8 
REMARK    3  A    between atoms: C6_9  and  C7_10 
REMARK    4  A    between atoms: C9_13  and  N3_14 
REMARK    5  A    between atoms: N3_14  and  C10_15 
REMARK    6  A    between atoms: C10_15  and  C11_16 
ROOT
HETATM    1  C7  UNL     1      23.809   3.526  51.620  1.00  0.00     0.066 A 
HETATM    2  C8  UNL     1      22.694   2.756  51.297  1.00  0.00     0.085 A 
HETATM    3  S2  UNL     1      23.043   1.142  52.201  1.00  0.00    -0.062 SA
HETATM    4  C9  UNL     1      24.665   1.841  52.853  1.00  0.00     0.167 A 
HETATM    5  N4  UNL     1      24.595   2.838  52.381  1.00  0.00    -0.224 NA
ENDROOT
BRANCH   1   6
HETATM    6  C6  UNL     1      24.172   4.915  51.233  1.00  0.00     0.032 C 
HETATM    7  C5  UNL     1      24.920   5.533  50.341  1.00  0.00    -0.001 C 
BRANCH   7   8
HETATM    8  C4  UNL     1      25.640   4.641  49.422  1.00  0.00    -0.009 C 
BRANCH   8   9
HETATM    9  C3  UNL     1      26.064   5.731  48.922  1.00  0.00     0.047 A 
HETATM   10  C1  UNL     1      27.105   5.850  48.606  1.00  0.00     0.015 A 
HETATM   11  S1  UNL     1      28.286   5.962  48.257  1.00  0.00    -0.075 SA
HETATM   12  N2  UNL     1      27.608   4.952  48.795  1.00  0.00     0.000 N 
HETATM   13  C2  UNL     1      29.695   6.067  47.849  1.00  0.00     0.190 A 
HETATM   14  N1  UNL     1      29.037   5.047  48.386  1.00  0.00    -0.165 NA
HETATM   15  H2  UNL     1      27.732   3.707  49.206  1.00  0.00     0.000 HD
ENDBRANCH   8   9
ENDBRANCH   7   8
ENDBRANCH   1   6
BRANCH   4  16
HETATM   16  N3  UNL     1      25.522   1.004  53.719  1.00  0.00    -0.365 N 
HETATM   17  H7  UNL     1      25.104   0.171  54.147  1.00  0.00     0.162 HD
BRANCH  16  18
HETATM   18  C10 UNL     1      26.919   1.396  53.930  1.00  0.00     0.160 C 
BRANCH  18  19
HETATM   19  C11 UNL     1      27.819   0.222  53.690  1.00  0.00    -0.041 A 
HETATM   20  C12 UNL     1      27.249  -0.926  53.171  1.00  0.00     0.009 A 
HETATM   21  C13 UNL     1      27.981  -2.069  52.908  1.00  0.00     0.001 A 
HETATM   22  C14 UNL     1      29.327  -2.083  53.169  1.00  0.00     0.000 A 
HETATM   23  C15 UNL     1      29.873  -0.936  53.683  1.00  0.00     0.001 A 
HETATM   24  C16 UNL     1      29.164   0.216  53.952  1.00  0.00     0.009 A 
ENDBRANCH  18  19
ENDBRANCH  16  18
ENDBRANCH   4  16
TORSDOF 6
ENDMDL
MODEL 5
REMARK VINA RESULT:      -7.2      2.646      7.729
REMARK  6 active torsions:
REMARK  status: ('A' for Active; 'I' for Inactive)
REMARK    1  A    between atoms: C3_6  and  C4_7 
REMARK    2  A    between atoms: C4_7  and  C5_8 
REMARK    3  A    between atoms: C6_9  and  C7_10 
REMARK    4  A    between atoms: C9_13  and  N3_14 
REMARK    5  A    between atoms: N3_14  and  C10_15 
REMARK    6  A    between atoms: C10_15  and  C11_16 
ROOT
HETATM    1  C7  UNL     1      25.833   3.543  49.953  1.00  0.00     0.066 A 
HETATM    2  C8  UNL     1      24.478   3.775  49.724  1.00  0.00     0.085 A 
HETATM    3  S2  UNL     1      23.673   2.996  51.236  1.00  0.00    -0.062 SA
HETATM    4  C9  UNL     1      25.364   2.498  51.897  1.00  0.00     0.167 A 
HETATM    5  N4  UNL     1      25.971   2.911  51.071  1.00  0.00    -0.224 NA
ENDROOT
BRANCH   1   6
HETATM    6  C6  UNL     1      27.027   3.902  49.144  1.00  0.00     0.032 C 
HETATM    7  C5  UNL     1      27.573   4.970  48.601  1.00  0.00    -0.001 C 
BRANCH   7   8
HETATM    8  C4  UNL     1      26.828   6.218  48.821  1.00  0.00    -0.009 C 
BRANCH   8   9
HETATM    9  C3  UNL     1      27.819   6.749  48.228  1.00  0.00     0.047 A 
HETATM   10  C1  UNL     1      28.154   7.763  48.465  1.00  0.00     0.015 A 
HETATM   11  S1  UNL     1      28.513   8.912  48.749  1.00  0.00    -0.075 SA
HETATM   12  N2  UNL     1      27.529   8.146  49.212  1.00  0.00     0.000 N 
HETATM   13  C2  UNL     1      28.919  10.280  49.108  1.00  0.00     0.190 A 
HETATM   14  N1  UNL     1      27.931   9.531  49.583  1.00  0.00    -0.165 NA
HETATM   15  H2  UNL     1      26.534   8.125  50.074  1.00  0.00     0.000 HD
ENDBRANCH   8   9
ENDBRANCH   7   8
ENDBRANCH   1   6
BRANCH   4  16
HETATM   16  N3  UNL     1      25.459   1.776  53.184  1.00  0.00    -0.365 N 
HETATM   17  H7  UNL     1      25.361   2.320  54.048  1.00  0.00     0.162 HD
BRANCH  16  18
HETATM   18  C10 UNL     1      25.687   0.327  53.172  1.00  0.00     0.160 C 
BRANCH  18  19
HETATM   19  C11 UNL     1      27.147   0.040  53.354  1.00  0.00    -0.041 A 
HETATM   20  C12 UNL     1      27.597  -1.224  53.020  1.00  0.00     0.009 A 
HETATM   21  C13 UNL     1      28.921  -1.602  53.145  1.00  0.00     0.001 A 
HETATM   22  C14 UNL     1      29.838  -0.699  53.620  1.00  0.00     0.000 A 
HETATM   23  C15 UNL     1      29.372   0.547  53.946  1.00  0.00     0.001 A 
HETATM   24  C16 UNL     1      28.057   0.948  53.829  1.00  0.00     0.009 A 
ENDBRANCH  18  19
ENDBRANCH  16  18
ENDBRANCH   4  16
TORSDOF 6
ENDMDL
MODEL 6
REMARK VINA RESULT:      -7.1      2.966      7.306
REMARK  6 active torsions:
REMARK  status: ('A' for Active; 'I' for Inactive)
REMARK    1  A    between atoms: C3_6  and  C4_7 
REMARK    2  A    between atoms: C4_7  and  C5_8 
REMARK    3  A    between atoms: C6_9  and  C7_10 
REMARK    4  A    between atoms: C9_13  and  N3_14 
REMARK    5  A    between atoms: N3_14  and  C10_15 
REMARK    6  A    between atoms: C10_15  and  C11_16 
ROOT
HETATM    1  C7  UNL     1      25.182   5.315  49.197  1.00  0.00     0.066 A 
HETATM    2  C8  UNL     1      23.944   4.780  48.848  1.00  0.00     0.085 A 
HETATM    3  S2  UNL     1      23.782   3.328  50.035  1.00  0.00    -0.062 SA
HETATM    4  C9  UNL     1      25.458   3.738  50.787  1.00  0.00     0.167 A 
HETATM    5  N4  UNL     1      25.690   4.617  50.158  1.00  0.00    -0.224 NA
ENDROOT
BRANCH   1   6
HETATM    6  C6  UNL     1      25.922   6.483  48.650  1.00  0.00     0.032 C 
HETATM    7  C5  UNL     1      27.138   6.785  48.244  1.00  0.00    -0.001 C 
BRANCH   7   8
HETATM    8  C4  UNL     1      28.105   5.681  48.332  1.00  0.00    -0.009 C 
BRANCH   8   9
HETATM    9  C3  UNL     1      28.964   6.616  48.258  1.00  0.00     0.047 A 
HETATM   10  C1  UNL     1      30.038   6.414  48.317  1.00  0.00     0.015 A 
HETATM   11  S1  UNL     1      31.246   6.162  48.386  1.00  0.00    -0.075 SA
HETATM   12  N2  UNL     1      30.169   5.383  48.436  1.00  0.00     0.000 N 
HETATM   13  C2  UNL     1      32.678   5.833  48.471  1.00  0.00     0.190 A 
HETATM   14  N1  UNL     1      31.616   5.038  48.523  1.00  0.00    -0.165 NA
HETATM   15  H2  UNL     1      29.788   4.129  48.561  1.00  0.00     0.000 HD
ENDBRANCH   8   9
ENDBRANCH   7   8
ENDBRANCH   1   6
BRANCH   4  16
HETATM   16  N3  UNL     1      25.988   2.901  51.885  1.00  0.00    -0.365 N 
HETATM   17  H7  UNL     1      26.473   3.373  52.656  1.00  0.00     0.162 HD
BRANCH  16  18
HETATM   18  C10 UNL     1      25.800   1.448  51.828  1.00  0.00     0.160 C 
BRANCH  18  19
HETATM   19  C11 UNL     1      26.967   0.758  52.466  1.00  0.00    -0.041 A 
HETATM   20  C12 UNL     1      27.940   1.551  53.047  1.00  0.00     0.009 A 
HETATM   21  C13 UNL     1      29.060   1.025  53.665  1.00  0.00     0.001 A 
HETATM   22  C14 UNL     1      29.230  -0.334  53.710  1.00  0.00     0.000 A 
HETATM   23  C15 UNL     1      28.256  -1.102  53.128  1.00  0.00     0.001 A 
HETATM   24  C16 UNL     1      27.130  -0.602  52.507  1.00  0.00     0.009 A 
ENDBRANCH  18  19
ENDBRANCH  16  18
ENDBRANCH   4  16
TORSDOF 6
ENDMDL
MODEL 7
REMARK VINA RESULT:      -6.9      2.845      8.286
REMARK  6 active torsions:
REMARK  status: ('A' for Active; 'I' for Inactive)
REMARK    1  A    between atoms: C3_6  and  C4_7 
REMARK    2  A    between atoms: C4_7  and  C5_8 
REMARK    3  A    between atoms: C6_9  and  C7_10 
REMARK    4  A    between atoms: C9_13  and  N3_14 
REMARK    5  A    between atoms: N3_14  and  C10_15 
REMARK    6  A    between atoms: C10_15  and  C11_16 
ROOT
HETATM    1  C7  UNL     1      25.557   4.095  50.088  1.00  0.00     0.066 A 
HETATM    2  C8  UNL     1      24.416   4.867  49.877  1.00  0.00     0.085 A 
HETATM    3  S2  UNL     1      23.300   4.335  51.295  1.00  0.00    -0.062 SA
HETATM    4  C9  UNL     1      24.623   3.146  51.910  1.00  0.00     0.167 A 
HETATM    5  N4  UNL     1      25.383   3.359  51.135  1.00  0.00    -0.224 NA
ENDROOT
BRANCH   1   6
HETATM    6  C6  UNL     1      26.832   4.023  49.328  1.00  0.00     0.032 C 
HETATM    7  C5  UNL     1      27.610   4.814  48.617  1.00  0.00    -0.001 C 
BRANCH   7   8
HETATM    8  C4  UNL     1      27.131   6.200  48.500  1.00  0.00    -0.009 C 
BRANCH   8   9
HETATM    9  C3  UNL     1      28.343   6.443  48.202  1.00  0.00     0.047 A 
HETATM   10  C1  UNL     1      28.809   7.405  48.437  1.00  0.00     0.015 A 
HETATM   11  S1  UNL     1      29.314   8.499  48.712  1.00  0.00    -0.075 SA
HETATM   12  N2  UNL     1      28.095   8.006  48.910  1.00  0.00     0.000 N 
HETATM   13  C2  UNL     1      29.890   9.810  49.051  1.00  0.00     0.190 A 
HETATM   14  N1  UNL     1      28.668   9.336  49.259  1.00  0.00    -0.165 NA
HETATM   15  H2  UNL     1      26.915   8.299  49.415  1.00  0.00     0.000 HD
ENDBRANCH   8   9
ENDBRANCH   7   8
ENDBRANCH   1   6
BRANCH   4  16
HETATM   16  N3  UNL     1      24.365   2.328  53.114  1.00  0.00    -0.365 N 
HETATM   17  H7  UNL     1      24.158   2.818  53.991  1.00  0.00     0.162 HD
BRANCH  16  18
HETATM   18  C10 UNL     1      24.416   0.867  53.007  1.00  0.00     0.160 C 
BRANCH  18  19
HETATM   19  C11 UNL     1      23.100   0.280  53.418  1.00  0.00    -0.041 A 
HETATM   20  C12 UNL     1      23.123  -0.894  54.149  1.00  0.00     0.009 A 
HETATM   21  C13 UNL     1      21.972  -1.525  54.584  1.00  0.00     0.001 A 
HETATM   22  C14 UNL     1      20.750  -0.980  54.285  1.00  0.00     0.000 A 
HETATM   23  C15 UNL     1      20.749   0.183  53.560  1.00  0.00     0.001 A 
HETATM   24  C16 UNL     1      21.882   0.831  53.116  1.00  0.00     0.009 A 
ENDBRANCH  18  19
ENDBRANCH  16  18
ENDBRANCH   4  16
TORSDOF 6
ENDMDL
MODEL 8
REMARK VINA RESULT:      -6.9      3.327      5.255
REMARK  6 active torsions:
REMARK  status: ('A' for Active; 'I' for Inactive)
REMARK    1  A    between atoms: C3_6  and  C4_7 
REMARK    2  A    between atoms: C4_7  and  C5_8 
REMARK    3  A    between atoms: C6_9  and  C7_10 
REMARK    4  A    between atoms: C9_13  and  N3_14 
REMARK    5  A    between atoms: N3_14  and  C10_15 
REMARK    6  A    between atoms: C10_15  and  C11_16 
ROOT
HETATM    1  C7  UNL     1      22.486   2.627  49.457  1.00  0.00     0.066 A 
HETATM    2  C8  UNL     1      22.372   3.852  48.804  1.00  0.00     0.085 A 
HETATM    3  S2  UNL     1      23.806   4.831  49.527  1.00  0.00    -0.062 SA
HETATM    4  C9  UNL     1      24.291   3.360  50.596  1.00  0.00     0.167 A 
HETATM    5  N4  UNL     1      23.495   2.668  50.262  1.00  0.00    -0.224 NA
ENDROOT
BRANCH   1   6
HETATM    6  C6  UNL     1      21.665   1.391  49.351  1.00  0.00     0.032 C 
HETATM    7  C5  UNL     1      20.958   0.600  50.132  1.00  0.00    -0.001 C 
BRANCH   7   8
HETATM    8  C4  UNL     1      20.930   1.000  51.546  1.00  0.00    -0.009 C 
BRANCH   8   9
HETATM    9  C3  UNL     1      21.681  -0.013  51.701  1.00  0.00     0.047 A 
HETATM   10  C1  UNL     1      21.915  -0.407  52.694  1.00  0.00     0.015 A 
HETATM   11  S1  UNL     1      22.167  -0.835  53.827  1.00  0.00    -0.075 SA
HETATM   12  N2  UNL     1      21.427   0.187  53.404  1.00  0.00     0.000 N 
HETATM   13  C2  UNL     1      22.448  -1.322  55.187  1.00  0.00     0.190 A 
HETATM   14  N1  UNL     1      21.705  -0.297  54.785  1.00  0.00    -0.165 NA
HETATM   15  H2  UNL     1      20.663   1.172  53.824  1.00  0.00     0.000 HD
ENDBRANCH   8   9
ENDBRANCH   7   8
ENDBRANCH   1   6
BRANCH   4  16
HETATM   16  N3  UNL     1      25.456   3.468  51.500  1.00  0.00    -0.365 N 
HETATM   17  H7  UNL     1      25.327   3.955  52.393  1.00  0.00     0.162 HD
BRANCH  16  18
HETATM   18  C10 UNL     1      26.734   2.881  51.086  1.00  0.00     0.160 C 
BRANCH  18  19
HETATM   19  C11 UNL     1      27.095   1.750  52.001  1.00  0.00    -0.041 A 
HETATM   20  C12 UNL     1      26.507   0.521  51.763  1.00  0.00     0.009 A 
HETATM   21  C13 UNL     1      26.765  -0.592  52.541  1.00  0.00     0.001 A 
HETATM   22  C14 UNL     1      27.636  -0.491  53.595  1.00  0.00     0.000 A 
HETATM   23  C15 UNL     1      28.208   0.734  53.814  1.00  0.00     0.001 A 
HETATM   24  C16 UNL     1      27.967   1.858  53.053  1.00  0.00     0.009 A 
ENDBRANCH  18  19
ENDBRANCH  16  18
ENDBRANCH   4  16
TORSDOF 6
ENDMDL
MODEL 9
REMARK VINA RESULT:      -6.9      2.657      3.622
REMARK  6 active torsions:
REMARK  status: ('A' for Active; 'I' for Inactive)
REMARK    1  A    between atoms: C3_6  and  C4_7 
REMARK    2  A    between atoms: C4_7  and  C5_8 
REMARK    3  A    between atoms: C6_9  and  C7_10 
REMARK    4  A    between atoms: C9_13  and  N3_14 
REMARK    5  A    between atoms: N3_14  and  C10_15 
REMARK    6  A    between atoms: C10_15  and  C11_16 
ROOT
HETATM    1  C7  UNL     1      20.478   1.039  52.897  1.00  0.00     0.066 A 
HETATM    2  C8  UNL     1      19.542   0.856  51.881  1.00  0.00     0.085 A 
HETATM    3  S2  UNL     1      19.698   2.452  50.895  1.00  0.00    -0.062 SA
HETATM    4  C9  UNL     1      21.027   3.068  52.077  1.00  0.00     0.167 A 
HETATM    5  N4  UNL     1      21.046   2.189  52.747  1.00  0.00    -0.224 NA
ENDROOT
BRANCH   1   6
HETATM    6  C6  UNL     1      20.866   0.155  54.027  1.00  0.00     0.032 C 
HETATM    7  C5  UNL     1      21.817  -0.704  54.332  1.00  0.00    -0.001 C 
BRANCH   7   8
HETATM    8  C4  UNL     1      22.832  -0.893  53.285  1.00  0.00    -0.009 C 
BRANCH   8   9
HETATM    9  C3  UNL     1      23.640  -0.554  54.206  1.00  0.00     0.047 A 
HETATM   10  C1  UNL     1      24.720  -0.510  54.033  1.00  0.00     0.015 A 
HETATM   11  S1  UNL     1      25.937  -0.469  53.815  1.00  0.00    -0.075 SA
HETATM   12  N2  UNL     1      24.903  -0.786  53.041  1.00  0.00     0.000 N 
HETATM   13  C2  UNL     1      27.379  -0.427  53.528  1.00  0.00     0.190 A 
HETATM   14  N1  UNL     1      26.361  -0.748  52.738  1.00  0.00    -0.165 NA
HETATM   15  H2  UNL     1      24.586  -1.170  51.822  1.00  0.00     0.000 HD
ENDBRANCH   8   9
ENDBRANCH   7   8
ENDBRANCH   1   6
BRANCH   4  16
HETATM   16  N3  UNL     1      21.641   4.395  51.854  1.00  0.00    -0.365 N 
HETATM   17  H7  UNL     1      21.135   5.065  51.265  1.00  0.00     0.162 HD
BRANCH  16  18
HETATM   18  C10 UNL     1      22.934   4.695  52.478  1.00  0.00     0.160 C 
BRANCH  18  19
HETATM   19  C11 UNL     1      24.046   4.169  51.623  1.00  0.00    -0.041 A 
HETATM   20  C12 UNL     1      24.682   3.013  52.040  1.00  0.00     0.009 A 
HETATM   21  C13 UNL     1      25.720   2.437  51.332  1.00  0.00     0.001 A 
HETATM   22  C14 UNL     1      26.150   3.022  50.169  1.00  0.00     0.000 A 
HETATM   23  C15 UNL     1      25.508   4.166  49.774  1.00  0.00     0.001 A 
HETATM   24  C16 UNL     1      24.471   4.759  50.462  1.00  0.00     0.009 A 
ENDBRANCH  18  19
ENDBRANCH  16  18
ENDBRANCH   4  16
TORSDOF 6
ENDMDL
