MODEL 1
REMARK VINA RESULT:      -7.9      0.000      0.000
REMARK  8 active torsions:
REMARK  status: ('A' for Active; 'I' for Inactive)
REMARK    1  A    between atoms: C2_2  and  O1_3 
REMARK    2  A    between atoms: O1_3  and  C3_4 
REMARK    3  A    between atoms: C5_6  and  C6_7 
REMARK    4  A    between atoms: C6_7  and  C8_10 
REMARK       I    between atoms: C8_10  and  N2_11 
REMARK    5  A    between atoms: C10_14  and  C11_15 
REMARK    6  A    between atoms: C11_15  and  S1_16 
REMARK    7  A    between atoms: C14_19  and  O3_20 
REMARK    8  A    between atoms: C18_24  and  O4_25 
ROOT
HETATM    1  C6  UNL     1      27.332   0.654  52.624  1.00  0.00     0.217 C 
HETATM    2  C7  UNL     1      27.912   1.712  53.470  1.00  0.00     0.078 C 
HETATM    3  N1  UNL     1      28.381   2.557  54.124  1.00  0.00    -0.196 NA
ENDROOT
BRANCH   1   4
HETATM    4  C5  UNL     1      25.885   0.969  52.450  1.00  0.00    -0.028 A 
HETATM    5  C4  UNL     1      24.920   0.485  53.306  1.00  0.00     0.048 A 
HETATM    6  C3  UNL     1      23.591   0.810  53.098  1.00  0.00     0.102 A 
HETATM    7  C18 UNL     1      23.171   1.613  52.050  1.00  0.00     0.106 A 
HETATM    8  C10 UNL     1      24.130   2.101  51.189  1.00  0.00    -0.013 A 
HETATM    9  C9  UNL     1      25.451   1.770  51.407  1.00  0.00     0.020 A 
BRANCH   6  10
HETATM   10  O1  UNL     1      22.599   0.319  53.969  1.00  0.00    -0.349 OA
BRANCH  10  11
HETATM   11  C2  UNL     1      22.559  -0.992  54.433  1.00  0.00     0.171 C 
HETATM   12  C1  UNL     1      21.213  -1.656  54.288  1.00  0.00     0.034 C 
ENDBRANCH  10  11
ENDBRANCH   6  10
BRANCH   7  13
HETATM   13  O4  UNL     1      21.844   1.942  51.834  1.00  0.00    -0.357 OA
HETATM   14  H20 UNL     1      21.127   1.916  52.553  1.00  0.00     0.217 HD
ENDBRANCH   7  13
BRANCH   8  15
HETATM   15  C11 UNL     1      23.751   2.970  50.044  1.00  0.00     0.114 C 
BRANCH  15  16
HETATM   16  S1  UNL     1      24.221   4.728  50.211  1.00  0.00    -0.162 SA
HETATM   17  C12 UNL     1      23.273   5.900  50.840  1.00  0.00     0.042 A 
HETATM   18  C13 UNL     1      23.837   7.221  50.878  1.00  0.00     0.043 A 
HETATM   19  C14 UNL     1      25.047   7.531  50.444  1.00  0.00     0.067 A 
HETATM   20  C15 UNL     1      26.032   6.615  49.853  1.00  0.00     0.049 A 
HETATM   21  C16 UNL     1      25.841   5.337  49.670  1.00  0.00    -0.029 A 
HETATM   22  C17 UNL     1      26.827   4.406  49.074  1.00  0.00     0.055 C 
BRANCH  19  23
HETATM   23  O3  UNL     1      25.442   8.880  50.558  1.00  0.00    -0.361 OA
HETATM   24  H15 UNL     1      24.813   9.603  50.186  1.00  0.00     0.217 HD
ENDBRANCH  19  23
ENDBRANCH  15  16
ENDBRANCH   8  15
ENDBRANCH   1   4
BRANCH   1  25
HETATM   25  C8  UNL     1      27.554  -0.652  53.260  1.00  0.00     0.237 C 
HETATM   26  N2  UNL     1      28.226  -0.411  54.494  1.00  0.00    -0.369 N 
HETATM   27  H8  UNL     1      28.746  -0.025  55.326  1.00  0.00     0.159 HD
HETATM   28  H9  UNL     1      28.715  -0.247  55.399  1.00  0.00     0.159 HD
HETATM   29  O2  UNL     1      27.495  -1.903  53.354  1.00  0.00    -0.272 OA
ENDBRANCH   1  25
TORSDOF 8
ENDMDL
MODEL 2
REMARK VINA RESULT:      -7.7      0.403      1.525
REMARK  8 active torsions:
REMARK  status: ('A' for Active; 'I' for Inactive)
REMARK    1  A    between atoms: C2_2  and  O1_3 
REMARK    2  A    between atoms: O1_3  and  C3_4 
REMARK    3  A    between atoms: C5_6  and  C6_7 
REMARK    4  A    between atoms: C6_7  and  C8_10 
REMARK       I    between atoms: C8_10  and  N2_11 
REMARK    5  A    between atoms: C10_14  and  C11_15 
REMARK    6  A    between atoms: C11_15  and  S1_16 
REMARK    7  A    between atoms: C14_19  and  O3_20 
REMARK    8  A    between atoms: C18_24  and  O4_25 
ROOT
HETATM    1  C6  UNL     1      27.368   0.667  52.614  1.00  0.00     0.217 C 
HETATM    2  C7  UNL     1      27.907   1.730  53.481  1.00  0.00     0.078 C 
HETATM    3  N1  UNL     1      28.346   2.578  54.152  1.00  0.00    -0.196 NA
ENDROOT
BRANCH   1   4
HETATM    4  C5  UNL     1      25.943   1.004  52.333  1.00  0.00    -0.028 A 
HETATM    5  C4  UNL     1      24.909   0.522  53.107  1.00  0.00     0.048 A 
HETATM    6  C3  UNL     1      23.604   0.869  52.801  1.00  0.00     0.102 A 
HETATM    7  C18 UNL     1      23.276   1.691  51.736  1.00  0.00     0.106 A 
HETATM    8  C10 UNL     1      24.305   2.177  50.958  1.00  0.00    -0.013 A 
HETATM    9  C9  UNL     1      25.600   1.825  51.272  1.00  0.00     0.020 A 
BRANCH   6  10
HETATM   10  O1  UNL     1      22.542   0.380  53.587  1.00  0.00    -0.349 OA
BRANCH  10  11
HETATM   11  C2  UNL     1      22.615  -0.783  54.346  1.00  0.00     0.171 C 
HETATM   12  C1  UNL     1      21.307  -1.525  54.465  1.00  0.00     0.034 C 
ENDBRANCH  10  11
ENDBRANCH   6  10
BRANCH   7  13
HETATM   13  O4  UNL     1      21.975   2.041  51.424  1.00  0.00    -0.357 OA
HETATM   14  H20 UNL     1      21.157   1.516  51.721  1.00  0.00     0.217 HD
ENDBRANCH   7  13
BRANCH   8  15
HETATM   15  C11 UNL     1      24.026   3.066  49.800  1.00  0.00     0.114 C 
BRANCH  15  16
HETATM   16  S1  UNL     1      24.565   4.800  50.001  1.00  0.00    -0.162 SA
HETATM   17  C12 UNL     1      25.886   5.462  49.303  1.00  0.00     0.042 A 
HETATM   18  C13 UNL     1      26.130   6.848  49.593  1.00  0.00     0.043 A 
HETATM   19  C14 UNL     1      25.366   7.596  50.372  1.00  0.00     0.067 A 
HETATM   20  C15 UNL     1      24.148   7.175  51.078  1.00  0.00     0.049 A 
HETATM   21  C16 UNL     1      23.642   5.972  51.031  1.00  0.00    -0.029 A 
HETATM   22  C17 UNL     1      22.415   5.538  51.739  1.00  0.00     0.055 C 
BRANCH  19  23
HETATM   23  O3  UNL     1      25.754   8.940  50.549  1.00  0.00    -0.361 OA
HETATM   24  H15 UNL     1      26.730   9.194  50.350  1.00  0.00     0.217 HD
ENDBRANCH  19  23
ENDBRANCH  15  16
ENDBRANCH   8  15
ENDBRANCH   1   4
BRANCH   1  25
HETATM   25  C8  UNL     1      27.521  -0.631  53.284  1.00  0.00     0.237 C 
HETATM   26  N2  UNL     1      28.118  -0.381  54.556  1.00  0.00    -0.369 N 
HETATM   27  H8  UNL     1      28.592   0.010  55.412  1.00  0.00     0.159 HD
HETATM   28  H9  UNL     1      28.551  -0.211  55.487  1.00  0.00     0.159 HD
HETATM   29  O2  UNL     1      27.430  -1.878  53.396  1.00  0.00    -0.272 OA
ENDBRANCH   1  25
TORSDOF 8
ENDMDL
MODEL 3
REMARK VINA RESULT:      -7.6      3.887      6.781
REMARK  8 active torsions:
REMARK  status: ('A' for Active; 'I' for Inactive)
REMARK    1  A    between atoms: C2_2  and  O1_3 
REMARK    2  A    between atoms: O1_3  and  C3_4 
REMARK    3  A    between atoms: C5_6  and  C6_7 
REMARK    4  A    between atoms: C6_7  and  C8_10 
REMARK       I    between atoms: C8_10  and  N2_11 
REMARK    5  A    between atoms: C10_14  and  C11_15 
REMARK    6  A    between atoms: C11_15  and  S1_16 
REMARK    7  A    between atoms: C14_19  and  O3_20 
REMARK    8  A    between atoms: C18_24  and  O4_25 
ROOT
HETATM    1  C6  UNL     1      20.940   0.549  53.730  1.00  0.00     0.217 C 
HETATM    2  C7  UNL     1      19.797   0.104  52.914  1.00  0.00     0.078 C 
HETATM    3  N1  UNL     1      18.881  -0.233  52.274  1.00  0.00    -0.196 NA
ENDROOT
BRANCH   1   4
HETATM    4  C5  UNL     1      21.969   1.088  52.796  1.00  0.00    -0.028 A 
HETATM    5  C4  UNL     1      21.688   1.365  51.475  1.00  0.00     0.048 A 
HETATM    6  C3  UNL     1      22.683   1.866  50.652  1.00  0.00     0.102 A 
HETATM    7  C18 UNL     1      23.973   2.106  51.095  1.00  0.00     0.106 A 
HETATM    8  C10 UNL     1      24.261   1.830  52.414  1.00  0.00    -0.013 A 
HETATM    9  C9  UNL     1      23.263   1.333  53.225  1.00  0.00     0.020 A 
BRANCH   6  10
HETATM   10  O1  UNL     1      22.403   2.152  49.302  1.00  0.00    -0.349 OA
BRANCH  10  11
HETATM   11  C2  UNL     1      21.418   1.504  48.563  1.00  0.00     0.171 C 
HETATM   12  C1  UNL     1      20.246   2.379  48.197  1.00  0.00     0.034 C 
ENDBRANCH  10  11
ENDBRANCH   6  10
BRANCH   7  13
HETATM   13  O4  UNL     1      24.972   2.604  50.279  1.00  0.00    -0.357 OA
HETATM   14  H20 UNL     1      25.005   3.561  49.939  1.00  0.00     0.217 HD
ENDBRANCH   7  13
BRANCH   8  15
HETATM   15  C11 UNL     1      25.625   2.065  52.958  1.00  0.00     0.114 C 
BRANCH  15  16
HETATM   16  S1  UNL     1      26.689   0.583  53.062  1.00  0.00    -0.162 SA
HETATM   17  C12 UNL     1      26.224  -0.938  52.685  1.00  0.00     0.042 A 
HETATM   18  C13 UNL     1      27.221  -1.962  52.838  1.00  0.00     0.043 A 
HETATM   19  C14 UNL     1      28.457  -1.748  53.257  1.00  0.00     0.067 A 
HETATM   20  C15 UNL     1      29.047  -0.457  53.637  1.00  0.00     0.049 A 
HETATM   21  C16 UNL     1      28.413   0.684  53.615  1.00  0.00    -0.029 A 
HETATM   22  C17 UNL     1      28.998   1.990  53.997  1.00  0.00     0.055 C 
BRANCH  19  23
HETATM   23  O3  UNL     1      29.305  -2.871  53.349  1.00  0.00    -0.361 OA
HETATM   24  H15 UNL     1      28.877  -3.789  53.520  1.00  0.00     0.217 HD
ENDBRANCH  19  23
ENDBRANCH  15  16
ENDBRANCH   8  15
ENDBRANCH   1   4
BRANCH   1  25
HETATM   25  C8  UNL     1      21.435  -0.580  54.529  1.00  0.00     0.237 C 
HETATM   26  N2  UNL     1      20.506  -1.650  54.368  1.00  0.00    -0.369 N 
HETATM   27  H8  UNL     1      19.691  -2.283  54.153  1.00  0.00     0.159 HD
HETATM   28  H9  UNL     1      19.836  -2.438  54.257  1.00  0.00     0.159 HD
HETATM   29  O2  UNL     1      22.229  -1.175  55.299  1.00  0.00    -0.272 OA
ENDBRANCH   1  25
TORSDOF 8
ENDMDL
MODEL 4
REMARK VINA RESULT:      -7.6      3.265      6.985
REMARK  8 active torsions:
REMARK  status: ('A' for Active; 'I' for Inactive)
REMARK    1  A    between atoms: C2_2  and  O1_3 
REMARK    2  A    between atoms: O1_3  and  C3_4 
REMARK    3  A    between atoms: C5_6  and  C6_7 
REMARK    4  A    between atoms: C6_7  and  C8_10 
REMARK       I    between atoms: C8_10  and  N2_11 
REMARK    5  A    between atoms: C10_14  and  C11_15 
REMARK    6  A    between atoms: C11_15  and  S1_16 
REMARK    7  A    between atoms: C14_19  and  O3_20 
REMARK    8  A    between atoms: C18_24  and  O4_25 
ROOT
HETATM    1  C6  UNL     1      21.482  -0.374  52.887  1.00  0.00     0.217 C 
HETATM    2  C7  UNL     1      21.845  -0.852  54.232  1.00  0.00     0.078 C 
HETATM    3  N1  UNL     1      22.142  -1.246  55.290  1.00  0.00    -0.196 NA
ENDROOT
BRANCH   1   4
HETATM    4  C5  UNL     1      22.322   0.824  52.600  1.00  0.00    -0.028 A 
HETATM    5  C4  UNL     1      21.841   1.906  51.894  1.00  0.00     0.048 A 
HETATM    6  C3  UNL     1      22.665   2.993  51.658  1.00  0.00     0.102 A 
HETATM    7  C18 UNL     1      23.976   3.051  52.101  1.00  0.00     0.106 A 
HETATM    8  C10 UNL     1      24.464   1.973  52.807  1.00  0.00    -0.013 A 
HETATM    9  C9  UNL     1      23.634   0.896  53.037  1.00  0.00     0.020 A 
BRANCH   6  10
HETATM   10  O1  UNL     1      22.181   4.102  50.937  1.00  0.00    -0.349 OA
BRANCH  10  11
HETATM   11  C2  UNL     1      21.575   5.205  51.533  1.00  0.00     0.171 C 
HETATM   12  C1  UNL     1      22.038   6.532  50.985  1.00  0.00     0.034 C 
ENDBRANCH  10  11
ENDBRANCH   6  10
BRANCH   7  13
HETATM   13  O4  UNL     1      24.806   4.133  51.868  1.00  0.00    -0.357 OA
HETATM   14  H20 UNL     1      25.705   4.069  51.399  1.00  0.00     0.217 HD
ENDBRANCH   7  13
BRANCH   8  15
HETATM   15  C11 UNL     1      25.861   1.968  53.314  1.00  0.00     0.114 C 
BRANCH  15  16
HETATM   16  S1  UNL     1      26.727   0.363  53.198  1.00  0.00    -0.162 SA
HETATM   17  C12 UNL     1      26.071  -1.022  52.630  1.00  0.00     0.042 A 
HETATM   18  C13 UNL     1      26.929  -2.175  52.625  1.00  0.00     0.043 A 
HETATM   19  C14 UNL     1      28.184  -2.177  53.042  1.00  0.00     0.067 A 
HETATM   20  C15 UNL     1      28.935  -1.034  53.580  1.00  0.00     0.049 A 
HETATM   21  C16 UNL     1      28.452   0.171  53.723  1.00  0.00    -0.029 A 
HETATM   22  C17 UNL     1      29.201   1.328  54.264  1.00  0.00     0.055 C 
BRANCH  19  23
HETATM   23  O3  UNL     1      28.882  -3.400  52.966  1.00  0.00    -0.361 OA
HETATM   24  H15 UNL     1      29.126  -3.762  52.036  1.00  0.00     0.217 HD
ENDBRANCH  19  23
ENDBRANCH  15  16
ENDBRANCH   8  15
ENDBRANCH   1   4
BRANCH   1  25
HETATM   25  C8  UNL     1      20.043  -0.078  52.849  1.00  0.00     0.237 C 
HETATM   26  N2  UNL     1      19.431  -0.827  53.898  1.00  0.00    -0.369 N 
HETATM   27  H8  UNL     1      19.179  -1.481  54.684  1.00  0.00     0.159 HD
HETATM   28  H9  UNL     1      18.974  -1.366  54.661  1.00  0.00     0.159 HD
HETATM   29  O2  UNL     1      18.999   0.469  52.415  1.00  0.00    -0.272 OA
ENDBRANCH   1  25
TORSDOF 8
ENDMDL
MODEL 5
REMARK VINA RESULT:      -7.5      3.158      6.502
REMARK  8 active torsions:
REMARK  status: ('A' for Active; 'I' for Inactive)
REMARK    1  A    between atoms: C2_2  and  O1_3 
REMARK    2  A    between atoms: O1_3  and  C3_4 
REMARK    3  A    between atoms: C5_6  and  C6_7 
REMARK    4  A    between atoms: C6_7  and  C8_10 
REMARK       I    between atoms: C8_10  and  N2_11 
REMARK    5  A    between atoms: C10_14  and  C11_15 
REMARK    6  A    between atoms: C11_15  and  S1_16 
REMARK    7  A    between atoms: C14_19  and  O3_20 
REMARK    8  A    between atoms: C18_24  and  O4_25 
ROOT
HETATM    1  C6  UNL     1      25.455   5.204  49.069  1.00  0.00     0.217 C 
HETATM    2  C7  UNL     1      25.231   6.408  49.888  1.00  0.00     0.078 C 
HETATM    3  N1  UNL     1      25.040   7.369  50.523  1.00  0.00    -0.196 NA
ENDROOT
BRANCH   1   4
HETATM    4  C5  UNL     1      24.797   4.063  49.768  1.00  0.00    -0.028 A 
HETATM    5  C4  UNL     1      23.760   3.355  49.201  1.00  0.00     0.048 A 
HETATM    6  C3  UNL     1      23.187   2.303  49.895  1.00  0.00     0.102 A 
HETATM    7  C18 UNL     1      23.609   1.918  51.156  1.00  0.00     0.106 A 
HETATM    8  C10 UNL     1      24.645   2.622  51.730  1.00  0.00    -0.013 A 
HETATM    9  C9  UNL     1      25.209   3.667  51.030  1.00  0.00     0.020 A 
BRANCH   6  10
HETATM   10  O1  UNL     1      22.126   1.574  49.322  1.00  0.00    -0.349 OA
BRANCH  10  11
HETATM   11  C2  UNL     1      21.177   2.132  48.470  1.00  0.00     0.171 C 
HETATM   12  C1  UNL     1      19.785   2.184  49.049  1.00  0.00     0.034 C 
ENDBRANCH  10  11
ENDBRANCH   6  10
BRANCH   7  13
HETATM   13  O4  UNL     1      23.040   0.869  51.857  1.00  0.00    -0.357 OA
HETATM   14  H20 UNL     1      22.243   0.966  52.479  1.00  0.00     0.217 HD
ENDBRANCH   7  13
BRANCH   8  15
HETATM   15  C11 UNL     1      25.151   2.262  53.081  1.00  0.00     0.114 C 
BRANCH  15  16
HETATM   16  S1  UNL     1      26.314   0.854  53.129  1.00  0.00    -0.162 SA
HETATM   17  C12 UNL     1      25.909  -0.710  52.892  1.00  0.00     0.042 A 
HETATM   18  C13 UNL     1      26.981  -1.664  52.973  1.00  0.00     0.043 A 
HETATM   19  C14 UNL     1      28.242  -1.353  53.222  1.00  0.00     0.067 A 
HETATM   20  C15 UNL     1      28.788  -0.010  53.459  1.00  0.00     0.049 A 
HETATM   21  C16 UNL     1      28.082   1.089  53.457  1.00  0.00    -0.029 A 
HETATM   22  C17 UNL     1      28.623   2.447  53.695  1.00  0.00     0.055 C 
BRANCH  19  23
HETATM   23  O3  UNL     1      29.167  -2.417  53.266  1.00  0.00    -0.361 OA
HETATM   24  H15 UNL     1      29.068  -3.115  54.013  1.00  0.00     0.217 HD
ENDBRANCH  19  23
ENDBRANCH  15  16
ENDBRANCH   8  15
ENDBRANCH   1   4
BRANCH   1  25
HETATM   25  C8  UNL     1      26.899   5.002  48.890  1.00  0.00     0.237 C 
HETATM   26  N2  UNL     1      27.532   6.262  49.104  1.00  0.00    -0.369 N 
HETATM   27  H8  UNL     1      27.789   7.273  49.256  1.00  0.00     0.159 HD
HETATM   28  H9  UNL     1      28.005   7.176  49.261  1.00  0.00     0.159 HD
HETATM   29  O2  UNL     1      27.940   4.342  48.649  1.00  0.00    -0.272 OA
ENDBRANCH   1  25
TORSDOF 8
ENDMDL
MODEL 6
REMARK VINA RESULT:      -7.4      2.962      4.969
REMARK  8 active torsions:
REMARK  status: ('A' for Active; 'I' for Inactive)
REMARK    1  A    between atoms: C2_2  and  O1_3 
REMARK    2  A    between atoms: O1_3  and  C3_4 
REMARK    3  A    between atoms: C5_6  and  C6_7 
REMARK    4  A    between atoms: C6_7  and  C8_10 
REMARK       I    between atoms: C8_10  and  N2_11 
REMARK    5  A    between atoms: C10_14  and  C11_15 
REMARK    6  A    between atoms: C11_15  and  S1_16 
REMARK    7  A    between atoms: C14_19  and  O3_20 
REMARK    8  A    between atoms: C18_24  and  O4_25 
ROOT
HETATM    1  C6  UNL     1      22.486  -0.799  52.890  1.00  0.00     0.217 C 
HETATM    2  C7  UNL     1      22.150  -1.459  54.163  1.00  0.00     0.078 C 
HETATM    3  N1  UNL     1      21.891  -1.998  55.166  1.00  0.00    -0.196 NA
ENDROOT
BRANCH   1   4
HETATM    4  C5  UNL     1      23.644   0.103  53.149  1.00  0.00    -0.028 A 
HETATM    5  C4  UNL     1      24.877  -0.378  53.534  1.00  0.00     0.048 A 
HETATM    6  C3  UNL     1      25.919   0.505  53.760  1.00  0.00     0.102 A 
HETATM    7  C18 UNL     1      25.784   1.876  53.618  1.00  0.00     0.106 A 
HETATM    8  C10 UNL     1      24.554   2.364  53.235  1.00  0.00    -0.013 A 
HETATM    9  C9  UNL     1      23.524   1.475  53.011  1.00  0.00     0.020 A 
BRANCH   6  10
HETATM   10  O1  UNL     1      27.182   0.021  54.153  1.00  0.00    -0.349 OA
BRANCH  10  11
HETATM   11  C2  UNL     1      28.088  -0.572  53.279  1.00  0.00     0.171 C 
HETATM   12  C1  UNL     1      29.520  -0.521  53.748  1.00  0.00     0.034 C 
ENDBRANCH  10  11
ENDBRANCH   6  10
BRANCH   7  13
HETATM   13  O4  UNL     1      26.819   2.765  53.844  1.00  0.00    -0.357 OA
HETATM   14  H20 UNL     1      27.014   3.195  54.743  1.00  0.00     0.217 HD
ENDBRANCH   7  13
BRANCH   8  15
HETATM   15  C11 UNL     1      24.338   3.825  53.062  1.00  0.00     0.114 C 
BRANCH  15  16
HETATM   16  S1  UNL     1      23.936   4.358  51.361  1.00  0.00    -0.162 SA
HETATM   17  C12 UNL     1      25.029   4.807  50.232  1.00  0.00     0.042 A 
HETATM   18  C13 UNL     1      24.500   5.192  48.953  1.00  0.00     0.043 A 
HETATM   19  C14 UNL     1      23.213   5.202  48.647  1.00  0.00     0.067 A 
HETATM   20  C15 UNL     1      22.096   4.833  49.528  1.00  0.00     0.049 A 
HETATM   21  C16 UNL     1      22.226   4.434  50.764  1.00  0.00    -0.029 A 
HETATM   22  C17 UNL     1      21.106   4.060  51.659  1.00  0.00     0.055 C 
BRANCH  19  23
HETATM   23  O3  UNL     1      22.868   5.609  47.342  1.00  0.00    -0.361 OA
HETATM   24  H15 UNL     1      22.981   4.931  46.578  1.00  0.00     0.217 HD
ENDBRANCH  19  23
ENDBRANCH  15  16
ENDBRANCH   8  15
ENDBRANCH   1   4
BRANCH   1  25
HETATM   25  C8  UNL     1      21.307  -0.078  52.390  1.00  0.00     0.237 C 
HETATM   26  N2  UNL     1      20.365  -0.019  53.460  1.00  0.00    -0.369 N 
HETATM   27  H8  UNL     1      19.807  -0.123  54.348  1.00  0.00     0.159 HD
HETATM   28  H9  UNL     1      19.671   0.032  54.233  1.00  0.00     0.159 HD
HETATM   29  O2  UNL     1      20.620   0.540  51.540  1.00  0.00    -0.272 OA
ENDBRANCH   1  25
TORSDOF 8
ENDMDL
MODEL 7
REMARK VINA RESULT:      -7.3      2.475      4.259
REMARK  8 active torsions:
REMARK  status: ('A' for Active; 'I' for Inactive)
REMARK    1  A    between atoms: C2_2  and  O1_3 
REMARK    2  A    between atoms: O1_3  and  C3_4 
REMARK    3  A    between atoms: C5_6  and  C6_7 
REMARK    4  A    between atoms: C6_7  and  C8_10 
REMARK       I    between atoms: C8_10  and  N2_11 
REMARK    5  A    between atoms: C10_14  and  C11_15 
REMARK    6  A    between atoms: C11_15  and  S1_16 
REMARK    7  A    between atoms: C14_19  and  O3_20 
REMARK    8  A    between atoms: C18_24  and  O4_25 
ROOT
HETATM    1  C6  UNL     1      23.119  -0.201  52.952  1.00  0.00     0.217 C 
HETATM    2  C7  UNL     1      23.070  -0.794  54.300  1.00  0.00     0.078 C 
HETATM    3  N1  UNL     1      23.034  -1.282  55.360  1.00  0.00    -0.196 NA
ENDROOT
BRANCH   1   4
HETATM    4  C5  UNL     1      24.406   0.544  52.842  1.00  0.00    -0.028 A 
HETATM    5  C4  UNL     1      25.366   0.500  53.830  1.00  0.00     0.048 A 
HETATM    6  C3  UNL     1      26.544   1.211  53.674  1.00  0.00     0.102 A 
HETATM    7  C18 UNL     1      26.813   1.980  52.555  1.00  0.00     0.106 A 
HETATM    8  C10 UNL     1      25.858   2.029  51.563  1.00  0.00    -0.013 A 
HETATM    9  C9  UNL     1      24.689   1.316  51.728  1.00  0.00     0.020 A 
BRANCH   6  10
HETATM   10  O1  UNL     1      27.529   1.172  54.680  1.00  0.00    -0.349 OA
BRANCH  10  11
HETATM   11  C2  UNL     1      28.338   0.066  54.926  1.00  0.00     0.171 C 
HETATM   12  C1  UNL     1      29.444  -0.125  53.919  1.00  0.00     0.034 C 
ENDBRANCH  10  11
ENDBRANCH   6  10
BRANCH   7  13
HETATM   13  O4  UNL     1      27.987   2.694  52.393  1.00  0.00    -0.357 OA
HETATM   14  H20 UNL     1      28.814   2.331  51.928  1.00  0.00     0.217 HD
ENDBRANCH   7  13
BRANCH   8  15
HETATM   15  C11 UNL     1      26.081   2.833  50.333  1.00  0.00     0.114 C 
BRANCH  15  16
HETATM   16  S1  UNL     1      25.315   4.492  50.337  1.00  0.00    -0.162 SA
HETATM   17  C12 UNL     1      23.974   4.908  51.172  1.00  0.00     0.042 A 
HETATM   18  C13 UNL     1      23.537   6.270  51.035  1.00  0.00     0.043 A 
HETATM   19  C14 UNL     1      24.144   7.180  50.291  1.00  0.00     0.067 A 
HETATM   20  C15 UNL     1      25.353   6.989  49.478  1.00  0.00     0.049 A 
HETATM   21  C16 UNL     1      26.009   5.865  49.376  1.00  0.00    -0.029 A 
HETATM   22  C17 UNL     1      27.228   5.663  48.560  1.00  0.00     0.055 C 
BRANCH  19  23
HETATM   23  O3  UNL     1      23.579   8.472  50.271  1.00  0.00    -0.361 OA
HETATM   24  H15 UNL     1      23.239   8.839  49.374  1.00  0.00     0.217 HD
ENDBRANCH  19  23
ENDBRANCH  15  16
ENDBRANCH   8  15
ENDBRANCH   1   4
BRANCH   1  25
HETATM   25  C8  UNL     1      21.947   0.662  52.758  1.00  0.00     0.237 C 
HETATM   26  N2  UNL     1      21.202   0.123  51.667  1.00  0.00    -0.369 N 
HETATM   27  H8  UNL     1      20.835  -0.402  50.830  1.00  0.00     0.159 HD
HETATM   28  H9  UNL     1      20.649  -0.262  50.873  1.00  0.00     0.159 HD
HETATM   29  O2  UNL     1      21.189   1.634  53.001  1.00  0.00    -0.272 OA
ENDBRANCH   1  25
TORSDOF 8
ENDMDL
MODEL 8
REMARK VINA RESULT:      -7.2      3.093      5.941
REMARK  8 active torsions:
REMARK  status: ('A' for Active; 'I' for Inactive)
REMARK    1  A    between atoms: C2_2  and  O1_3 
REMARK    2  A    between atoms: O1_3  and  C3_4 
REMARK    3  A    between atoms: C5_6  and  C6_7 
REMARK    4  A    between atoms: C6_7  and  C8_10 
REMARK       I    between atoms: C8_10  and  N2_11 
REMARK    5  A    between atoms: C10_14  and  C11_15 
REMARK    6  A    between atoms: C11_15  and  S1_16 
REMARK    7  A    between atoms: C14_19  and  O3_20 
REMARK    8  A    between atoms: C18_24  and  O4_25 
ROOT
HETATM    1  C6  UNL     1      24.544   3.086  50.128  1.00  0.00     0.217 C 
HETATM    2  C7  UNL     1      23.860   4.371  49.900  1.00  0.00     0.078 C 
HETATM    3  N1  UNL     1      23.311   5.382  49.703  1.00  0.00    -0.196 NA
ENDROOT
BRANCH   1   4
HETATM    4  C5  UNL     1      23.782   2.358  51.182  1.00  0.00    -0.028 A 
HETATM    5  C4  UNL     1      22.438   2.576  51.399  1.00  0.00     0.048 A 
HETATM    6  C3  UNL     1      21.780   1.870  52.391  1.00  0.00     0.102 A 
HETATM    7  C18 UNL     1      22.413   0.937  53.195  1.00  0.00     0.106 A 
HETATM    8  C10 UNL     1      23.757   0.714  52.984  1.00  0.00    -0.013 A 
HETATM    9  C9  UNL     1      24.402   1.422  51.992  1.00  0.00     0.020 A 
BRANCH   6  10
HETATM   10  O1  UNL     1      20.407   2.087  52.618  1.00  0.00    -0.349 OA
BRANCH  10  11
HETATM   11  C2  UNL     1      19.409   1.735  51.715  1.00  0.00     0.171 C 
HETATM   12  C1  UNL     1      19.304   0.252  51.460  1.00  0.00     0.034 C 
ENDBRANCH  10  11
ENDBRANCH   6  10
BRANCH   7  13
HETATM   13  O4  UNL     1      21.762   0.229  54.189  1.00  0.00    -0.357 OA
HETATM   14  H20 UNL     1      21.588   0.588  55.122  1.00  0.00     0.217 HD
ENDBRANCH   7  13
BRANCH   8  15
HETATM   15  C11 UNL     1      24.501  -0.274  53.809  1.00  0.00     0.114 C 
BRANCH  15  16
HETATM   16  S1  UNL     1      26.319  -0.093  53.792  1.00  0.00    -0.162 SA
HETATM   17  C12 UNL     1      27.151   1.115  54.512  1.00  0.00     0.042 A 
HETATM   18  C13 UNL     1      28.581   1.070  54.377  1.00  0.00     0.043 A 
HETATM   19  C14 UNL     1      29.242   0.131  53.721  1.00  0.00     0.067 A 
HETATM   20  C15 UNL     1      28.665  -1.024  53.017  1.00  0.00     0.049 A 
HETATM   21  C16 UNL     1      27.388  -1.285  52.942  1.00  0.00    -0.029 A 
HETATM   22  C17 UNL     1      26.798  -2.445  52.235  1.00  0.00     0.055 C 
BRANCH  19  23
HETATM   23  O3  UNL     1      30.647   0.240  53.688  1.00  0.00    -0.361 OA
HETATM   24  H15 UNL     1      31.204  -0.598  53.896  1.00  0.00     0.217 HD
ENDBRANCH  19  23
ENDBRANCH  15  16
ENDBRANCH   8  15
ENDBRANCH   1   4
BRANCH   1  25
HETATM   25  C8  UNL     1      25.939   3.340  50.512  1.00  0.00     0.237 C 
HETATM   26  N2  UNL     1      26.221   4.704  50.199  1.00  0.00    -0.369 N 
HETATM   27  H8  UNL     1      26.232   5.701  49.860  1.00  0.00     0.159 HD
HETATM   28  H9  UNL     1      26.437   5.697  49.978  1.00  0.00     0.159 HD
HETATM   29  O2  UNL     1      27.070   3.047  50.971  1.00  0.00    -0.272 OA
ENDBRANCH   1  25
TORSDOF 8
ENDMDL
MODEL 9
REMARK VINA RESULT:      -7.1      1.926      2.848
REMARK  8 active torsions:
REMARK  status: ('A' for Active; 'I' for Inactive)
REMARK    1  A    between atoms: C2_2  and  O1_3 
REMARK    2  A    between atoms: O1_3  and  C3_4 
REMARK    3  A    between atoms: C5_6  and  C6_7 
REMARK    4  A    between atoms: C6_7  and  C8_10 
REMARK       I    between atoms: C8_10  and  N2_11 
REMARK    5  A    between atoms: C10_14  and  C11_15 
REMARK    6  A    between atoms: C11_15  and  S1_16 
REMARK    7  A    between atoms: C14_19  and  O3_20 
REMARK    8  A    between atoms: C18_24  and  O4_25 
ROOT
HETATM    1  C6  UNL     1      25.783  -0.431  54.033  1.00  0.00     0.217 C 
HETATM    2  C7  UNL     1      26.314  -1.321  52.986  1.00  0.00     0.078 C 
HETATM    3  N1  UNL     1      26.730  -2.043  52.168  1.00  0.00    -0.196 NA
ENDROOT
BRANCH   1   4
HETATM    4  C5  UNL     1      24.534   0.185  53.500  1.00  0.00    -0.028 A 
HETATM    5  C4  UNL     1      23.370  -0.536  53.341  1.00  0.00     0.048 A 
HETATM    6  C3  UNL     1      22.239   0.087  52.843  1.00  0.00     0.102 A 
HETATM    7  C18 UNL     1      22.216   1.425  52.486  1.00  0.00     0.106 A 
HETATM    8  C10 UNL     1      23.376   2.153  52.641  1.00  0.00    -0.013 A 
HETATM    9  C9  UNL     1      24.496   1.521  53.139  1.00  0.00     0.020 A 
BRANCH   6  10
HETATM   10  O1  UNL     1      21.046  -0.643  52.678  1.00  0.00    -0.349 OA
BRANCH  10  11
HETATM   11  C2  UNL     1      20.030  -0.687  53.628  1.00  0.00     0.171 C 
HETATM   12  C1  UNL     1      18.652  -0.881  53.048  1.00  0.00     0.034 C 
ENDBRANCH  10  11
ENDBRANCH   6  10
BRANCH   7  13
HETATM   13  O4  UNL     1      21.090   2.055  51.986  1.00  0.00    -0.357 OA
HETATM   14  H20 UNL     1      20.746   2.952  52.315  1.00  0.00     0.217 HD
ENDBRANCH   7  13
BRANCH   8  15
HETATM   15  C11 UNL     1      23.422   3.594  52.280  1.00  0.00     0.114 C 
BRANCH  15  16
HETATM   16  S1  UNL     1      24.711   4.053  51.068  1.00  0.00    -0.162 SA
HETATM   17  C12 UNL     1      25.795   3.022  50.411  1.00  0.00     0.042 A 
HETATM   18  C13 UNL     1      26.726   3.591  49.475  1.00  0.00     0.043 A 
HETATM   19  C14 UNL     1      26.752   4.867  49.127  1.00  0.00     0.067 A 
HETATM   20  C15 UNL     1      25.861   5.931  49.611  1.00  0.00     0.049 A 
HETATM   21  C16 UNL     1      24.897   5.756  50.474  1.00  0.00    -0.029 A 
HETATM   22  C17 UNL     1      23.995   6.821  50.968  1.00  0.00     0.055 C 
BRANCH  19  23
HETATM   23  O3  UNL     1      27.734   5.256  48.193  1.00  0.00    -0.361 OA
HETATM   24  H15 UNL     1      27.581   6.120  47.659  1.00  0.00     0.217 HD
ENDBRANCH  19  23
ENDBRANCH  15  16
ENDBRANCH   8  15
ENDBRANCH   1   4
BRANCH   1  25
HETATM   25  C8  UNL     1      26.802   0.568  54.384  1.00  0.00     0.237 C 
HETATM   26  N2  UNL     1      27.938  -0.143  54.871  1.00  0.00    -0.369 N 
HETATM   27  H8  UNL     1      28.639  -0.843  55.231  1.00  0.00     0.159 HD
HETATM   28  H9  UNL     1      28.775  -0.650  55.226  1.00  0.00     0.159 HD
HETATM   29  O2  UNL     1      27.273   1.725  54.510  1.00  0.00    -0.272 OA
ENDBRANCH   1  25
TORSDOF 8
ENDMDL
