MODEL 1
REMARK VINA RESULT:      -7.9      0.000      0.000
REMARK  7 active torsions:
REMARK  status: ('A' for Active; 'I' for Inactive)
REMARK    1  A    between atoms: C2_2  and  C3_3 
REMARK    2  A    between atoms: C4_4  and  C5_5 
REMARK    3  A    between atoms: C15_18  and  C16_19 
REMARK       I    between atoms: C16_19  and  N3_21 
REMARK    4  A    between atoms: N3_21  and  C17_22 
REMARK    5  A    between atoms: C17_22  and  C18_23 
REMARK    6  A    between atoms: C18_23  and  N4_24 
REMARK    7  A    between atoms: N4_24  and  C20_26 
ROOT
HETATM    1  C3  UNL     1      22.376   0.406  52.777  1.00  0.00    -0.004 A 
HETATM    2  C4  UNL     1      23.546   0.836  53.149  1.00  0.00     0.114 A 
HETATM    3  O1  UNL     1      23.710   2.195  52.957  1.00  0.00    -0.237 OA
HETATM    4  N2  UNL     1      22.825   3.065  52.453  1.00  0.00    -0.264 N 
HETATM    5  C13 UNL     1      21.577   2.559  52.067  1.00  0.00     0.045 A 
HETATM    6  C14 UNL     1      20.701   3.612  51.525  1.00  0.00     0.071 C 
HETATM    7  C15 UNL     1      21.340   1.283  52.215  1.00  0.00     0.065 A 
HETATM    8  H16 UNL     1      23.166   4.041  52.401  1.00  0.00     0.194 HD
ENDROOT
BRANCH   2   9
HETATM    9  C5  UNL     1      24.633   0.033  53.725  1.00  0.00    -0.001 C 
HETATM   10  C6  UNL     1      25.635   0.118  52.867  1.00  0.00    -0.060 C 
HETATM   11  C7  UNL     1      26.635   0.787  51.940  1.00  0.00     0.071 C 
HETATM   12  C11 UNL     1      26.475  -1.220  52.752  1.00  0.00     0.092 C 
HETATM   13  C8  UNL     1      27.856   0.571  52.986  1.00  0.00    -0.057 C 
HETATM   14  C9  UNL     1      29.247   0.851  53.511  1.00  0.00     0.046 C 
HETATM   15  C10 UNL     1      27.144  -0.268  53.794  1.00  0.00     0.011 C 
HETATM   16  N1  UNL     1      26.576  -0.558  55.062  1.00  0.00    -0.388 N 
HETATM   17  C12 UNL     1      25.059  -0.768  54.892  1.00  0.00     0.161 C 
HETATM   18  H13 UNL     1      27.434  -0.502  55.721  1.00  0.00     0.159 HD
ENDBRANCH   2   9
BRANCH   1  19
HETATM   19  C2  UNL     1      22.016  -1.005  52.901  1.00  0.00     0.038 C 
HETATM   20  C1  UNL     1      21.442  -1.215  54.294  1.00  0.00     0.010 C 
ENDBRANCH   1  19
BRANCH   7  21
HETATM   21  C16 UNL     1      20.052   0.750  51.869  1.00  0.00     0.254 C 
HETATM   22  O2  UNL     1      19.500   0.246  50.831  1.00  0.00    -0.268 OA
HETATM   23  N3  UNL     1      18.819   0.513  52.428  1.00  0.00    -0.355 N 
HETATM   24  H20 UNL     1      18.764   0.798  53.424  1.00  0.00     0.162 HD
BRANCH  23  25
HETATM   25  C17 UNL     1      17.693  -0.064  51.759  1.00  0.00     0.153 C 
BRANCH  25  26
HETATM   26  C18 UNL     1      16.905  -0.841  52.798  1.00  0.00     0.291 C 
BRANCH  26  27
HETATM   27  N4  UNL     1      17.109  -2.255  52.696  1.00  0.00     0.085 N 
HETATM   28  C19 UNL     1      17.957  -2.648  53.818  1.00  0.00     0.309 C 
BRANCH  27  29
HETATM   29  C20 UNL     1      15.917  -3.047  52.765  1.00  0.00     0.267 C 
HETATM   30  C21 UNL     1      16.301  -4.381  53.416  1.00  0.00     0.037 C 
ENDBRANCH  27  29
ENDBRANCH  26  27
ENDBRANCH  25  26
ENDBRANCH  23  25
ENDBRANCH   7  21
TORSDOF 7
ENDMDL
MODEL 2
REMARK VINA RESULT:      -7.8      1.636      2.295
REMARK  7 active torsions:
REMARK  status: ('A' for Active; 'I' for Inactive)
REMARK    1  A    between atoms: C2_2  and  C3_3 
REMARK    2  A    between atoms: C4_4  and  C5_5 
REMARK    3  A    between atoms: C15_18  and  C16_19 
REMARK       I    between atoms: C16_19  and  N3_21 
REMARK    4  A    between atoms: N3_21  and  C17_22 
REMARK    5  A    between atoms: C17_22  and  C18_23 
REMARK    6  A    between atoms: C18_23  and  N4_24 
REMARK    7  A    between atoms: N4_24  and  C20_26 
ROOT
HETATM    1  C3  UNL     1      22.802   1.775  52.590  1.00  0.00    -0.004 A 
HETATM    2  C4  UNL     1      24.035   1.760  53.006  1.00  0.00     0.114 A 
HETATM    3  O1  UNL     1      24.619   3.013  53.015  1.00  0.00    -0.237 OA
HETATM    4  N2  UNL     1      24.065   4.179  52.657  1.00  0.00    -0.264 N 
HETATM    5  C13 UNL     1      22.735   4.149  52.217  1.00  0.00     0.045 A 
HETATM    6  C14 UNL     1      22.248   5.490  51.850  1.00  0.00     0.071 C 
HETATM    7  C15 UNL     1      22.110   3.003  52.179  1.00  0.00     0.065 A 
HETATM    8  H16 UNL     1      24.693   4.996  52.745  1.00  0.00     0.194 HD
ENDROOT
BRANCH   2   9
HETATM    9  C5  UNL     1      24.799   0.584  53.441  1.00  0.00    -0.001 C 
HETATM   10  C6  UNL     1      25.898   0.577  52.707  1.00  0.00    -0.060 C 
HETATM   11  C7  UNL     1      27.149   1.133  52.048  1.00  0.00     0.071 C 
HETATM   12  C11 UNL     1      26.385  -0.881  52.325  1.00  0.00     0.092 C 
HETATM   13  C8  UNL     1      28.124   0.366  53.094  1.00  0.00    -0.057 C 
HETATM   14  C9  UNL     1      29.456   0.131  53.771  1.00  0.00     0.046 C 
HETATM   15  C10 UNL     1      27.123  -0.402  53.615  1.00  0.00     0.011 C 
HETATM   16  N1  UNL     1      26.334  -0.796  54.727  1.00  0.00    -0.388 N 
HETATM   17  C12 UNL     1      24.850  -0.539  54.401  1.00  0.00     0.161 C 
HETATM   18  H13 UNL     1      27.082  -1.124  55.440  1.00  0.00     0.159 HD
ENDBRANCH   2   9
BRANCH   1  19
HETATM   19  C2  UNL     1      22.018   0.544  52.509  1.00  0.00     0.038 C 
HETATM   20  C1  UNL     1      21.325   0.348  53.848  1.00  0.00     0.010 C 
ENDBRANCH   1  19
BRANCH   7  21
HETATM   21  C16 UNL     1      20.732   2.954  51.774  1.00  0.00     0.254 C 
HETATM   22  O2  UNL     1      19.591   3.124  52.328  1.00  0.00    -0.268 OA
HETATM   23  N3  UNL     1      19.963   2.718  50.659  1.00  0.00    -0.355 N 
HETATM   24  H20 UNL     1      20.528   2.504  49.815  1.00  0.00     0.162 HD
BRANCH  23  25
HETATM   25  C17 UNL     1      18.534   2.751  50.605  1.00  0.00     0.153 C 
BRANCH  25  26
HETATM   26  C18 UNL     1      18.084   1.497  49.876  1.00  0.00     0.291 C 
BRANCH  26  27
HETATM   27  N4  UNL     1      17.455   0.552  50.748  1.00  0.00     0.085 N 
HETATM   28  C19 UNL     1      16.671  -0.350  49.909  1.00  0.00     0.309 C 
BRANCH  27  29
HETATM   29  C20 UNL     1      18.353  -0.255  51.518  1.00  0.00     0.267 C 
HETATM   30  C21 UNL     1      17.503  -1.038  52.526  1.00  0.00     0.037 C 
ENDBRANCH  27  29
ENDBRANCH  26  27
ENDBRANCH  25  26
ENDBRANCH  23  25
ENDBRANCH   7  21
TORSDOF 7
ENDMDL
MODEL 3
REMARK VINA RESULT:      -7.2      2.246      8.483
REMARK  7 active torsions:
REMARK  status: ('A' for Active; 'I' for Inactive)
REMARK    1  A    between atoms: C2_2  and  C3_3 
REMARK    2  A    between atoms: C4_4  and  C5_5 
REMARK    3  A    between atoms: C15_18  and  C16_19 
REMARK       I    between atoms: C16_19  and  N3_21 
REMARK    4  A    between atoms: N3_21  and  C17_22 
REMARK    5  A    between atoms: C17_22  and  C18_23 
REMARK    6  A    between atoms: C18_23  and  N4_24 
REMARK    7  A    between atoms: N4_24  and  C20_26 
ROOT
HETATM    1  C3  UNL     1      21.973   0.876  52.720  1.00  0.00    -0.004 A 
HETATM    2  C4  UNL     1      20.688   0.850  52.919  1.00  0.00     0.114 A 
HETATM    3  O1  UNL     1      20.322   0.070  54.001  1.00  0.00    -0.237 OA
HETATM    4  N2  UNL     1      21.123  -0.623  54.820  1.00  0.00    -0.264 N 
HETATM    5  C13 UNL     1      22.501  -0.566  54.570  1.00  0.00     0.045 A 
HETATM    6  C14 UNL     1      23.268  -1.372  55.535  1.00  0.00     0.071 C 
HETATM    7  C15 UNL     1      22.930   0.151  53.566  1.00  0.00     0.065 A 
HETATM    8  H16 UNL     1      20.628  -1.139  55.568  1.00  0.00     0.194 HD
ENDROOT
BRANCH   2   9
HETATM    9  C5  UNL     1      19.664   1.548  52.131  1.00  0.00    -0.001 C 
HETATM   10  C6  UNL     1      18.863   0.605  51.667  1.00  0.00    -0.060 C 
HETATM   11  C7  UNL     1      17.976  -0.627  51.708  1.00  0.00     0.071 C 
HETATM   12  C11 UNL     1      18.315   0.910  50.212  1.00  0.00     0.092 C 
HETATM   13  C8  UNL     1      16.621   0.258  51.583  1.00  0.00    -0.057 C 
HETATM   14  C9  UNL     1      15.125   0.454  51.683  1.00  0.00     0.046 C 
HETATM   15  C10 UNL     1      17.286   1.410  51.276  1.00  0.00     0.011 C 
HETATM   16  N1  UNL     1      17.620   2.752  51.593  1.00  0.00    -0.388 N 
HETATM   17  C12 UNL     1      19.153   2.870  51.709  1.00  0.00     0.161 C 
HETATM   18  H13 UNL     1      16.648   3.225  51.666  1.00  0.00     0.159 HD
ENDBRANCH   2   9
BRANCH   1  19
HETATM   19  C2  UNL     1      22.551   1.647  51.621  1.00  0.00     0.038 C 
HETATM   20  C1  UNL     1      22.764   3.069  52.116  1.00  0.00     0.010 C 
ENDBRANCH   1  19
BRANCH   7  21
HETATM   21  C16 UNL     1      24.341   0.261  53.318  1.00  0.00     0.254 C 
HETATM   22  O2  UNL     1      25.261   1.123  53.535  1.00  0.00    -0.268 OA
HETATM   23  N3  UNL     1      25.377  -0.449  52.758  1.00  0.00    -0.355 N 
HETATM   24  H20 UNL     1      25.080  -1.371  52.385  1.00  0.00     0.162 HD
BRANCH  23  25
HETATM   25  C17 UNL     1      26.738  -0.017  52.672  1.00  0.00     0.153 C 
BRANCH  25  26
HETATM   26  C18 UNL     1      27.606  -1.188  53.095  1.00  0.00     0.291 C 
BRANCH  26  27
HETATM   27  N4  UNL     1      28.626  -0.805  54.025  1.00  0.00     0.085 N 
HETATM   28  C19 UNL     1      29.827  -0.512  53.248  1.00  0.00     0.309 C 
BRANCH  27  29
HETATM   29  C20 UNL     1      28.329   0.359  54.806  1.00  0.00     0.267 C 
HETATM   30  C21 UNL     1      29.362   1.428  54.429  1.00  0.00     0.037 C 
ENDBRANCH  27  29
ENDBRANCH  26  27
ENDBRANCH  25  26
ENDBRANCH  23  25
ENDBRANCH   7  21
TORSDOF 7
ENDMDL
MODEL 4
REMARK VINA RESULT:      -7.2      3.523      6.351
REMARK  7 active torsions:
REMARK  status: ('A' for Active; 'I' for Inactive)
REMARK    1  A    between atoms: C2_2  and  C3_3 
REMARK    2  A    between atoms: C4_4  and  C5_5 
REMARK    3  A    between atoms: C15_18  and  C16_19 
REMARK       I    between atoms: C16_19  and  N3_21 
REMARK    4  A    between atoms: N3_21  and  C17_22 
REMARK    5  A    between atoms: C17_22  and  C18_23 
REMARK    6  A    between atoms: C18_23  and  N4_24 
REMARK    7  A    between atoms: N4_24  and  C20_26 
ROOT
HETATM    1  C3  UNL     1      24.140   2.196  51.348  1.00  0.00    -0.004 A 
HETATM    2  C4  UNL     1      24.326   1.427  52.382  1.00  0.00     0.114 A 
HETATM    3  O1  UNL     1      23.325   0.487  52.544  1.00  0.00    -0.237 OA
HETATM    4  N2  UNL     1      22.242   0.302  51.779  1.00  0.00    -0.264 N 
HETATM    5  C13 UNL     1      22.082   1.150  50.676  1.00  0.00     0.045 A 
HETATM    6  C14 UNL     1      20.854   0.848  49.922  1.00  0.00     0.071 C 
HETATM    7  C15 UNL     1      22.985   2.067  50.451  1.00  0.00     0.065 A 
HETATM    8  H16 UNL     1      21.623  -0.467  52.092  1.00  0.00     0.194 HD
ENDROOT
BRANCH   2   9
HETATM    9  C5  UNL     1      25.451   1.481  53.323  1.00  0.00    -0.001 C 
HETATM   10  C6  UNL     1      25.873   0.235  53.450  1.00  0.00    -0.060 C 
HETATM   11  C7  UNL     1      26.325  -1.146  53.006  1.00  0.00     0.071 C 
HETATM   12  C11 UNL     1      26.371  -0.111  54.914  1.00  0.00     0.092 C 
HETATM   13  C8  UNL     1      27.875  -0.832  53.368  1.00  0.00    -0.057 C 
HETATM   14  C9  UNL     1      29.360  -1.113  53.297  1.00  0.00     0.046 C 
HETATM   15  C10 UNL     1      27.587   0.324  54.035  1.00  0.00     0.011 C 
HETATM   16  N1  UNL     1      27.721   1.731  54.160  1.00  0.00    -0.388 N 
HETATM   17  C12 UNL     1      26.319   2.371  54.124  1.00  0.00     0.161 C 
HETATM   18  H13 UNL     1      28.796   1.860  54.215  1.00  0.00     0.159 HD
ENDBRANCH   2   9
BRANCH   1  19
HETATM   19  C2  UNL     1      25.093   3.253  51.013  1.00  0.00     0.038 C 
HETATM   20  C1  UNL     1      26.288   2.600  50.336  1.00  0.00     0.010 C 
ENDBRANCH   1  19
BRANCH   7  21
HETATM   21  C16 UNL     1      22.867   2.919  49.300  1.00  0.00     0.254 C 
HETATM   22  O2  UNL     1      23.070   2.820  48.041  1.00  0.00    -0.268 OA
HETATM   23  N3  UNL     1      22.497   4.201  48.965  1.00  0.00    -0.355 N 
HETATM   24  H20 UNL     1      22.199   4.764  49.784  1.00  0.00     0.162 HD
BRANCH  23  25
HETATM   25  C17 UNL     1      22.501   4.754  47.645  1.00  0.00     0.153 C 
BRANCH  25  26
HETATM   26  C18 UNL     1      23.138   6.130  47.739  1.00  0.00     0.291 C 
BRANCH  26  27
HETATM   27  N4  UNL     1      23.848   6.321  48.968  1.00  0.00     0.085 N 
HETATM   28  C19 UNL     1      25.272   6.217  48.660  1.00  0.00     0.309 C 
BRANCH  27  29
HETATM   29  C20 UNL     1      23.640   7.590  49.598  1.00  0.00     0.267 C 
HETATM   30  C21 UNL     1      22.528   7.400  50.636  1.00  0.00     0.037 C 
ENDBRANCH  27  29
ENDBRANCH  26  27
ENDBRANCH  25  26
ENDBRANCH  23  25
ENDBRANCH   7  21
TORSDOF 7
ENDMDL
MODEL 5
REMARK VINA RESULT:      -7.2      3.307      5.528
REMARK  7 active torsions:
REMARK  status: ('A' for Active; 'I' for Inactive)
REMARK    1  A    between atoms: C2_2  and  C3_3 
REMARK    2  A    between atoms: C4_4  and  C5_5 
REMARK    3  A    between atoms: C15_18  and  C16_19 
REMARK       I    between atoms: C16_19  and  N3_21 
REMARK    4  A    between atoms: N3_21  and  C17_22 
REMARK    5  A    between atoms: C17_22  and  C18_23 
REMARK    6  A    between atoms: C18_23  and  N4_24 
REMARK    7  A    between atoms: N4_24  and  C20_26 
ROOT
HETATM    1  C3  UNL     1      23.122   2.077  51.763  1.00  0.00    -0.004 A 
HETATM    2  C4  UNL     1      24.010   1.948  52.704  1.00  0.00     0.114 A 
HETATM    3  O1  UNL     1      24.393   3.157  53.258  1.00  0.00    -0.237 OA
HETATM    4  N2  UNL     1      23.958   4.381  52.934  1.00  0.00    -0.264 N 
HETATM    5  C13 UNL     1      23.000   4.474  51.916  1.00  0.00     0.045 A 
HETATM    6  C14 UNL     1      22.610   5.869  51.654  1.00  0.00     0.071 C 
HETATM    7  C15 UNL     1      22.583   3.377  51.341  1.00  0.00     0.065 A 
HETATM    8  H16 UNL     1      24.386   5.146  53.483  1.00  0.00     0.194 HD
ENDROOT
BRANCH   2   9
HETATM    9  C5  UNL     1      24.595   0.693  53.193  1.00  0.00    -0.001 C 
HETATM   10  C6  UNL     1      25.818   0.648  52.694  1.00  0.00    -0.060 C 
HETATM   11  C7  UNL     1      27.209   1.147  52.343  1.00  0.00     0.071 C 
HETATM   12  C11 UNL     1      26.282  -0.816  52.306  1.00  0.00     0.092 C 
HETATM   13  C8  UNL     1      27.901   0.244  53.501  1.00  0.00    -0.057 C 
HETATM   14  C9  UNL     1      29.049  -0.133  54.411  1.00  0.00     0.046 C 
HETATM   15  C10 UNL     1      26.768  -0.477  53.751  1.00  0.00     0.011 C 
HETATM   16  N1  UNL     1      25.746  -0.878  54.649  1.00  0.00    -0.388 N 
HETATM   17  C12 UNL     1      24.378  -0.489  54.054  1.00  0.00     0.161 C 
HETATM   18  H13 UNL     1      26.310  -1.306  55.470  1.00  0.00     0.159 HD
ENDBRANCH   2   9
BRANCH   1  19
HETATM   19  C2  UNL     1      22.595   0.911  51.058  1.00  0.00     0.038 C 
HETATM   20  C1  UNL     1      21.445   0.352  51.881  1.00  0.00     0.010 C 
ENDBRANCH   1  19
BRANCH   7  21
HETATM   21  C16 UNL     1      21.569   3.443  50.326  1.00  0.00     0.254 C 
HETATM   22  O2  UNL     1      20.292   3.370  50.278  1.00  0.00    -0.268 OA
HETATM   23  N3  UNL     1      21.439   3.609  48.967  1.00  0.00    -0.355 N 
HETATM   24  H20 UNL     1      22.349   3.732  48.485  1.00  0.00     0.162 HD
BRANCH  23  25
HETATM   25  C17 UNL     1      20.206   3.622  48.240  1.00  0.00     0.153 C 
BRANCH  25  26
HETATM   26  C18 UNL     1      20.403   4.539  47.045  1.00  0.00     0.291 C 
BRANCH  26  27
HETATM   27  N4  UNL     1      21.761   4.564  46.592  1.00  0.00     0.085 N 
HETATM   28  C19 UNL     1      21.808   3.813  45.340  1.00  0.00     0.309 C 
BRANCH  27  29
HETATM   29  C20 UNL     1      22.289   5.869  46.327  1.00  0.00     0.267 C 
HETATM   30  C21 UNL     1      22.105   6.132  44.828  1.00  0.00     0.037 C 
ENDBRANCH  27  29
ENDBRANCH  26  27
ENDBRANCH  25  26
ENDBRANCH  23  25
ENDBRANCH   7  21
TORSDOF 7
ENDMDL
MODEL 6
REMARK VINA RESULT:      -7.1      2.791      3.753
REMARK  7 active torsions:
REMARK  status: ('A' for Active; 'I' for Inactive)
REMARK    1  A    between atoms: C2_2  and  C3_3 
REMARK    2  A    between atoms: C4_4  and  C5_5 
REMARK    3  A    between atoms: C15_18  and  C16_19 
REMARK       I    between atoms: C16_19  and  N3_21 
REMARK    4  A    between atoms: N3_21  and  C17_22 
REMARK    5  A    between atoms: C17_22  and  C18_23 
REMARK    6  A    between atoms: C18_23  and  N4_24 
REMARK    7  A    between atoms: N4_24  and  C20_26 
ROOT
HETATM    1  C3  UNL     1      22.768   1.719  52.620  1.00  0.00    -0.004 A 
HETATM    2  C4  UNL     1      24.012   1.725  53.003  1.00  0.00     0.114 A 
HETATM    3  O1  UNL     1      24.582   2.984  52.973  1.00  0.00    -0.237 OA
HETATM    4  N2  UNL     1      24.007   4.137  52.608  1.00  0.00    -0.264 N 
HETATM    5  C13 UNL     1      22.666   4.085  52.205  1.00  0.00     0.045 A 
HETATM    6  C14 UNL     1      22.154   5.413  51.826  1.00  0.00     0.071 C 
HETATM    7  C15 UNL     1      22.052   2.932  52.205  1.00  0.00     0.065 A 
HETATM    8  H16 UNL     1      24.628   4.962  52.664  1.00  0.00     0.194 HD
ENDROOT
BRANCH   2   9
HETATM    9  C5  UNL     1      24.800   0.566  53.440  1.00  0.00    -0.001 C 
HETATM   10  C6  UNL     1      25.902   0.585  52.710  1.00  0.00    -0.060 C 
HETATM   11  C7  UNL     1      27.143   1.170  52.058  1.00  0.00     0.071 C 
HETATM   12  C11 UNL     1      26.424  -0.861  52.327  1.00  0.00     0.092 C 
HETATM   13  C8  UNL     1      28.131   0.423  53.107  1.00  0.00    -0.057 C 
HETATM   14  C9  UNL     1      29.465   0.216  53.790  1.00  0.00     0.046 C 
HETATM   15  C10 UNL     1      27.145  -0.369  53.622  1.00  0.00     0.011 C 
HETATM   16  N1  UNL     1      26.361  -0.782  54.729  1.00  0.00    -0.388 N 
HETATM   17  C12 UNL     1      24.872  -0.558  54.397  1.00  0.00     0.161 C 
HETATM   18  H13 UNL     1      27.112  -1.095  55.445  1.00  0.00     0.159 HD
ENDBRANCH   2   9
BRANCH   1  19
HETATM   19  C2  UNL     1      21.996   0.479  52.584  1.00  0.00     0.038 C 
HETATM   20  C1  UNL     1      21.336   0.305  53.943  1.00  0.00     0.010 C 
ENDBRANCH   1  19
BRANCH   7  21
HETATM   21  C16 UNL     1      20.664   2.861  51.840  1.00  0.00     0.254 C 
HETATM   22  O2  UNL     1      19.537   2.997  52.428  1.00  0.00    -0.268 OA
HETATM   23  N3  UNL     1      19.869   2.629  50.742  1.00  0.00    -0.355 N 
HETATM   24  H20 UNL     1      20.414   2.442  49.879  1.00  0.00     0.162 HD
BRANCH  23  25
HETATM   25  C17 UNL     1      18.438   2.633  50.730  1.00  0.00     0.153 C 
BRANCH  25  26
HETATM   26  C18 UNL     1      18.003   2.806  49.286  1.00  0.00     0.291 C 
BRANCH  26  27
HETATM   27  N4  UNL     1      17.112   3.913  49.111  1.00  0.00     0.085 N 
HETATM   28  C19 UNL     1      17.914   5.040  48.644  1.00  0.00     0.309 C 
BRANCH  27  29
HETATM   29  C20 UNL     1      16.068   3.706  48.152  1.00  0.00     0.267 C 
HETATM   30  C21 UNL     1      16.620   2.754  47.085  1.00  0.00     0.037 C 
ENDBRANCH  27  29
ENDBRANCH  26  27
ENDBRANCH  25  26
ENDBRANCH  23  25
ENDBRANCH   7  21
TORSDOF 7
ENDMDL
MODEL 7
REMARK VINA RESULT:      -7.1      2.871      8.077
REMARK  7 active torsions:
REMARK  status: ('A' for Active; 'I' for Inactive)
REMARK    1  A    between atoms: C2_2  and  C3_3 
REMARK    2  A    between atoms: C4_4  and  C5_5 
REMARK    3  A    between atoms: C15_18  and  C16_19 
REMARK       I    between atoms: C16_19  and  N3_21 
REMARK    4  A    between atoms: N3_21  and  C17_22 
REMARK    5  A    between atoms: C17_22  and  C18_23 
REMARK    6  A    between atoms: C18_23  and  N4_24 
REMARK    7  A    between atoms: N4_24  and  C20_26 
ROOT
HETATM    1  C3  UNL     1      22.757   1.300  52.437  1.00  0.00    -0.004 A 
HETATM    2  C4  UNL     1      21.580   1.779  52.157  1.00  0.00     0.114 A 
HETATM    3  O1  UNL     1      20.550   1.039  52.708  1.00  0.00    -0.237 OA
HETATM    4  N2  UNL     1      20.643  -0.064  53.462  1.00  0.00    -0.264 N 
HETATM    5  C13 UNL     1      21.930  -0.543  53.740  1.00  0.00     0.045 A 
HETATM    6  C14 UNL     1      21.895  -1.759  54.570  1.00  0.00     0.071 C 
HETATM    7  C15 UNL     1      22.960   0.099  53.257  1.00  0.00     0.065 A 
HETATM    8  H16 UNL     1      19.734  -0.453  53.766  1.00  0.00     0.194 HD
ENDROOT
BRANCH   2   9
HETATM    9  C5  UNL     1      21.287   2.974  51.355  1.00  0.00    -0.001 C 
HETATM   10  C6  UNL     1      21.249   2.562  50.099  1.00  0.00    -0.060 C 
HETATM   11  C7  UNL     1      20.857   1.688  48.921  1.00  0.00     0.071 C 
HETATM   12  C11 UNL     1      21.827   3.624  49.076  1.00  0.00     0.092 C 
HETATM   13  C8  UNL     1      19.836   2.808  48.340  1.00  0.00    -0.057 C 
HETATM   14  C9  UNL     1      18.698   3.264  47.454  1.00  0.00     0.046 C 
HETATM   15  C10 UNL     1      20.277   3.787  49.182  1.00  0.00     0.011 C 
HETATM   16  N1  UNL     1      20.017   4.713  50.225  1.00  0.00    -0.388 N 
HETATM   17  C12 UNL     1      20.966   4.416  51.404  1.00  0.00     0.161 C 
HETATM   18  H13 UNL     1      19.203   5.302  49.819  1.00  0.00     0.159 HD
ENDBRANCH   2   9
BRANCH   1  19
HETATM   19  C2  UNL     1      23.971   1.946  51.942  1.00  0.00     0.038 C 
HETATM   20  C1  UNL     1      24.407   2.968  52.979  1.00  0.00     0.010 C 
ENDBRANCH   1  19
BRANCH   7  21
HETATM   21  C16 UNL     1      24.290  -0.348  53.566  1.00  0.00     0.254 C 
HETATM   22  O2  UNL     1      24.976  -0.575  54.621  1.00  0.00    -0.268 OA
HETATM   23  N3  UNL     1      25.447  -0.743  52.937  1.00  0.00    -0.355 N 
HETATM   24  H20 UNL     1      25.371  -0.728  51.902  1.00  0.00     0.162 HD
BRANCH  23  25
HETATM   25  C17 UNL     1      26.657  -1.146  53.586  1.00  0.00     0.153 C 
BRANCH  25  26
HETATM   26  C18 UNL     1      27.755  -0.217  53.100  1.00  0.00     0.291 C 
BRANCH  26  27
HETATM   27  N4  UNL     1      28.768  -0.002  54.090  1.00  0.00     0.085 N 
HETATM   28  C19 UNL     1      29.910  -0.836  53.722  1.00  0.00     0.309 C 
BRANCH  27  29
HETATM   29  C20 UNL     1      29.240   1.346  54.193  1.00  0.00     0.267 C 
HETATM   30  C21 UNL     1      28.189   2.243  53.528  1.00  0.00     0.037 C 
ENDBRANCH  27  29
ENDBRANCH  26  27
ENDBRANCH  25  26
ENDBRANCH  23  25
ENDBRANCH   7  21
TORSDOF 7
ENDMDL
MODEL 8
REMARK VINA RESULT:      -7.1      3.028      6.051
REMARK  7 active torsions:
REMARK  status: ('A' for Active; 'I' for Inactive)
REMARK    1  A    between atoms: C2_2  and  C3_3 
REMARK    2  A    between atoms: C4_4  and  C5_5 
REMARK    3  A    between atoms: C15_18  and  C16_19 
REMARK       I    between atoms: C16_19  and  N3_21 
REMARK    4  A    between atoms: N3_21  and  C17_22 
REMARK    5  A    between atoms: C17_22  and  C18_23 
REMARK    6  A    between atoms: C18_23  and  N4_24 
REMARK    7  A    between atoms: N4_24  and  C20_26 
ROOT
HETATM    1  C3  UNL     1      23.241   1.645  52.645  1.00  0.00    -0.004 A 
HETATM    2  C4  UNL     1      23.458   0.377  52.847  1.00  0.00     0.114 A 
HETATM    3  O1  UNL     1      22.525  -0.436  52.230  1.00  0.00    -0.237 OA
HETATM    4  N2  UNL     1      21.477  -0.064  51.485  1.00  0.00    -0.264 N 
HETATM    5  C13 UNL     1      21.282   1.310  51.292  1.00  0.00     0.045 A 
HETATM    6  C14 UNL     1      20.097   1.586  50.462  1.00  0.00     0.071 C 
HETATM    7  C15 UNL     1      22.120   2.148  51.841  1.00  0.00     0.065 A 
HETATM    8  H16 UNL     1      20.909  -0.850  51.122  1.00  0.00     0.194 HD
ENDROOT
BRANCH   2   9
HETATM    9  C5  UNL     1      24.553  -0.211  53.627  1.00  0.00    -0.001 C 
HETATM   10  C6  UNL     1      25.597  -0.240  52.816  1.00  0.00    -0.060 C 
HETATM   11  C7  UNL     1      26.608   0.284  51.812  1.00  0.00     0.071 C 
HETATM   12  C11 UNL     1      26.516  -1.513  53.026  1.00  0.00     0.092 C 
HETATM   13  C8  UNL     1      27.778   0.376  52.934  1.00  0.00    -0.057 C 
HETATM   14  C9  UNL     1      29.118   0.853  53.448  1.00  0.00     0.046 C 
HETATM   15  C10 UNL     1      27.070  -0.321  53.870  1.00  0.00     0.011 C 
HETATM   16  N1  UNL     1      26.448  -0.376  55.144  1.00  0.00    -0.388 N 
HETATM   17  C12 UNL     1      24.956  -0.719  54.956  1.00  0.00     0.161 C 
HETATM   18  H13 UNL     1      27.262  -0.125  55.813  1.00  0.00     0.159 HD
ENDBRANCH   2   9
BRANCH   1  19
HETATM   19  C2  UNL     1      24.121   2.661  53.218  1.00  0.00     0.038 C 
HETATM   20  C1  UNL     1      25.029   3.165  52.108  1.00  0.00     0.010 C 
ENDBRANCH   1  19
BRANCH   7  21
HETATM   21  C16 UNL     1      21.967   3.559  51.620  1.00  0.00     0.254 C 
HETATM   22  O2  UNL     1      21.437   4.548  52.236  1.00  0.00    -0.268 OA
HETATM   23  N3  UNL     1      22.287   4.528  50.698  1.00  0.00    -0.355 N 
HETATM   24  H20 UNL     1      22.812   4.155  49.884  1.00  0.00     0.162 HD
BRANCH  23  25
HETATM   25  C17 UNL     1      21.961   5.918  50.797  1.00  0.00     0.153 C 
BRANCH  25  26
HETATM   26  C18 UNL     1      23.249   6.695  50.591  1.00  0.00     0.291 C 
BRANCH  26  27
HETATM   27  N4  UNL     1      24.135   6.052  49.669  1.00  0.00     0.085 N 
HETATM   28  C19 UNL     1      23.917   6.669  48.363  1.00  0.00     0.309 C 
BRANCH  27  29
HETATM   29  C20 UNL     1      25.529   6.182  49.974  1.00  0.00     0.267 C 
HETATM   30  C21 UNL     1      26.284   5.223  49.046  1.00  0.00     0.037 C 
ENDBRANCH  27  29
ENDBRANCH  26  27
ENDBRANCH  25  26
ENDBRANCH  23  25
ENDBRANCH   7  21
TORSDOF 7
ENDMDL
MODEL 9
REMARK VINA RESULT:      -7.0      2.903      7.884
REMARK  7 active torsions:
REMARK  status: ('A' for Active; 'I' for Inactive)
REMARK    1  A    between atoms: C2_2  and  C3_3 
REMARK    2  A    between atoms: C4_4  and  C5_5 
REMARK    3  A    between atoms: C15_18  and  C16_19 
REMARK       I    between atoms: C16_19  and  N3_21 
REMARK    4  A    between atoms: N3_21  and  C17_22 
REMARK    5  A    between atoms: C17_22  and  C18_23 
REMARK    6  A    between atoms: C18_23  and  N4_24 
REMARK    7  A    between atoms: N4_24  and  C20_26 
ROOT
HETATM    1  C3  UNL     1      22.920   1.241  51.951  1.00  0.00    -0.004 A 
HETATM    2  C4  UNL     1      21.771   1.723  51.577  1.00  0.00     0.114 A 
HETATM    3  O1  UNL     1      20.702   1.155  52.244  1.00  0.00    -0.237 OA
HETATM    4  N2  UNL     1      20.734   0.206  53.189  1.00  0.00    -0.264 N 
HETATM    5  C13 UNL     1      21.993  -0.283  53.563  1.00  0.00     0.045 A 
HETATM    6  C14 UNL     1      21.891  -1.321  54.603  1.00  0.00     0.071 C 
HETATM    7  C15 UNL     1      23.056   0.202  52.981  1.00  0.00     0.065 A 
HETATM    8  H16 UNL     1      19.805  -0.070  53.550  1.00  0.00     0.194 HD
ENDROOT
BRANCH   2   9
HETATM    9  C5  UNL     1      21.545   2.763  50.565  1.00  0.00    -0.001 C 
HETATM   10  C6  UNL     1      21.406   3.893  51.237  1.00  0.00    -0.060 C 
HETATM   11  C7  UNL     1      21.740   4.970  52.255  1.00  0.00     0.071 C 
HETATM   12  C11 UNL     1      20.349   4.880  50.590  1.00  0.00     0.092 C 
HETATM   13  C8  UNL     1      22.265   5.990  51.108  1.00  0.00    -0.057 C 
HETATM   14  C9  UNL     1      23.009   7.220  50.634  1.00  0.00     0.046 C 
HETATM   15  C10 UNL     1      21.781   5.235  50.078  1.00  0.00     0.011 C 
HETATM   16  N1  UNL     1      22.014   4.475  48.903  1.00  0.00    -0.388 N 
HETATM   17  C12 UNL     1      21.472   3.048  49.117  1.00  0.00     0.161 C 
HETATM   18  H13 UNL     1      22.528   5.184  48.263  1.00  0.00     0.159 HD
ENDBRANCH   2   9
BRANCH   1  19
HETATM   19  C2  UNL     1      24.168   1.717  51.358  1.00  0.00     0.038 C 
HETATM   20  C1  UNL     1      24.722   2.809  52.260  1.00  0.00     0.010 C 
ENDBRANCH   1  19
BRANCH   7  21
HETATM   21  C16 UNL     1      24.360  -0.252  53.379  1.00  0.00     0.254 C 
HETATM   22  O2  UNL     1      24.995  -0.415  54.478  1.00  0.00    -0.268 OA
HETATM   23  N3  UNL     1      25.531  -0.721  52.833  1.00  0.00    -0.355 N 
HETATM   24  H20 UNL     1      25.499  -0.781  51.798  1.00  0.00     0.162 HD
BRANCH  23  25
HETATM   25  C17 UNL     1      26.702  -1.102  53.563  1.00  0.00     0.153 C 
BRANCH  25  26
HETATM   26  C18 UNL     1      27.833  -0.205  53.093  1.00  0.00     0.291 C 
BRANCH  26  27
HETATM   27  N4  UNL     1      28.837  -0.019  54.097  1.00  0.00     0.085 N 
HETATM   28  C19 UNL     1      29.997  -0.811  53.696  1.00  0.00     0.309 C 
BRANCH  27  29
HETATM   29  C20 UNL     1      29.282   1.332  54.268  1.00  0.00     0.267 C 
HETATM   30  C21 UNL     1      28.294   2.230  53.514  1.00  0.00     0.037 C 
ENDBRANCH  27  29
ENDBRANCH  26  27
ENDBRANCH  25  26
ENDBRANCH  23  25
ENDBRANCH   7  21
TORSDOF 7
ENDMDL
