MODEL 1
REMARK VINA RESULT:      -6.8      0.000      0.000
REMARK  5 active torsions:
REMARK  status: ('A' for Active; 'I' for Inactive)
REMARK    1  A    between atoms: C5_6  and  C6_7 
REMARK    2  A    between atoms: C6_7  and  C7_8 
REMARK    3  A    between atoms: C7_8  and  C8_9 
REMARK    4  A    between atoms: C8_9  and  O2_11 
REMARK    5  A    between atoms: N1_14  and  C11_15 
ROOT
HETATM    1  C1  UNL     1      23.609  -0.363  53.315  1.00  0.00     0.098 C 
HETATM    2  C2  UNL     1      23.944   0.912  53.208  1.00  0.00    -0.138 C 
HETATM    3  P1  UNL     1      24.454   2.423  53.104  1.00  0.00    -0.004 P 
HETATM    4  C3  UNL     1      23.099   3.216  52.370  1.00  0.00     0.063 C 
HETATM    5  C4  UNL     1      23.751   4.430  51.687  1.00  0.00     0.042 C 
HETATM    6  C5  UNL     1      24.705   4.118  50.645  1.00  0.00    -0.057 C 
HETATM    7  C9  UNL     1      25.619   3.166  50.806  1.00  0.00     0.010 C 
HETATM    8  C10 UNL     1      26.541   2.945  49.660  1.00  0.00     0.068 C 
HETATM    9  N1  UNL     1      25.783   2.349  51.985  1.00  0.00    -0.343 N 
HETATM   10  H3  UNL     1      24.907   2.771  54.311  1.00  0.00     0.086 HD
ENDROOT
BRANCH   9  11
HETATM   11  C11 UNL     1      26.905   1.545  52.241  1.00  0.00     0.182 C 
HETATM   12  C12 UNL     1      26.644   0.072  51.933  1.00  0.00     0.055 C 
HETATM   13  C13 UNL     1      27.483  -0.685  52.938  1.00  0.00     0.125 C 
HETATM   14  N2  UNL     1      28.063   0.293  53.797  1.00  0.00    -0.359 N 
HETATM   15  C14 UNL     1      27.576   1.619  53.531  1.00  0.00     0.240 C 
HETATM   16  H21 UNL     1      28.762   0.091  54.543  1.00  0.00     0.162 HD
HETATM   17  O3  UNL     1      27.656   2.688  54.198  1.00  0.00    -0.271 OA
ENDBRANCH   9  11
BRANCH   6  18
HETATM   18  C6  UNL     1      24.632   4.904  49.383  1.00  0.00     0.046 C 
BRANCH  18  19
HETATM   19  C7  UNL     1      24.444   6.388  49.665  1.00  0.00     0.114 C 
BRANCH  19  20
HETATM   20  C8  UNL     1      25.743   7.031  49.996  1.00  0.00     0.139 C 
HETATM   21  O1  UNL     1      26.712   6.911  49.195  1.00  0.00    -0.650 OA
BRANCH  20  22
HETATM   22  O2  UNL     1      26.419   7.805  50.937  1.00  0.00    -0.776 OA
HETATM   23  H12 UNL     1      26.266   7.658  51.939  1.00  0.00     0.167 HD
ENDBRANCH  20  22
ENDBRANCH  19  20
ENDBRANCH  18  19
ENDBRANCH   6  18
TORSDOF 5
ENDMDL
MODEL 2
REMARK VINA RESULT:      -6.7      3.751      6.755
REMARK  5 active torsions:
REMARK  status: ('A' for Active; 'I' for Inactive)
REMARK    1  A    between atoms: C5_6  and  C6_7 
REMARK    2  A    between atoms: C6_7  and  C7_8 
REMARK    3  A    between atoms: C7_8  and  C8_9 
REMARK    4  A    between atoms: C8_9  and  O2_11 
REMARK    5  A    between atoms: N1_14  and  C11_15 
ROOT
HETATM    1  C1  UNL     1      23.368   3.416  49.068  1.00  0.00     0.098 C 
HETATM    2  C2  UNL     1      23.663   3.204  50.340  1.00  0.00    -0.138 C 
HETATM    3  P1  UNL     1      23.909   2.948  51.898  1.00  0.00    -0.004 P 
HETATM    4  C3  UNL     1      25.599   2.566  51.944  1.00  0.00     0.063 C 
HETATM    5  C4  UNL     1      25.717   1.719  53.221  1.00  0.00     0.042 C 
HETATM    6  C5  UNL     1      24.977   0.475  53.213  1.00  0.00    -0.057 C 
HETATM    7  C9  UNL     1      23.727   0.417  52.765  1.00  0.00     0.010 C 
HETATM    8  C10 UNL     1      23.078  -0.921  52.811  1.00  0.00     0.068 C 
HETATM    9  N1  UNL     1      22.965   1.531  52.251  1.00  0.00    -0.343 N 
HETATM   10  H3  UNL     1      23.403   3.995  52.555  1.00  0.00     0.086 HD
ENDROOT
BRANCH   9  11
HETATM   11  C11 UNL     1      21.578   1.509  52.036  1.00  0.00     0.182 C 
HETATM   12  C12 UNL     1      20.800   1.170  53.306  1.00  0.00     0.055 C 
HETATM   13  C13 UNL     1      19.584   0.413  52.821  1.00  0.00     0.125 C 
HETATM   14  N2  UNL     1      19.745   0.251  51.414  1.00  0.00    -0.359 N 
HETATM   15  C14 UNL     1      21.021   0.719  50.947  1.00  0.00     0.240 C 
HETATM   16  H21 UNL     1      19.030  -0.159  50.776  1.00  0.00     0.162 HD
HETATM   17  O3  UNL     1      21.626   0.545  49.853  1.00  0.00    -0.271 OA
ENDBRANCH   9  11
BRANCH   6  18
HETATM   18  C6  UNL     1      25.664  -0.741  53.726  1.00  0.00     0.046 C 
BRANCH  18  19
HETATM   19  C7  UNL     1      27.094  -0.828  53.208  1.00  0.00     0.114 C 
BRANCH  19  20
HETATM   20  C8  UNL     1      27.401  -2.204  52.735  1.00  0.00     0.139 C 
HETATM   21  O1  UNL     1      26.657  -2.737  51.864  1.00  0.00    -0.650 OA
BRANCH  20  22
HETATM   22  O2  UNL     1      28.274  -3.281  52.869  1.00  0.00    -0.776 OA
HETATM   23  H12 UNL     1      29.247  -3.131  53.156  1.00  0.00     0.167 HD
ENDBRANCH  20  22
ENDBRANCH  19  20
ENDBRANCH  18  19
ENDBRANCH   6  18
TORSDOF 5
ENDMDL
MODEL 3
REMARK VINA RESULT:      -6.6      3.831      6.709
REMARK  5 active torsions:
REMARK  status: ('A' for Active; 'I' for Inactive)
REMARK    1  A    between atoms: C5_6  and  C6_7 
REMARK    2  A    between atoms: C6_7  and  C7_8 
REMARK    3  A    between atoms: C7_8  and  C8_9 
REMARK    4  A    between atoms: C8_9  and  O2_11 
REMARK    5  A    between atoms: N1_14  and  C11_15 
ROOT
HETATM    1  C1  UNL     1      21.784   1.775  48.507  1.00  0.00     0.098 C 
HETATM    2  C2  UNL     1      22.270   2.073  49.701  1.00  0.00    -0.138 C 
HETATM    3  P1  UNL     1      22.750   2.440  51.181  1.00  0.00    -0.004 P 
HETATM    4  C3  UNL     1      24.449   2.111  51.106  1.00  0.00     0.063 C 
HETATM    5  C4  UNL     1      24.801   1.824  52.575  1.00  0.00     0.042 C 
HETATM    6  C5  UNL     1      24.146   0.672  53.157  1.00  0.00    -0.057 C 
HETATM    7  C9  UNL     1      22.851   0.441  52.965  1.00  0.00     0.010 C 
HETATM    8  C10 UNL     1      22.300  -0.777  53.618  1.00  0.00     0.068 C 
HETATM    9  N1  UNL     1      21.956   1.267  52.190  1.00  0.00    -0.343 N 
HETATM   10  H3  UNL     1      22.278   3.658  51.458  1.00  0.00     0.086 HD
ENDROOT
BRANCH   9  11
HETATM   11  C11 UNL     1      20.557   1.160  52.217  1.00  0.00     0.182 C 
HETATM   12  C12 UNL     1      20.026   0.216  51.141  1.00  0.00     0.055 C 
HETATM   13  C13 UNL     1      18.683   0.792  50.752  1.00  0.00     0.125 C 
HETATM   14  N2  UNL     1      18.545   2.014  51.474  1.00  0.00    -0.359 N 
HETATM   15  C14 UNL     1      19.733   2.361  52.203  1.00  0.00     0.240 C 
HETATM   16  H21 UNL     1      17.687   2.605  51.484  1.00  0.00     0.162 HD
HETATM   17  O3  UNL     1      20.090   3.439  52.754  1.00  0.00    -0.271 OA
ENDBRANCH   9  11
BRANCH   6  18
HETATM   18  C6  UNL     1      24.974  -0.250  53.982  1.00  0.00     0.046 C 
BRANCH  18  19
HETATM   19  C7  UNL     1      26.369  -0.415  53.396  1.00  0.00     0.114 C 
BRANCH  19  20
HETATM   20  C8  UNL     1      27.407  -0.006  54.379  1.00  0.00     0.139 C 
HETATM   21  O1  UNL     1      27.273   1.087  54.998  1.00  0.00    -0.650 OA
BRANCH  20  22
HETATM   22  O2  UNL     1      28.613  -0.371  54.973  1.00  0.00    -0.776 OA
HETATM   23  H12 UNL     1      29.500  -0.237  54.477  1.00  0.00     0.167 HD
ENDBRANCH  20  22
ENDBRANCH  19  20
ENDBRANCH  18  19
ENDBRANCH   6  18
TORSDOF 5
ENDMDL
MODEL 4
REMARK VINA RESULT:      -6.5      3.433      6.467
REMARK  5 active torsions:
REMARK  status: ('A' for Active; 'I' for Inactive)
REMARK    1  A    between atoms: C5_6  and  C6_7 
REMARK    2  A    between atoms: C6_7  and  C7_8 
REMARK    3  A    between atoms: C7_8  and  C8_9 
REMARK    4  A    between atoms: C8_9  and  O2_11 
REMARK    5  A    between atoms: N1_14  and  C11_15 
ROOT
HETATM    1  C1  UNL     1      20.778   5.025  48.850  1.00  0.00     0.098 C 
HETATM    2  C2  UNL     1      21.276   3.825  49.097  1.00  0.00    -0.138 C 
HETATM    3  P1  UNL     1      21.975   2.410  49.351  1.00  0.00    -0.004 P 
HETATM    4  C3  UNL     1      20.829   1.615  50.379  1.00  0.00     0.063 C 
HETATM    5  C4  UNL     1      21.703   0.601  51.135  1.00  0.00     0.042 C 
HETATM    6  C5  UNL     1      22.735   1.174  51.973  1.00  0.00    -0.057 C 
HETATM    7  C9  UNL     1      23.498   2.173  51.545  1.00  0.00     0.010 C 
HETATM    8  C10 UNL     1      24.522   2.671  52.503  1.00  0.00     0.068 C 
HETATM    9  N1  UNL     1      23.414   2.799  50.246  1.00  0.00    -0.343 N 
HETATM   10  H3  UNL     1      22.314   1.917  48.157  1.00  0.00     0.086 HD
ENDROOT
BRANCH   9  11
HETATM   11  C11 UNL     1      24.389   3.660  49.718  1.00  0.00     0.182 C 
HETATM   12  C12 UNL     1      25.740   2.969  49.544  1.00  0.00     0.055 C 
HETATM   13  C13 UNL     1      26.762   4.057  49.783  1.00  0.00     0.125 C 
HETATM   14  N2  UNL     1      26.031   5.219  50.168  1.00  0.00    -0.359 N 
HETATM   15  C14 UNL     1      24.627   4.958  50.334  1.00  0.00     0.240 C 
HETATM   16  H21 UNL     1      26.448   6.162  50.320  1.00  0.00     0.162 HD
HETATM   17  O3  UNL     1      23.710   5.634  50.876  1.00  0.00    -0.271 OA
ENDBRANCH   9  11
BRANCH   6  18
HETATM   18  C6  UNL     1      22.915   0.602  53.336  1.00  0.00     0.046 C 
BRANCH  18  19
HETATM   19  C7  UNL     1      22.835  -0.919  53.312  1.00  0.00     0.114 C 
BRANCH  19  20
HETATM   20  C8  UNL     1      21.990  -1.421  54.427  1.00  0.00     0.139 C 
HETATM   21  O1  UNL     1      22.539  -1.756  55.514  1.00  0.00    -0.650 OA
BRANCH  20  22
HETATM   22  O2  UNL     1      20.686  -1.713  54.819  1.00  0.00    -0.776 OA
HETATM   23  H12 UNL     1      19.897  -1.177  54.444  1.00  0.00     0.167 HD
ENDBRANCH  20  22
ENDBRANCH  19  20
ENDBRANCH  18  19
ENDBRANCH   6  18
TORSDOF 5
ENDMDL
MODEL 5
REMARK VINA RESULT:      -6.4      2.556      5.697
REMARK  5 active torsions:
REMARK  status: ('A' for Active; 'I' for Inactive)
REMARK    1  A    between atoms: C5_6  and  C6_7 
REMARK    2  A    between atoms: C6_7  and  C7_8 
REMARK    3  A    between atoms: C7_8  and  C8_9 
REMARK    4  A    between atoms: C8_9  and  O2_11 
REMARK    5  A    between atoms: N1_14  and  C11_15 
ROOT
HETATM    1  C1  UNL     1      20.053   2.959  52.285  1.00  0.00     0.098 C 
HETATM    2  C2  UNL     1      21.011   2.076  52.057  1.00  0.00    -0.138 C 
HETATM    3  P1  UNL     1      22.210   1.079  51.703  1.00  0.00    -0.004 P 
HETATM    4  C3  UNL     1      22.125  -0.068  53.000  1.00  0.00     0.063 C 
HETATM    5  C4  UNL     1      23.564  -0.607  53.065  1.00  0.00     0.042 C 
HETATM    6  C5  UNL     1      24.579   0.371  53.397  1.00  0.00    -0.057 C 
HETATM    7  C9  UNL     1      24.589   1.575  52.835  1.00  0.00     0.010 C 
HETATM    8  C10 UNL     1      25.685   2.486  53.262  1.00  0.00     0.068 C 
HETATM    9  N1  UNL     1      23.639   2.057  51.861  1.00  0.00    -0.343 N 
HETATM   10  H3  UNL     1      22.057   0.715  50.427  1.00  0.00     0.086 HD
ENDROOT
BRANCH   9  11
HETATM   11  C11 UNL     1      23.815   3.215  51.088  1.00  0.00     0.182 C 
HETATM   12  C12 UNL     1      25.045   3.129  50.187  1.00  0.00     0.055 C 
HETATM   13  C13 UNL     1      25.554   4.550  50.095  1.00  0.00     0.125 C 
HETATM   14  N2  UNL     1      24.739   5.328  50.968  1.00  0.00    -0.359 N 
HETATM   15  C14 UNL     1      23.821   4.524  51.727  1.00  0.00     0.240 C 
HETATM   16  H21 UNL     1      24.786   6.365  51.061  1.00  0.00     0.162 HD
HETATM   17  O3  UNL     1      23.119   4.790  52.742  1.00  0.00    -0.271 OA
ENDBRANCH   9  11
BRANCH   6  18
HETATM   18  C6  UNL     1      25.616  -0.020  54.391  1.00  0.00     0.046 C 
BRANCH  18  19
HETATM   19  C7  UNL     1      26.811  -0.676  53.713  1.00  0.00     0.114 C 
BRANCH  19  20
HETATM   20  C8  UNL     1      28.087  -0.123  54.241  1.00  0.00     0.139 C 
HETATM   21  O1  UNL     1      29.182  -0.555  53.782  1.00  0.00    -0.650 OA
BRANCH  20  22
HETATM   22  O2  UNL     1      28.645   0.781  55.141  1.00  0.00    -0.776 OA
HETATM   23  H12 UNL     1      29.592   1.145  54.994  1.00  0.00     0.167 HD
ENDBRANCH  20  22
ENDBRANCH  19  20
ENDBRANCH  18  19
ENDBRANCH   6  18
TORSDOF 5
ENDMDL
MODEL 6
REMARK VINA RESULT:      -6.4      2.726      4.136
REMARK  5 active torsions:
REMARK  status: ('A' for Active; 'I' for Inactive)
REMARK    1  A    between atoms: C5_6  and  C6_7 
REMARK    2  A    between atoms: C6_7  and  C7_8 
REMARK    3  A    between atoms: C7_8  and  C8_9 
REMARK    4  A    between atoms: C8_9  and  O2_11 
REMARK    5  A    between atoms: N1_14  and  C11_15 
ROOT
HETATM    1  C1  UNL     1      27.057   1.759  52.055  1.00  0.00     0.098 C 
HETATM    2  C2  UNL     1      26.579   2.462  51.041  1.00  0.00    -0.138 C 
HETATM    3  P1  UNL     1      25.900   3.268  49.839  1.00  0.00    -0.004 P 
HETATM    4  C3  UNL     1      27.150   4.383  49.395  1.00  0.00     0.063 C 
HETATM    5  C4  UNL     1      26.360   5.535  48.752  1.00  0.00     0.042 C 
HETATM    6  C5  UNL     1      25.437   6.222  49.630  1.00  0.00    -0.057 C 
HETATM    7  C9  UNL     1      24.639   5.552  50.455  1.00  0.00     0.010 C 
HETATM    8  C10 UNL     1      23.738   6.376  51.305  1.00  0.00     0.068 C 
HETATM    9  N1  UNL     1      24.578   4.115  50.586  1.00  0.00    -0.343 N 
HETATM   10  H3  UNL     1      25.422   2.365  48.979  1.00  0.00     0.086 HD
ENDROOT
BRANCH   9  11
HETATM   11  C11 UNL     1      23.558   3.424  51.256  1.00  0.00     0.182 C 
HETATM   12  C12 UNL     1      23.945   3.063  52.689  1.00  0.00     0.055 C 
HETATM   13  C13 UNL     1      23.241   1.753  52.959  1.00  0.00     0.125 C 
HETATM   14  N2  UNL     1      22.615   1.371  51.736  1.00  0.00    -0.359 N 
HETATM   15  C14 UNL     1      22.953   2.247  50.648  1.00  0.00     0.240 C 
HETATM   16  H21 UNL     1      21.981   0.553  51.622  1.00  0.00     0.162 HD
HETATM   17  O3  UNL     1      22.805   2.125  49.400  1.00  0.00    -0.271 OA
ENDBRANCH   9  11
BRANCH   6  18
HETATM   18  C6  UNL     1      25.410   7.709  49.577  1.00  0.00     0.046 C 
BRANCH  18  19
HETATM   19  C7  UNL     1      26.730   8.268  49.064  1.00  0.00     0.114 C 
BRANCH  19  20
HETATM   20  C8  UNL     1      27.263   9.300  49.992  1.00  0.00     0.139 C 
HETATM   21  O1  UNL     1      27.443  10.476  49.568  1.00  0.00    -0.650 OA
BRANCH  20  22
HETATM   22  O2  UNL     1      27.702   9.538  51.292  1.00  0.00    -0.776 OA
HETATM   23  H12 UNL     1      28.510  10.145  51.467  1.00  0.00     0.167 HD
ENDBRANCH  20  22
ENDBRANCH  19  20
ENDBRANCH  18  19
ENDBRANCH   6  18
TORSDOF 5
ENDMDL
MODEL 7
REMARK VINA RESULT:      -6.3      2.475      3.279
REMARK  5 active torsions:
REMARK  status: ('A' for Active; 'I' for Inactive)
REMARK    1  A    between atoms: C5_6  and  C6_7 
REMARK    2  A    between atoms: C6_7  and  C7_8 
REMARK    3  A    between atoms: C7_8  and  C8_9 
REMARK    4  A    between atoms: C8_9  and  O2_11 
REMARK    5  A    between atoms: N1_14  and  C11_15 
ROOT
HETATM    1  C1  UNL     1      20.726   3.756  51.771  1.00  0.00     0.098 C 
HETATM    2  C2  UNL     1      21.922   4.322  51.811  1.00  0.00    -0.138 C 
HETATM    3  P1  UNL     1      23.390   4.938  51.946  1.00  0.00    -0.004 P 
HETATM    4  C3  UNL     1      23.537   5.857  50.484  1.00  0.00     0.063 C 
HETATM    5  C4  UNL     1      25.059   5.907  50.270  1.00  0.00     0.042 C 
HETATM    6  C5  UNL     1      25.700   4.627  50.060  1.00  0.00    -0.057 C 
HETATM    7  C9  UNL     1      25.400   3.572  50.811  1.00  0.00     0.010 C 
HETATM    8  C10 UNL     1      26.129   2.315  50.494  1.00  0.00     0.068 C 
HETATM    9  N1  UNL     1      24.441   3.553  51.891  1.00  0.00    -0.343 N 
HETATM   10  H3  UNL     1      23.470   5.510  53.150  1.00  0.00     0.086 HD
ENDROOT
BRANCH   9  11
HETATM   11  C11 UNL     1      24.331   2.520  52.834  1.00  0.00     0.182 C 
HETATM   12  C12 UNL     1      25.621   2.320  53.628  1.00  0.00     0.055 C 
HETATM   13  C13 UNL     1      25.664   0.838  53.924  1.00  0.00     0.125 C 
HETATM   14  N2  UNL     1      24.549   0.259  53.250  1.00  0.00    -0.359 N 
HETATM   15  C14 UNL     1      23.850   1.207  52.426  1.00  0.00     0.240 C 
HETATM   16  H21 UNL     1      24.257  -0.738  53.330  1.00  0.00     0.162 HD
HETATM   17  O3  UNL     1      22.988   1.049  51.518  1.00  0.00    -0.271 OA
ENDBRANCH   9  11
BRANCH   6  18
HETATM   18  C6  UNL     1      26.712   4.530  48.973  1.00  0.00     0.046 C 
BRANCH  18  19
HETATM   19  C7  UNL     1      27.178   5.909  48.528  1.00  0.00     0.114 C 
BRANCH  19  20
HETATM   20  C8  UNL     1      28.662   5.968  48.456  1.00  0.00     0.139 C 
HETATM   21  O1  UNL     1      29.210   6.497  47.448  1.00  0.00    -0.650 OA
BRANCH  20  22
HETATM   22  O2  UNL     1      29.844   5.642  49.118  1.00  0.00    -0.776 OA
HETATM   23  H12 UNL     1      30.318   6.333  49.708  1.00  0.00     0.167 HD
ENDBRANCH  20  22
ENDBRANCH  19  20
ENDBRANCH  18  19
ENDBRANCH   6  18
TORSDOF 5
ENDMDL
MODEL 8
REMARK VINA RESULT:      -6.3      3.582      7.093
REMARK  5 active torsions:
REMARK  status: ('A' for Active; 'I' for Inactive)
REMARK    1  A    between atoms: C5_6  and  C6_7 
REMARK    2  A    between atoms: C6_7  and  C7_8 
REMARK    3  A    between atoms: C7_8  and  C8_9 
REMARK    4  A    between atoms: C8_9  and  O2_11 
REMARK    5  A    between atoms: N1_14  and  C11_15 
ROOT
HETATM    1  C1  UNL     1      26.122   4.305  49.367  1.00  0.00     0.098 C 
HETATM    2  C2  UNL     1      25.295   4.016  50.358  1.00  0.00    -0.138 C 
HETATM    3  P1  UNL     1      24.217   3.729  51.504  1.00  0.00    -0.004 P 
HETATM    4  C3  UNL     1      24.972   2.456  52.405  1.00  0.00     0.063 C 
HETATM    5  C4  UNL     1      23.772   1.745  53.052  1.00  0.00     0.042 C 
HETATM    6  C5  UNL     1      22.835   1.144  52.127  1.00  0.00    -0.057 C 
HETATM    7  C9  UNL     1      22.425   1.789  51.040  1.00  0.00     0.010 C 
HETATM    8  C10 UNL     1      21.461   1.061  50.172  1.00  0.00     0.068 C 
HETATM    9  N1  UNL     1      22.835   3.116  50.645  1.00  0.00    -0.343 N 
HETATM   10  H3  UNL     1      23.911   4.903  52.061  1.00  0.00     0.086 HD
ENDROOT
BRANCH   9  11
HETATM   11  C11 UNL     1      22.199   3.878  49.653  1.00  0.00     0.182 C 
HETATM   12  C12 UNL     1      22.864   3.723  48.287  1.00  0.00     0.055 C 
HETATM   13  C13 UNL     1      22.681   5.065  47.615  1.00  0.00     0.125 C 
HETATM   14  N2  UNL     1      22.068   5.918  48.579  1.00  0.00    -0.359 N 
HETATM   15  C14 UNL     1      21.952   5.297  49.870  1.00  0.00     0.240 C 
HETATM   16  H21 UNL     1      21.736   6.887  48.390  1.00  0.00     0.162 HD
HETATM   17  O3  UNL     1      21.695   5.778  51.008  1.00  0.00    -0.271 OA
ENDBRANCH   9  11
BRANCH   6  18
HETATM   18  C6  UNL     1      22.340  -0.226  52.437  1.00  0.00     0.046 C 
BRANCH  18  19
HETATM   19  C7  UNL     1      23.074  -0.821  53.631  1.00  0.00     0.114 C 
BRANCH  19  20
HETATM   20  C8  UNL     1      22.113  -1.401  54.607  1.00  0.00     0.139 C 
HETATM   21  O1  UNL     1      22.554  -1.946  55.657  1.00  0.00    -0.650 OA
BRANCH  20  22
HETATM   22  O2  UNL     1      20.764  -1.620  54.877  1.00  0.00    -0.776 OA
HETATM   23  H12 UNL     1      20.463  -2.461  55.380  1.00  0.00     0.167 HD
ENDBRANCH  20  22
ENDBRANCH  19  20
ENDBRANCH  18  19
ENDBRANCH   6  18
TORSDOF 5
ENDMDL
MODEL 9
REMARK VINA RESULT:      -6.3      3.351      6.844
REMARK  5 active torsions:
REMARK  status: ('A' for Active; 'I' for Inactive)
REMARK    1  A    between atoms: C5_6  and  C6_7 
REMARK    2  A    between atoms: C6_7  and  C7_8 
REMARK    3  A    between atoms: C7_8  and  C8_9 
REMARK    4  A    between atoms: C8_9  and  O2_11 
REMARK    5  A    between atoms: N1_14  and  C11_15 
ROOT
HETATM    1  C1  UNL     1      26.705   3.495  49.353  1.00  0.00     0.098 C 
HETATM    2  C2  UNL     1      26.268   3.136  50.549  1.00  0.00    -0.138 C 
HETATM    3  P1  UNL     1      25.668   2.788  51.989  1.00  0.00    -0.004 P 
HETATM    4  C3  UNL     1      26.353   1.228  52.304  1.00  0.00     0.063 C 
HETATM    5  C4  UNL     1      25.347   0.611  53.289  1.00  0.00     0.042 C 
HETATM    6  C5  UNL     1      24.009   0.417  52.771  1.00  0.00    -0.057 C 
HETATM    7  C9  UNL     1      23.400   1.359  52.057  1.00  0.00     0.010 C 
HETATM    8  C10 UNL     1      22.028   1.035  51.583  1.00  0.00     0.068 C 
HETATM    9  N1  UNL     1      23.957   2.647  51.715  1.00  0.00    -0.343 N 
HETATM   10  H3  UNL     1      25.907   3.837  52.781  1.00  0.00     0.086 HD
ENDROOT
BRANCH   9  11
HETATM   11  C11 UNL     1      23.212   3.719  51.198  1.00  0.00     0.182 C 
HETATM   12  C12 UNL     1      22.123   4.186  52.162  1.00  0.00     0.055 C 
HETATM   13  C13 UNL     1      20.999   4.660  51.269  1.00  0.00     0.125 C 
HETATM   14  N2  UNL     1      21.395   4.368  49.931  1.00  0.00    -0.359 N 
HETATM   15  C14 UNL     1      22.623   3.624  49.870  1.00  0.00     0.240 C 
HETATM   16  H21 UNL     1      20.868   4.652  49.078  1.00  0.00     0.162 HD
HETATM   17  O3  UNL     1      23.169   2.988  48.926  1.00  0.00    -0.271 OA
ENDBRANCH   9  11
BRANCH   6  18
HETATM   18  C6  UNL     1      23.334  -0.876  53.066  1.00  0.00     0.046 C 
BRANCH  18  19
HETATM   19  C7  UNL     1      22.962  -0.981  54.539  1.00  0.00     0.114 C 
BRANCH  19  20
HETATM   20  C8  UNL     1      21.486  -0.930  54.716  1.00  0.00     0.139 C 
HETATM   21  O1  UNL     1      20.932   0.180  54.949  1.00  0.00    -0.650 OA
BRANCH  20  22
HETATM   22  O2  UNL     1      20.319  -1.690  54.734  1.00  0.00    -0.776 OA
HETATM   23  H12 UNL     1      19.931  -2.028  55.621  1.00  0.00     0.167 HD
ENDBRANCH  20  22
ENDBRANCH  19  20
ENDBRANCH  18  19
ENDBRANCH   6  18
TORSDOF 5
ENDMDL
