MODEL 1
REMARK VINA RESULT:      -7.8      0.000      0.000
REMARK  8 active torsions:
REMARK  status: ('A' for Active; 'I' for Inactive)
REMARK    1  A    between atoms: O1_2  and  C2_3 
REMARK    2  A    between atoms: C5_6  and  C6_7 
REMARK    3  A    between atoms: C6_7  and  N1_8 
REMARK    4  A    between atoms: C7_9  and  C8_10 
REMARK    5  A    between atoms: N4_15  and  C11_16 
REMARK    6  A    between atoms: C11_16  and  C13_18 
REMARK    7  A    between atoms: C14_19  and  C15_20 
REMARK    8  A    between atoms: C16_21  and  C17_22 
ROOT
HETATM    1  C8  UNL     1      26.989   1.731  52.514  1.00  0.00     0.236 A 
HETATM    2  N2  UNL     1      28.148   2.476  52.927  1.00  0.00    -0.253 NA
HETATM    3  C9  UNL     1      28.985   2.171  53.796  1.00  0.00     0.230 A 
HETATM    4  N3  UNL     1      29.002   0.961  54.617  1.00  0.00    -0.238 NA
HETATM    5  C10 UNL     1      27.984   0.181  54.306  1.00  0.00     0.208 A 
HETATM    6  N4  UNL     1      26.990   0.474  53.288  1.00  0.00    -0.341 N 
ENDROOT
BRANCH   1   7
HETATM    7  C7  UNL     1      25.834   2.586  53.028  1.00  0.00     0.045 C 
HETATM    8  C6  UNL     1      24.713   3.066  52.495  1.00  0.00     0.016 C 
BRANCH   8   9
HETATM    9  C5  UNL     1      24.148   2.940  51.167  1.00  0.00    -0.015 A 
HETATM   10  C4  UNL     1      24.458   3.654  50.036  1.00  0.00     0.016 A 
HETATM   11  C3  UNL     1      23.849   3.461  48.801  1.00  0.00     0.037 A 
HETATM   12  C2  UNL     1      22.891   2.509  48.707  1.00  0.00     0.068 A 
HETATM   13  C19 UNL     1      22.472   1.706  49.774  1.00  0.00     0.037 A 
HETATM   14  C18 UNL     1      23.144   1.985  50.950  1.00  0.00     0.016 A 
BRANCH  12  15
HETATM   15  O1  UNL     1      22.296   2.329  47.464  1.00  0.00    -0.356 OA
HETATM   16  C1  UNL     1      21.909   3.375  46.599  1.00  0.00     0.210 C 
ENDBRANCH  12  15
ENDBRANCH   8   9
BRANCH   8  17
HETATM   17  N1  UNL     1      23.944   3.863  53.435  1.00  0.00    -0.302 NA
HETATM   18  H6  UNL     1      24.698   3.773  54.186  1.00  0.00     0.124 HD
HETATM   19  H7  UNL     1      24.685   3.775  54.177  1.00  0.00     0.124 HD
ENDBRANCH   8  17
ENDBRANCH   1   7
BRANCH   6  20
HETATM   20  C11 UNL     1      26.026  -0.623  53.175  1.00  0.00     0.106 C 
HETATM   21  C12 UNL     1      26.530  -1.838  52.507  1.00  0.00     0.037 C 
BRANCH  20  22
HETATM   22  C13 UNL     1      25.354  -0.855  54.460  1.00  0.00    -0.002 C 
HETATM   23  C14 UNL     1      24.037  -0.635  54.454  1.00  0.00    -0.002 C 
BRANCH  23  24
HETATM   24  C15 UNL     1      22.832  -0.247  53.768  1.00  0.00    -0.002 C 
HETATM   25  C16 UNL     1      21.597  -0.059  54.165  1.00  0.00     0.004 C 
BRANCH  25  26
HETATM   26  C17 UNL     1      20.666   0.342  53.121  1.00  0.00     0.249 C 
HETATM   27  F1  UNL     1      20.815  -0.268  51.925  1.00  0.00    -0.251 F 
ENDBRANCH  25  26
ENDBRANCH  23  24
ENDBRANCH  20  22
ENDBRANCH   6  20
TORSDOF 8
ENDMDL
MODEL 2
REMARK VINA RESULT:      -7.8      2.469      3.092
REMARK  8 active torsions:
REMARK  status: ('A' for Active; 'I' for Inactive)
REMARK    1  A    between atoms: O1_2  and  C2_3 
REMARK    2  A    between atoms: C5_6  and  C6_7 
REMARK    3  A    between atoms: C6_7  and  N1_8 
REMARK    4  A    between atoms: C7_9  and  C8_10 
REMARK    5  A    between atoms: N4_15  and  C11_16 
REMARK    6  A    between atoms: C11_16  and  C13_18 
REMARK    7  A    between atoms: C14_19  and  C15_20 
REMARK    8  A    between atoms: C16_21  and  C17_22 
ROOT
HETATM    1  C8  UNL     1      26.930   1.454  51.901  1.00  0.00     0.236 A 
HETATM    2  N2  UNL     1      27.847   2.449  52.391  1.00  0.00    -0.253 NA
HETATM    3  C9  UNL     1      28.423   2.483  53.493  1.00  0.00     0.230 A 
HETATM    4  N3  UNL     1      28.316   1.503  54.574  1.00  0.00    -0.238 NA
HETATM    5  C10 UNL     1      27.507   0.521  54.225  1.00  0.00     0.208 A 
HETATM    6  N4  UNL     1      26.825   0.417  52.946  1.00  0.00    -0.341 N 
ENDROOT
BRANCH   1   7
HETATM    7  C7  UNL     1      25.601   2.205  51.865  1.00  0.00     0.045 C 
HETATM    8  C6  UNL     1      25.154   3.288  51.235  1.00  0.00     0.016 C 
BRANCH   8   9
HETATM    9  C5  UNL     1      25.794   4.192  50.301  1.00  0.00    -0.015 A 
HETATM   10  C4  UNL     1      26.853   3.944  49.462  1.00  0.00     0.016 A 
HETATM   11  C3  UNL     1      27.404   4.888  48.603  1.00  0.00     0.037 A 
HETATM   12  C2  UNL     1      26.863   6.128  48.590  1.00  0.00     0.068 A 
HETATM   13  C19 UNL     1      25.784   6.524  49.390  1.00  0.00     0.037 A 
HETATM   14  C18 UNL     1      25.318   5.508  50.203  1.00  0.00     0.016 A 
BRANCH  12  15
HETATM   15  O1  UNL     1      27.425   7.057  47.723  1.00  0.00    -0.356 OA
HETATM   16  C1  UNL     1      28.440   7.974  48.074  1.00  0.00     0.210 C 
ENDBRANCH  12  15
ENDBRANCH   8   9
BRANCH   8  17
HETATM   17  N1  UNL     1      23.776   3.602  51.572  1.00  0.00    -0.302 NA
HETATM   18  H6  UNL     1      23.990   4.646  51.638  1.00  0.00     0.124 HD
HETATM   19  H7  UNL     1      23.985   4.631  51.638  1.00  0.00     0.124 HD
ENDBRANCH   8  17
ENDBRANCH   1   7
BRANCH   6  20
HETATM   20  C11 UNL     1      26.041  -0.817  52.877  1.00  0.00     0.106 C 
HETATM   21  C12 UNL     1      26.817  -2.042  52.606  1.00  0.00     0.037 C 
BRANCH  20  22
HETATM   22  C13 UNL     1      25.117  -0.909  54.016  1.00  0.00    -0.002 C 
HETATM   23  C14 UNL     1      23.855  -0.570  53.744  1.00  0.00    -0.002 C 
BRANCH  23  24
HETATM   24  C15 UNL     1      22.847  -0.115  52.821  1.00  0.00    -0.002 C 
HETATM   25  C16 UNL     1      21.543  -0.014  52.899  1.00  0.00     0.004 C 
BRANCH  25  26
HETATM   26  C17 UNL     1      20.891   0.510  51.707  1.00  0.00     0.249 C 
HETATM   27  F1  UNL     1      21.342   0.035  50.526  1.00  0.00    -0.251 F 
ENDBRANCH  25  26
ENDBRANCH  23  24
ENDBRANCH  20  22
ENDBRANCH   6  20
TORSDOF 8
ENDMDL
MODEL 3
REMARK VINA RESULT:      -7.6      3.317      6.881
REMARK  8 active torsions:
REMARK  status: ('A' for Active; 'I' for Inactive)
REMARK    1  A    between atoms: O1_2  and  C2_3 
REMARK    2  A    between atoms: C5_6  and  C6_7 
REMARK    3  A    between atoms: C6_7  and  N1_8 
REMARK    4  A    between atoms: C7_9  and  C8_10 
REMARK    5  A    between atoms: N4_15  and  C11_16 
REMARK    6  A    between atoms: C11_16  and  C13_18 
REMARK    7  A    between atoms: C14_19  and  C15_20 
REMARK    8  A    between atoms: C16_21  and  C17_22 
ROOT
HETATM    1  C8  UNL     1      22.473   0.910  52.081  1.00  0.00     0.236 A 
HETATM    2  N2  UNL     1      21.608   0.550  53.174  1.00  0.00    -0.253 NA
HETATM    3  C9  UNL     1      20.373   0.681  53.248  1.00  0.00     0.230 A 
HETATM    4  N3  UNL     1      19.482   1.232  52.227  1.00  0.00    -0.238 NA
HETATM    5  C10 UNL     1      20.171   1.580  51.157  1.00  0.00     0.208 A 
HETATM    6  N4  UNL     1      21.608   1.432  51.005  1.00  0.00    -0.341 N 
ENDROOT
BRANCH   1   7
HETATM    7  C7  UNL     1      23.263   2.087  52.647  1.00  0.00     0.045 C 
HETATM    8  C6  UNL     1      24.492   2.244  53.134  1.00  0.00     0.016 C 
BRANCH   8   9
HETATM    9  C5  UNL     1      25.584   1.309  53.308  1.00  0.00    -0.015 A 
HETATM   10  C4  UNL     1      26.413   1.155  54.393  1.00  0.00     0.016 A 
HETATM   11  C3  UNL     1      27.445   0.226  54.459  1.00  0.00     0.037 A 
HETATM   12  C2  UNL     1      27.647  -0.578  53.388  1.00  0.00     0.068 A 
HETATM   13  C19 UNL     1      26.884  -0.532  52.216  1.00  0.00     0.037 A 
HETATM   14  C18 UNL     1      25.888   0.426  52.261  1.00  0.00     0.016 A 
BRANCH  12  15
HETATM   15  O1  UNL     1      28.682  -1.501  53.475  1.00  0.00    -0.356 OA
HETATM   16  C1  UNL     1      30.033  -1.174  53.718  1.00  0.00     0.210 C 
ENDBRANCH  12  15
ENDBRANCH   8   9
BRANCH   8  17
HETATM   17  N1  UNL     1      24.750   3.605  53.572  1.00  0.00    -0.302 NA
HETATM   18  H6  UNL     1      25.133   3.270  54.511  1.00  0.00     0.124 HD
HETATM   19  H7  UNL     1      25.127   3.277  54.498  1.00  0.00     0.124 HD
ENDBRANCH   8  17
ENDBRANCH   1   7
BRANCH   6  20
HETATM   20  C11 UNL     1      22.038   1.880  49.679  1.00  0.00     0.106 C 
HETATM   21  C12 UNL     1      21.547   1.068  48.550  1.00  0.00     0.037 C 
BRANCH  20  22
HETATM   22  C13 UNL     1      21.839   3.329  49.533  1.00  0.00    -0.002 C 
HETATM   23  C14 UNL     1      22.962   4.041  49.419  1.00  0.00    -0.002 C 
BRANCH  23  24
HETATM   24  C15 UNL     1      24.399   4.121  49.364  1.00  0.00    -0.002 C 
HETATM   25  C16 UNL     1      25.354   3.271  49.654  1.00  0.00     0.004 C 
BRANCH  25  26
HETATM   26  C17 UNL     1      26.706   3.767  49.448  1.00  0.00     0.249 C 
HETATM   27  F1  UNL     1      26.833   4.818  48.610  1.00  0.00    -0.251 F 
ENDBRANCH  25  26
ENDBRANCH  23  24
ENDBRANCH  20  22
ENDBRANCH   6  20
TORSDOF 8
ENDMDL
MODEL 4
REMARK VINA RESULT:      -7.5      3.373      6.971
REMARK  8 active torsions:
REMARK  status: ('A' for Active; 'I' for Inactive)
REMARK    1  A    between atoms: O1_2  and  C2_3 
REMARK    2  A    between atoms: C5_6  and  C6_7 
REMARK    3  A    between atoms: C6_7  and  N1_8 
REMARK    4  A    between atoms: C7_9  and  C8_10 
REMARK    5  A    between atoms: N4_15  and  C11_16 
REMARK    6  A    between atoms: C11_16  and  C13_18 
REMARK    7  A    between atoms: C14_19  and  C15_20 
REMARK    8  A    between atoms: C16_21  and  C17_22 
ROOT
HETATM    1  C8  UNL     1      20.686   2.806  51.833  1.00  0.00     0.236 A 
HETATM    2  N2  UNL     1      19.458   3.422  52.262  1.00  0.00    -0.253 NA
HETATM    3  C9  UNL     1      18.536   3.866  51.554  1.00  0.00     0.230 A 
HETATM    4  N3  UNL     1      18.467   3.862  50.093  1.00  0.00    -0.238 NA
HETATM    5  C10 UNL     1      19.544   3.294  49.584  1.00  0.00     0.208 A 
HETATM    6  N4  UNL     1      20.640   2.740  50.359  1.00  0.00    -0.341 N 
ENDROOT
BRANCH   1   7
HETATM    7  C7  UNL     1      21.738   3.843  52.214  1.00  0.00     0.045 C 
HETATM    8  C6  UNL     1      23.006   3.789  52.615  1.00  0.00     0.016 C 
BRANCH   8   9
HETATM    9  C5  UNL     1      23.897   2.668  52.841  1.00  0.00    -0.015 A 
HETATM   10  C4  UNL     1      23.755   1.367  52.425  1.00  0.00     0.016 A 
HETATM   11  C3  UNL     1      24.668   0.357  52.703  1.00  0.00     0.037 A 
HETATM   12  C2  UNL     1      25.768   0.674  53.426  1.00  0.00     0.068 A 
HETATM   13  C19 UNL     1      26.043   1.956  53.916  1.00  0.00     0.037 A 
HETATM   14  C18 UNL     1      25.069   2.879  53.582  1.00  0.00     0.016 A 
BRANCH  12  15
HETATM   15  O1  UNL     1      26.670  -0.348  53.691  1.00  0.00    -0.356 OA
HETATM   16  C1  UNL     1      27.976  -0.427  53.160  1.00  0.00     0.210 C 
ENDBRANCH  12  15
ENDBRANCH   8   9
BRANCH   8  17
HETATM   17  N1  UNL     1      23.568   5.103  52.874  1.00  0.00    -0.302 NA
HETATM   18  H6  UNL     1      22.927   5.560  52.152  1.00  0.00     0.124 HD
HETATM   19  H7  UNL     1      22.938   5.556  52.163  1.00  0.00     0.124 HD
ENDBRANCH   8  17
ENDBRANCH   1   7
BRANCH   6  20
HETATM   20  C11 UNL     1      21.651   2.151  49.479  1.00  0.00     0.106 C 
HETATM   21  C12 UNL     1      21.265   0.878  48.840  1.00  0.00     0.037 C 
BRANCH  20  22
HETATM   22  C13 UNL     1      22.194   3.164  48.564  1.00  0.00    -0.002 C 
HETATM   23  C14 UNL     1      23.492   3.431  48.727  1.00  0.00    -0.002 C 
BRANCH  23  24
HETATM   24  C15 UNL     1      24.743   3.214  49.408  1.00  0.00    -0.002 C 
HETATM   25  C16 UNL     1      25.705   4.019  49.788  1.00  0.00     0.004 C 
BRANCH  25  26
HETATM   26  C17 UNL     1      26.820   3.373  50.464  1.00  0.00     0.249 C 
HETATM   27  F1  UNL     1      26.762   2.026  50.553  1.00  0.00    -0.251 F 
ENDBRANCH  25  26
ENDBRANCH  23  24
ENDBRANCH  20  22
ENDBRANCH   6  20
TORSDOF 8
ENDMDL
MODEL 5
REMARK VINA RESULT:      -7.3      3.331      5.548
REMARK  8 active torsions:
REMARK  status: ('A' for Active; 'I' for Inactive)
REMARK    1  A    between atoms: O1_2  and  C2_3 
REMARK    2  A    between atoms: C5_6  and  C6_7 
REMARK    3  A    between atoms: C6_7  and  N1_8 
REMARK    4  A    between atoms: C7_9  and  C8_10 
REMARK    5  A    between atoms: N4_15  and  C11_16 
REMARK    6  A    between atoms: C11_16  and  C13_18 
REMARK    7  A    between atoms: C14_19  and  C15_20 
REMARK    8  A    between atoms: C16_21  and  C17_22 
ROOT
HETATM    1  C8  UNL     1      22.333   2.696  51.870  1.00  0.00     0.236 A 
HETATM    2  N2  UNL     1      20.926   2.725  52.169  1.00  0.00    -0.253 NA
HETATM    3  C9  UNL     1      20.278   1.937  52.880  1.00  0.00     0.230 A 
HETATM    4  N3  UNL     1      20.793   0.775  53.605  1.00  0.00    -0.238 NA
HETATM    5  C10 UNL     1      22.095   0.660  53.419  1.00  0.00     0.208 A 
HETATM    6  N4  UNL     1      22.907   1.561  52.619  1.00  0.00    -0.341 N 
ENDROOT
BRANCH   1   7
HETATM    7  C7  UNL     1      22.359   2.328  50.389  1.00  0.00     0.045 C 
HETATM    8  C6  UNL     1      23.059   2.738  49.333  1.00  0.00     0.016 C 
BRANCH   8   9
HETATM    9  C5  UNL     1      24.109   3.726  49.200  1.00  0.00    -0.015 A 
HETATM   10  C4  UNL     1      24.002   5.038  48.807  1.00  0.00     0.016 A 
HETATM   11  C3  UNL     1      25.080   5.910  48.702  1.00  0.00     0.037 A 
HETATM   12  C2  UNL     1      26.312   5.438  49.008  1.00  0.00     0.068 A 
HETATM   13  C19 UNL     1      26.571   4.126  49.421  1.00  0.00     0.037 A 
HETATM   14  C18 UNL     1      25.429   3.349  49.488  1.00  0.00     0.016 A 
BRANCH  12  15
HETATM   15  O1  UNL     1      27.375   6.325  48.900  1.00  0.00    -0.356 OA
HETATM   16  C1  UNL     1      28.582   6.056  48.218  1.00  0.00     0.210 C 
ENDBRANCH  12  15
ENDBRANCH   8   9
BRANCH   8  17
HETATM   17  N1  UNL     1      22.670   2.060  48.108  1.00  0.00    -0.302 NA
HETATM   18  H6  UNL     1      22.401   1.174  48.640  1.00  0.00     0.124 HD
HETATM   19  H7  UNL     1      22.405   1.185  48.630  1.00  0.00     0.124 HD
ENDBRANCH   8  17
ENDBRANCH   1   7
BRANCH   6  20
HETATM   20  C11 UNL     1      24.316   1.164  52.663  1.00  0.00     0.106 C 
HETATM   21  C12 UNL     1      25.239   2.181  53.201  1.00  0.00     0.037 C 
BRANCH  20  22
HETATM   22  C13 UNL     1      24.459  -0.175  53.248  1.00  0.00    -0.002 C 
HETATM   23  C14 UNL     1      25.717  -0.605  53.368  1.00  0.00    -0.002 C 
BRANCH  23  24
HETATM   24  C15 UNL     1      27.133  -0.407  53.197  1.00  0.00    -0.002 C 
HETATM   25  C16 UNL     1      28.108  -0.151  54.035  1.00  0.00     0.004 C 
BRANCH  25  26
HETATM   26  C17 UNL     1      29.426  -0.026  53.429  1.00  0.00     0.249 C 
HETATM   27  F1  UNL     1      30.295  -1.028  53.683  1.00  0.00    -0.251 F 
ENDBRANCH  25  26
ENDBRANCH  23  24
ENDBRANCH  20  22
ENDBRANCH   6  20
TORSDOF 8
ENDMDL
MODEL 6
REMARK VINA RESULT:      -7.2      3.539      5.730
REMARK  8 active torsions:
REMARK  status: ('A' for Active; 'I' for Inactive)
REMARK    1  A    between atoms: O1_2  and  C2_3 
REMARK    2  A    between atoms: C5_6  and  C6_7 
REMARK    3  A    between atoms: C6_7  and  N1_8 
REMARK    4  A    between atoms: C7_9  and  C8_10 
REMARK    5  A    between atoms: N4_15  and  C11_16 
REMARK    6  A    between atoms: C11_16  and  C13_18 
REMARK    7  A    between atoms: C14_19  and  C15_20 
REMARK    8  A    between atoms: C16_21  and  C17_22 
ROOT
HETATM    1  C8  UNL     1      23.027   2.970  50.246  1.00  0.00     0.236 A 
HETATM    2  N2  UNL     1      23.043   2.918  48.808  1.00  0.00    -0.253 NA
HETATM    3  C9  UNL     1      22.455   2.112  48.065  1.00  0.00     0.230 A 
HETATM    4  N3  UNL     1      21.584   1.010  48.473  1.00  0.00    -0.238 NA
HETATM    5  C10 UNL     1      21.476   0.973  49.788  1.00  0.00     0.208 A 
HETATM    6  N4  UNL     1      22.120   1.899  50.704  1.00  0.00    -0.341 N 
ENDROOT
BRANCH   1   7
HETATM    7  C7  UNL     1      24.449   2.558  50.618  1.00  0.00     0.045 C 
HETATM    8  C6  UNL     1      25.654   3.098  50.455  1.00  0.00     0.016 C 
BRANCH   8   9
HETATM    9  C5  UNL     1      26.077   4.341  49.842  1.00  0.00    -0.015 A 
HETATM   10  C4  UNL     1      25.471   5.572  49.900  1.00  0.00     0.016 A 
HETATM   11  C3  UNL     1      25.955   6.710  49.265  1.00  0.00     0.037 A 
HETATM   12  C2  UNL     1      27.096   6.599  48.545  1.00  0.00     0.068 A 
HETATM   13  C19 UNL     1      27.820   5.410  48.396  1.00  0.00     0.037 A 
HETATM   14  C18 UNL     1      27.247   4.346  49.068  1.00  0.00     0.016 A 
BRANCH  12  15
HETATM   15  O1  UNL     1      27.566   7.747  47.920  1.00  0.00    -0.356 OA
HETATM   16  C1  UNL     1      28.768   8.409  48.250  1.00  0.00     0.210 C 
ENDBRANCH  12  15
ENDBRANCH   8   9
BRANCH   8  17
HETATM   17  N1  UNL     1      26.717   2.265  50.990  1.00  0.00    -0.302 NA
HETATM   18  H6  UNL     1      27.456   2.765  50.401  1.00  0.00     0.124 HD
HETATM   19  H7  UNL     1      27.446   2.756  50.410  1.00  0.00     0.124 HD
ENDBRANCH   8  17
ENDBRANCH   1   7
BRANCH   6  20
HETATM   20  C11 UNL     1      21.753   1.597  52.089  1.00  0.00     0.106 C 
HETATM   21  C12 UNL     1      20.496   2.211  52.555  1.00  0.00     0.037 C 
BRANCH  20  22
HETATM   22  C13 UNL     1      21.876   0.157  52.354  1.00  0.00    -0.002 C 
HETATM   23  C14 UNL     1      23.026  -0.214  52.921  1.00  0.00    -0.002 C 
BRANCH  23  24
HETATM   24  C15 UNL     1      24.327   0.108  53.450  1.00  0.00    -0.002 C 
HETATM   25  C16 UNL     1      25.488  -0.499  53.399  1.00  0.00     0.004 C 
BRANCH  25  26
HETATM   26  C17 UNL     1      26.574   0.187  54.083  1.00  0.00     0.249 C 
HETATM   27  F1  UNL     1      26.550   0.143  55.432  1.00  0.00    -0.251 F 
ENDBRANCH  25  26
ENDBRANCH  23  24
ENDBRANCH  20  22
ENDBRANCH   6  20
TORSDOF 8
ENDMDL
MODEL 7
REMARK VINA RESULT:      -7.1      3.805      7.110
REMARK  8 active torsions:
REMARK  status: ('A' for Active; 'I' for Inactive)
REMARK    1  A    between atoms: O1_2  and  C2_3 
REMARK    2  A    between atoms: C5_6  and  C6_7 
REMARK    3  A    between atoms: C6_7  and  N1_8 
REMARK    4  A    between atoms: C7_9  and  C8_10 
REMARK    5  A    between atoms: N4_15  and  C11_16 
REMARK    6  A    between atoms: C11_16  and  C13_18 
REMARK    7  A    between atoms: C14_19  and  C15_20 
REMARK    8  A    between atoms: C16_21  and  C17_22 
ROOT
HETATM    1  C8  UNL     1      22.772   0.984  51.017  1.00  0.00     0.236 A 
HETATM    2  N2  UNL     1      21.474   0.788  50.429  1.00  0.00    -0.253 NA
HETATM    3  C9  UNL     1      20.636   1.654  50.119  1.00  0.00     0.230 A 
HETATM    4  N3  UNL     1      20.767   3.103  50.270  1.00  0.00    -0.238 NA
HETATM    5  C10 UNL     1      21.943   3.405  50.787  1.00  0.00     0.208 A 
HETATM    6  N4  UNL     1      22.969   2.441  51.148  1.00  0.00    -0.341 N 
ENDROOT
BRANCH   1   7
HETATM    7  C7  UNL     1      22.597   0.416  52.423  1.00  0.00     0.045 C 
HETATM    8  C6  UNL     1      23.424  -0.057  53.353  1.00  0.00     0.016 C 
BRANCH   8   9
HETATM    9  C5  UNL     1      24.865  -0.208  53.373  1.00  0.00    -0.015 A 
HETATM   10  C4  UNL     1      25.658  -0.948  52.530  1.00  0.00     0.016 A 
HETATM   11  C3  UNL     1      27.041  -1.034  52.639  1.00  0.00     0.037 A 
HETATM   12  C2  UNL     1      27.645  -0.344  53.635  1.00  0.00     0.068 A 
HETATM   13  C19 UNL     1      26.966   0.449  54.566  1.00  0.00     0.037 A 
HETATM   14  C18 UNL     1      25.598   0.461  54.365  1.00  0.00     0.016 A 
BRANCH  12  15
HETATM   15  O1  UNL     1      29.028  -0.441  53.725  1.00  0.00    -0.356 OA
HETATM   16  C1  UNL     1      29.772  -1.610  53.458  1.00  0.00     0.210 C 
ENDBRANCH  12  15
ENDBRANCH   8   9
BRANCH   8  17
HETATM   17  N1  UNL     1      22.726  -0.505  54.546  1.00  0.00    -0.302 NA
HETATM   18  H6  UNL     1      22.115  -1.176  53.981  1.00  0.00     0.124 HD
HETATM   19  H7  UNL     1      22.122  -1.166  53.992  1.00  0.00     0.124 HD
ENDBRANCH   8  17
ENDBRANCH   1   7
BRANCH   6  20
HETATM   20  C11 UNL     1      24.163   3.120  51.655  1.00  0.00     0.106 C 
HETATM   21  C12 UNL     1      24.130   3.464  53.089  1.00  0.00     0.037 C 
BRANCH  20  22
HETATM   22  C13 UNL     1      25.380   2.428  51.211  1.00  0.00    -0.002 C 
HETATM   23  C14 UNL     1      26.162   3.135  50.393  1.00  0.00    -0.002 C 
BRANCH  23  24
HETATM   24  C15 UNL     1      26.444   4.339  49.653  1.00  0.00    -0.002 C 
HETATM   25  C16 UNL     1      27.431   4.695  48.867  1.00  0.00     0.004 C 
BRANCH  25  26
HETATM   26  C17 UNL     1      27.322   6.034  48.308  1.00  0.00     0.249 C 
HETATM   27  F1  UNL     1      27.113   7.034  49.192  1.00  0.00    -0.251 F 
ENDBRANCH  25  26
ENDBRANCH  23  24
ENDBRANCH  20  22
ENDBRANCH   6  20
TORSDOF 8
ENDMDL
MODEL 8
REMARK VINA RESULT:      -7.1      3.010      5.986
REMARK  8 active torsions:
REMARK  status: ('A' for Active; 'I' for Inactive)
REMARK    1  A    between atoms: O1_2  and  C2_3 
REMARK    2  A    between atoms: C5_6  and  C6_7 
REMARK    3  A    between atoms: C6_7  and  N1_8 
REMARK    4  A    between atoms: C7_9  and  C8_10 
REMARK    5  A    between atoms: N4_15  and  C11_16 
REMARK    6  A    between atoms: C11_16  and  C13_18 
REMARK    7  A    between atoms: C14_19  and  C15_20 
REMARK    8  A    between atoms: C16_21  and  C17_22 
ROOT
HETATM    1  C8  UNL     1      23.959   5.379  51.624  1.00  0.00     0.236 A 
HETATM    2  N2  UNL     1      24.204   6.759  51.295  1.00  0.00    -0.253 NA
HETATM    3  C9  UNL     1      23.428   7.566  50.754  1.00  0.00     0.230 A 
HETATM    4  N3  UNL     1      22.054   7.313  50.320  1.00  0.00    -0.238 NA
HETATM    5  C10 UNL     1      21.709   6.069  50.594  1.00  0.00     0.208 A 
HETATM    6  N4  UNL     1      22.563   5.089  51.243  1.00  0.00    -0.341 N 
ENDROOT
BRANCH   1   7
HETATM    7  C7  UNL     1      24.866   4.632  50.650  1.00  0.00     0.045 C 
HETATM    8  C6  UNL     1      25.505   3.464  50.671  1.00  0.00     0.016 C 
BRANCH   8   9
HETATM    9  C5  UNL     1      25.570   2.422  51.675  1.00  0.00    -0.015 A 
HETATM   10  C4  UNL     1      25.026   2.415  52.937  1.00  0.00     0.016 A 
HETATM   11  C3  UNL     1      25.153   1.361  53.834  1.00  0.00     0.037 A 
HETATM   12  C2  UNL     1      25.855   0.272  53.441  1.00  0.00     0.068 A 
HETATM   13  C19 UNL     1      26.465   0.140  52.188  1.00  0.00     0.037 A 
HETATM   14  C18 UNL     1      26.275   1.245  51.379  1.00  0.00     0.016 A 
BRANCH  12  15
HETATM   15  O1  UNL     1      25.968  -0.772  54.350  1.00  0.00    -0.356 OA
HETATM   16  C1  UNL     1      25.075  -1.010  55.417  1.00  0.00     0.210 C 
ENDBRANCH  12  15
ENDBRANCH   8   9
BRANCH   8  17
HETATM   17  N1  UNL     1      26.273   3.225  49.462  1.00  0.00    -0.302 NA
HETATM   18  H6  UNL     1      25.813   4.049  48.962  1.00  0.00     0.124 HD
HETATM   19  H7  UNL     1      25.820   4.036  48.967  1.00  0.00     0.124 HD
ENDBRANCH   8  17
ENDBRANCH   1   7
BRANCH   6  20
HETATM   20  C11 UNL     1      21.851   3.824  51.430  1.00  0.00     0.106 C 
HETATM   21  C12 UNL     1      20.458   3.950  51.902  1.00  0.00     0.037 C 
BRANCH  20  22
HETATM   22  C13 UNL     1      22.034   2.949  50.264  1.00  0.00    -0.002 C 
HETATM   23  C14 UNL     1      22.158   1.651  50.550  1.00  0.00    -0.002 C 
BRANCH  23  24
HETATM   24  C15 UNL     1      22.213   0.575  51.506  1.00  0.00    -0.002 C 
HETATM   25  C16 UNL     1      21.667   0.396  52.684  1.00  0.00     0.004 C 
BRANCH  25  26
HETATM   26  C17 UNL     1      21.989  -0.869  53.328  1.00  0.00     0.249 C 
HETATM   27  F1  UNL     1      23.074  -1.518  52.855  1.00  0.00    -0.251 F 
ENDBRANCH  25  26
ENDBRANCH  23  24
ENDBRANCH  20  22
ENDBRANCH   6  20
TORSDOF 8
ENDMDL
MODEL 9
REMARK VINA RESULT:      -7.1      3.603      6.729
REMARK  8 active torsions:
REMARK  status: ('A' for Active; 'I' for Inactive)
REMARK    1  A    between atoms: O1_2  and  C2_3 
REMARK    2  A    between atoms: C5_6  and  C6_7 
REMARK    3  A    between atoms: C6_7  and  N1_8 
REMARK    4  A    between atoms: C7_9  and  C8_10 
REMARK    5  A    between atoms: N4_15  and  C11_16 
REMARK    6  A    between atoms: C11_16  and  C13_18 
REMARK    7  A    between atoms: C14_19  and  C15_20 
REMARK    8  A    between atoms: C16_21  and  C17_22 
ROOT
HETATM    1  C8  UNL     1      22.386   0.517  52.150  1.00  0.00     0.236 A 
HETATM    2  N2  UNL     1      22.532  -0.375  53.269  1.00  0.00    -0.253 NA
HETATM    3  C9  UNL     1      21.653  -0.764  54.058  1.00  0.00     0.230 A 
HETATM    4  N3  UNL     1      20.233  -0.413  54.039  1.00  0.00    -0.238 NA
HETATM    5  C10 UNL     1      19.974   0.395  53.028  1.00  0.00     0.208 A 
HETATM    6  N4  UNL     1      20.953   0.864  52.063  1.00  0.00    -0.341 N 
ENDROOT
BRANCH   1   7
HETATM    7  C7  UNL     1      23.134   1.765  52.610  1.00  0.00     0.045 C 
HETATM    8  C6  UNL     1      24.365   2.011  53.052  1.00  0.00     0.016 C 
BRANCH   8   9
HETATM    9  C5  UNL     1      25.504   1.141  53.260  1.00  0.00    -0.015 A 
HETATM   10  C4  UNL     1      26.337   1.070  54.349  1.00  0.00     0.016 A 
HETATM   11  C3  UNL     1      27.416   0.199  54.450  1.00  0.00     0.037 A 
HETATM   12  C2  UNL     1      27.661  -0.633  53.410  1.00  0.00     0.068 A 
HETATM   13  C19 UNL     1      26.898  -0.670  52.237  1.00  0.00     0.037 A 
HETATM   14  C18 UNL     1      25.854   0.236  52.246  1.00  0.00     0.016 A 
BRANCH  12  15
HETATM   15  O1  UNL     1      28.742  -1.497  53.530  1.00  0.00    -0.356 OA
HETATM   16  C1  UNL     1      30.070  -1.094  53.785  1.00  0.00     0.210 C 
ENDBRANCH  12  15
ENDBRANCH   8   9
BRANCH   8  17
HETATM   17  N1  UNL     1      24.570   3.410  53.386  1.00  0.00    -0.302 NA
HETATM   18  H6  UNL     1      24.705   3.181  54.421  1.00  0.00     0.124 HD
HETATM   19  H7  UNL     1      24.702   3.187  54.406  1.00  0.00     0.124 HD
ENDBRANCH   8  17
ENDBRANCH   1   7
BRANCH   6  20
HETATM   20  C11 UNL     1      20.319   1.712  51.052  1.00  0.00     0.106 C 
HETATM   21  C12 UNL     1      19.482   0.999  50.069  1.00  0.00     0.037 C 
BRANCH  20  22
HETATM   22  C13 UNL     1      19.682   2.878  51.680  1.00  0.00    -0.002 C 
HETATM   23  C14 UNL     1      20.395   4.004  51.627  1.00  0.00    -0.002 C 
BRANCH  23  24
HETATM   24  C15 UNL     1      21.581   4.723  51.237  1.00  0.00    -0.002 C 
HETATM   25  C16 UNL     1      21.946   5.977  51.354  1.00  0.00     0.004 C 
BRANCH  25  26
HETATM   26  C17 UNL     1      23.260   6.291  50.812  1.00  0.00     0.249 C 
HETATM   27  F1  UNL     1      24.090   6.978  51.626  1.00  0.00    -0.251 F 
ENDBRANCH  25  26
ENDBRANCH  23  24
ENDBRANCH  20  22
ENDBRANCH   6  20
TORSDOF 8
ENDMDL
