MODEL 1
REMARK VINA RESULT:      -8.6      0.000      0.000
REMARK  4 active torsions:
REMARK  status: ('A' for Active; 'I' for Inactive)
REMARK    1  A    between atoms: C3_4  and  C4_5 
REMARK    2  A    between atoms: C6_7  and  N2_8 
REMARK    3  A    between atoms: N2_8  and  C7_9 
REMARK    4  A    between atoms: C15_18  and  C16_19 
ROOT
HETATM    1  N1  UNL     1      25.373   5.503  50.124  1.00  0.00    -0.192 NA
HETATM    2  C1  UNL     1      24.851   4.538  49.762  1.00  0.00     0.087 C 
HETATM    3  C2  UNL     1      24.194   3.340  49.335  1.00  0.00     0.090 C 
HETATM    4  C3  UNL     1      23.466   2.516  50.067  1.00  0.00    -0.007 C 
ENDROOT
BRANCH   4   5
HETATM    5  C4  UNL     1      22.918   2.232  51.418  1.00  0.00     0.044 A 
HETATM    6  C5  UNL     1      24.026   2.139  52.394  1.00  0.00     0.070 A 
HETATM    7  C6  UNL     1      24.051   0.902  53.196  1.00  0.00     0.010 A 
HETATM    8  C13 UNL     1      23.261  -0.159  53.228  1.00  0.00     0.025 A 
HETATM    9  C14 UNL     1      22.147  -0.047  52.256  1.00  0.00     0.006 A 
HETATM   10  C15 UNL     1      22.038   1.046  51.470  1.00  0.00    -0.062 A 
BRANCH   7  11
HETATM   11  N2  UNL     1      25.200   0.993  54.068  1.00  0.00    -0.360 N 
HETATM   12  H6  UNL     1      25.227   1.092  55.106  1.00  0.00     0.166 HD
BRANCH  11  13
HETATM   13  C7  UNL     1      26.621   0.979  53.835  1.00  0.00     0.033 A 
HETATM   14  C8  UNL     1      27.441   2.080  53.751  1.00  0.00     0.029 A 
HETATM   15  C9  UNL     1      28.791   1.925  53.523  1.00  0.00     0.004 A 
HETATM   16  C10 UNL     1      29.292   0.647  53.384  1.00  0.00     0.019 A 
HETATM   17  C11 UNL     1      28.528  -0.483  53.458  1.00  0.00     0.013 A 
HETATM   18 BR1  UNL     1      29.292  -2.216  53.255  1.00  0.00    -0.051 Br
HETATM   19  C12 UNL     1      27.161  -0.294  53.690  1.00  0.00     0.048 A 
ENDBRANCH  11  13
ENDBRANCH   7  11
BRANCH  10  20
HETATM   20  C16 UNL     1      20.776   0.700  50.666  1.00  0.00     0.063 A 
HETATM   21  C17 UNL     1      19.775   0.432  51.018  1.00  0.00     0.023 A 
HETATM   22  C18 UNL     1      19.181   0.291  51.229  1.00  0.00    -0.066 A 
HETATM   23  C19 UNL     1      18.136   0.076  51.603  1.00  0.00     0.121 A 
HETATM   24  C23 UNL     1      19.783   2.207  51.151  1.00  0.00     0.077 A 
HETATM   25  N3  UNL     1      18.455   1.873  51.706  1.00  0.00    -0.305 N 
HETATM   26  C20 UNL     1      17.371   2.203  50.859  1.00  0.00     0.100 C 
HETATM   27  C21 UNL     1      17.216   3.730  50.956  1.00  0.00     0.088 C 
HETATM   28  S1  UNL     1      18.593   4.317  49.880  1.00  0.00    -0.166 SA
HETATM   29  C22 UNL     1      19.740   2.881  49.864  1.00  0.00     0.094 C 
ENDBRANCH  10  20
ENDBRANCH   4   5
TORSDOF 4
ENDMDL
MODEL 2
REMARK VINA RESULT:      -8.5      3.891      7.462
REMARK  4 active torsions:
REMARK  status: ('A' for Active; 'I' for Inactive)
REMARK    1  A    between atoms: C3_4  and  C4_5 
REMARK    2  A    between atoms: C6_7  and  N2_8 
REMARK    3  A    between atoms: N2_8  and  C7_9 
REMARK    4  A    between atoms: C15_18  and  C16_19 
ROOT
HETATM    1  N1  UNL     1      26.120   1.476  52.712  1.00  0.00    -0.192 NA
HETATM    2  C1  UNL     1      25.387   0.661  53.078  1.00  0.00     0.087 C 
HETATM    3  C2  UNL     1      24.459  -0.335  53.524  1.00  0.00     0.090 C 
HETATM    4  C3  UNL     1      23.140  -0.264  53.526  1.00  0.00    -0.007 C 
ENDROOT
BRANCH   4   5
HETATM    5  C4  UNL     1      21.955   0.570  53.200  1.00  0.00     0.044 A 
HETATM    6  C5  UNL     1      20.745  -0.030  53.807  1.00  0.00     0.070 A 
HETATM    7  C6  UNL     1      19.632  -0.273  52.871  1.00  0.00     0.010 A 
HETATM    8  C13 UNL     1      19.489  -0.050  51.575  1.00  0.00     0.025 A 
HETATM    9  C14 UNL     1      20.703   0.563  50.982  1.00  0.00     0.006 A 
HETATM   10  C15 UNL     1      21.779   0.821  51.755  1.00  0.00    -0.062 A 
BRANCH   7  11
HETATM   11  N2  UNL     1      18.562  -0.867  53.640  1.00  0.00    -0.360 N 
HETATM   12  H6  UNL     1      18.231  -0.621  54.598  1.00  0.00     0.166 HD
BRANCH  11  13
HETATM   13  C7  UNL     1      17.634  -1.936  53.380  1.00  0.00     0.033 A 
HETATM   14  C8  UNL     1      17.767  -3.244  53.785  1.00  0.00     0.029 A 
HETATM   15  C9  UNL     1      16.799  -4.172  53.467  1.00  0.00     0.004 A 
HETATM   16  C10 UNL     1      15.703  -3.756  52.739  1.00  0.00     0.019 A 
HETATM   17  C11 UNL     1      15.517  -2.472  52.310  1.00  0.00     0.013 A 
HETATM   18 BR1  UNL     1      13.977  -1.973  51.307  1.00  0.00    -0.051 Br
HETATM   19  C12 UNL     1      16.516  -1.553  52.647  1.00  0.00     0.048 A 
ENDBRANCH  11  13
ENDBRANCH   7  11
BRANCH  10  20
HETATM   20  C16 UNL     1      22.739   1.427  50.721  1.00  0.00     0.063 A 
HETATM   21  C17 UNL     1      22.519   1.946  49.783  1.00  0.00     0.023 A 
HETATM   22  C18 UNL     1      22.385   2.267  49.239  1.00  0.00    -0.066 A 
HETATM   23  C19 UNL     1      22.144   2.855  48.303  1.00  0.00     0.121 A 
HETATM   24  C23 UNL     1      22.275   3.215  51.007  1.00  0.00     0.077 A 
HETATM   25  N3  UNL     1      21.894   3.922  49.767  1.00  0.00    -0.305 N 
HETATM   26  C20 UNL     1      22.835   4.885  49.335  1.00  0.00     0.100 C 
HETATM   27  C21 UNL     1      22.661   6.090  50.276  1.00  0.00     0.088 C 
HETATM   28  S1  UNL     1      23.537   5.512  51.791  1.00  0.00    -0.166 SA
HETATM   29  C22 UNL     1      23.515   3.683  51.605  1.00  0.00     0.094 C 
ENDBRANCH  10  20
ENDBRANCH   4   5
TORSDOF 4
ENDMDL
MODEL 3
REMARK VINA RESULT:      -8.2      5.367      9.418
REMARK  4 active torsions:
REMARK  status: ('A' for Active; 'I' for Inactive)
REMARK    1  A    between atoms: C3_4  and  C4_5 
REMARK    2  A    between atoms: C6_7  and  N2_8 
REMARK    3  A    between atoms: N2_8  and  C7_9 
REMARK    4  A    between atoms: C15_18  and  C16_19 
ROOT
HETATM    1  N1  UNL     1      26.144  11.364  48.221  1.00  0.00    -0.192 NA
HETATM    2  C1  UNL     1      26.542  10.601  48.992  1.00  0.00     0.087 C 
HETATM    3  C2  UNL     1      27.026   9.637  49.934  1.00  0.00     0.090 C 
HETATM    4  C3  UNL     1      26.803   8.335  49.941  1.00  0.00    -0.007 C 
ENDROOT
BRANCH   4   5
HETATM    5  C4  UNL     1      26.131   7.201  49.258  1.00  0.00     0.044 A 
HETATM    6  C5  UNL     1      25.284   6.469  50.227  1.00  0.00     0.070 A 
HETATM    7  C6  UNL     1      25.537   5.018  50.306  1.00  0.00     0.010 A 
HETATM    8  C13 UNL     1      26.377   4.221  49.666  1.00  0.00     0.025 A 
HETATM    9  C14 UNL     1      27.209   4.964  48.689  1.00  0.00     0.006 A 
HETATM   10  C15 UNL     1      27.057   6.298  48.544  1.00  0.00    -0.062 A 
BRANCH   7  11
HETATM   11  N2  UNL     1      24.635   4.491  51.304  1.00  0.00    -0.360 N 
HETATM   12  H6  UNL     1      24.182   4.987  52.103  1.00  0.00     0.166 HD
BRANCH  11  13
HETATM   13  C7  UNL     1      24.075   3.187  51.541  1.00  0.00     0.033 A 
HETATM   14  C8  UNL     1      24.386   2.345  52.583  1.00  0.00     0.029 A 
HETATM   15  C9  UNL     1      23.773   1.116  52.691  1.00  0.00     0.004 A 
HETATM   16  C10 UNL     1      22.845   0.757  51.734  1.00  0.00     0.019 A 
HETATM   17  C11 UNL     1      22.495   1.550  50.678  1.00  0.00     0.013 A 
HETATM   18 BR1  UNL     1      21.205   0.986  49.396  1.00  0.00    -0.051 Br
HETATM   19  C12 UNL     1      23.135   2.791  50.595  1.00  0.00     0.048 A 
ENDBRANCH  11  13
ENDBRANCH   7  11
BRANCH  10  20
HETATM   20  C16 UNL     1      28.104   6.592  47.460  1.00  0.00     0.063 A 
HETATM   21  C17 UNL     1      28.561   7.543  47.169  1.00  0.00     0.023 A 
HETATM   22  C18 UNL     1      28.841   8.102  47.011  1.00  0.00    -0.066 A 
HETATM   23  C19 UNL     1      29.351   9.080  46.760  1.00  0.00     0.121 A 
HETATM   24  C23 UNL     1      29.490   7.080  48.615  1.00  0.00     0.077 A 
HETATM   25  N3  UNL     1      30.075   8.399  48.295  1.00  0.00    -0.305 N 
HETATM   26  C20 UNL     1      31.381   8.341  47.758  1.00  0.00     0.100 C 
HETATM   27  C21 UNL     1      32.307   8.029  48.946  1.00  0.00     0.088 C 
HETATM   28  S1  UNL     1      32.026   6.223  49.178  1.00  0.00    -0.166 SA
HETATM   29  C22 UNL     1      30.387   5.959  48.388  1.00  0.00     0.094 C 
ENDBRANCH  10  20
ENDBRANCH   4   5
TORSDOF 4
ENDMDL
MODEL 4
REMARK VINA RESULT:      -8.1      4.305      7.846
REMARK  4 active torsions:
REMARK  status: ('A' for Active; 'I' for Inactive)
REMARK    1  A    between atoms: C3_4  and  C4_5 
REMARK    2  A    between atoms: C6_7  and  N2_8 
REMARK    3  A    between atoms: N2_8  and  C7_9 
REMARK    4  A    between atoms: C15_18  and  C16_19 
ROOT
HETATM    1  N1  UNL     1      21.542   6.084  51.198  1.00  0.00    -0.192 NA
HETATM    2  C1  UNL     1      22.675   5.857  51.211  1.00  0.00     0.087 C 
HETATM    3  C2  UNL     1      24.074   5.553  51.217  1.00  0.00     0.090 C 
HETATM    4  C3  UNL     1      24.656   4.427  50.846  1.00  0.00    -0.007 C 
ENDROOT
BRANCH   4   5
HETATM    5  C4  UNL     1      24.449   3.055  50.315  1.00  0.00     0.044 A 
HETATM    6  C5  UNL     1      23.862   3.130  48.959  1.00  0.00     0.070 A 
HETATM    7  C6  UNL     1      22.623   2.353  48.772  1.00  0.00     0.010 A 
HETATM    8  C13 UNL     1      21.921   1.578  49.583  1.00  0.00     0.025 A 
HETATM    9  C14 UNL     1      22.529   1.500  50.933  1.00  0.00     0.006 A 
HETATM   10  C15 UNL     1      23.662   2.180  51.209  1.00  0.00    -0.062 A 
BRANCH   7  11
HETATM   11  N2  UNL     1      22.201   2.564  47.405  1.00  0.00    -0.360 N 
HETATM   12  H6  UNL     1      22.164   1.879  46.619  1.00  0.00     0.166 HD
BRANCH  11  13
HETATM   13  C7  UNL     1      21.714   3.713  46.687  1.00  0.00     0.033 A 
HETATM   14  C8  UNL     1      21.914   3.982  45.353  1.00  0.00     0.029 A 
HETATM   15  C9  UNL     1      21.390   5.125  44.789  1.00  0.00     0.004 A 
HETATM   16  C10 UNL     1      20.665   5.982  45.591  1.00  0.00     0.019 A 
HETATM   17  C11 UNL     1      20.434   5.768  46.920  1.00  0.00     0.013 A 
HETATM   18 BR1  UNL     1      19.423   6.999  47.965  1.00  0.00    -0.051 Br
HETATM   19  C12 UNL     1      20.978   4.600  47.465  1.00  0.00     0.048 A 
ENDBRANCH  11  13
ENDBRANCH   7  11
BRANCH  10  20
HETATM   20  C16 UNL     1      23.880   1.794  52.679  1.00  0.00     0.063 A 
HETATM   21  C17 UNL     1      23.978   0.804  53.135  1.00  0.00     0.023 A 
HETATM   22  C18 UNL     1      24.053   0.219  53.398  1.00  0.00    -0.066 A 
HETATM   23  C19 UNL     1      24.214  -0.805  53.849  1.00  0.00     0.121 A 
HETATM   24  C23 UNL     1      25.604   1.101  52.474  1.00  0.00     0.077 A 
HETATM   25  N3  UNL     1      25.746  -0.269  53.009  1.00  0.00    -0.305 N 
HETATM   26  C20 UNL     1      26.526  -0.355  54.185  1.00  0.00     0.100 C 
HETATM   27  C21 UNL     1      27.987  -0.199  53.730  1.00  0.00     0.088 C 
HETATM   28  S1  UNL     1      28.103   1.620  53.458  1.00  0.00    -0.166 SA
HETATM   29  C22 UNL     1      26.349   2.110  53.210  1.00  0.00     0.094 C 
ENDBRANCH  10  20
ENDBRANCH   4   5
TORSDOF 4
ENDMDL
MODEL 5
REMARK VINA RESULT:      -8.1      2.135      3.987
REMARK  4 active torsions:
REMARK  status: ('A' for Active; 'I' for Inactive)
REMARK    1  A    between atoms: C3_4  and  C4_5 
REMARK    2  A    between atoms: C6_7  and  N2_8 
REMARK    3  A    between atoms: N2_8  and  C7_9 
REMARK    4  A    between atoms: C15_18  and  C16_19 
ROOT
HETATM    1  N1  UNL     1      21.561  -1.360  54.958  1.00  0.00    -0.192 NA
HETATM    2  C1  UNL     1      20.951  -0.784  54.163  1.00  0.00     0.087 C 
HETATM    3  C2  UNL     1      20.215  -0.062  53.169  1.00  0.00     0.090 C 
HETATM    4  C3  UNL     1      20.692   0.772  52.263  1.00  0.00    -0.007 C 
ENDROOT
BRANCH   4   5
HETATM    5  C4  UNL     1      21.909   1.421  51.709  1.00  0.00     0.044 A 
HETATM    6  C5  UNL     1      23.113   0.704  52.184  1.00  0.00     0.070 A 
HETATM    7  C6  UNL     1      24.127   1.552  52.838  1.00  0.00     0.010 A 
HETATM    8  C13 UNL     1      24.185   2.850  53.082  1.00  0.00     0.025 A 
HETATM    9  C14 UNL     1      22.979   3.559  52.588  1.00  0.00     0.006 A 
HETATM   10  C15 UNL     1      21.989   2.871  51.979  1.00  0.00    -0.062 A 
BRANCH   7  11
HETATM   11  N2  UNL     1      25.206   0.677  53.240  1.00  0.00    -0.360 N 
HETATM   12  H6  UNL     1      25.165  -0.332  53.503  1.00  0.00     0.166 HD
BRANCH  11  13
HETATM   13  C7  UNL     1      26.622   0.867  53.410  1.00  0.00     0.033 A 
HETATM   14  C8  UNL     1      27.263   2.069  53.603  1.00  0.00     0.029 A 
HETATM   15  C9  UNL     1      28.632   2.110  53.752  1.00  0.00     0.004 A 
HETATM   16  C10 UNL     1      29.335   0.924  53.703  1.00  0.00     0.019 A 
HETATM   17  C11 UNL     1      28.754  -0.298  53.515  1.00  0.00     0.013 A 
HETATM   18 BR1  UNL     1      29.792  -1.894  53.458  1.00  0.00    -0.051 Br
HETATM   19  C12 UNL     1      27.364  -0.309  53.366  1.00  0.00     0.048 A 
ENDBRANCH  11  13
ENDBRANCH   7  11
BRANCH  10  20
HETATM   20  C16 UNL     1      21.000   4.004  51.667  1.00  0.00     0.063 A 
HETATM   21  C17 UNL     1      21.166   4.954  51.150  1.00  0.00     0.023 A 
HETATM   22  C18 UNL     1      21.263   5.506  50.830  1.00  0.00    -0.066 A 
HETATM   23  C19 UNL     1      21.432   6.456  50.241  1.00  0.00     0.121 A 
HETATM   24  C23 UNL     1      21.001   3.794  49.810  1.00  0.00     0.077 A 
HETATM   25  N3  UNL     1      21.302   5.046  49.085  1.00  0.00    -0.305 N 
HETATM   26  C20 UNL     1      20.198   5.599  48.396  1.00  0.00     0.100 C 
HETATM   27  C21 UNL     1      20.003   4.722  47.148  1.00  0.00     0.088 C 
HETATM   28  S1  UNL     1      19.169   3.239  47.855  1.00  0.00    -0.166 SA
HETATM   29  C22 UNL     1      19.641   3.313  49.631  1.00  0.00     0.094 C 
ENDBRANCH  10  20
ENDBRANCH   4   5
TORSDOF 4
ENDMDL
MODEL 6
REMARK VINA RESULT:      -8.0      8.873     11.755
REMARK  4 active torsions:
REMARK  status: ('A' for Active; 'I' for Inactive)
REMARK    1  A    between atoms: C3_4  and  C4_5 
REMARK    2  A    between atoms: C6_7  and  N2_8 
REMARK    3  A    between atoms: N2_8  and  C7_9 
REMARK    4  A    between atoms: C15_18  and  C16_19 
ROOT
HETATM    1  N1  UNL     1      25.478   8.363  46.396  1.00  0.00    -0.192 NA
HETATM    2  C1  UNL     1      26.002   7.735  47.212  1.00  0.00     0.087 C 
HETATM    3  C2  UNL     1      26.675   6.966  48.215  1.00  0.00     0.090 C 
HETATM    4  C3  UNL     1      27.977   6.831  48.388  1.00  0.00    -0.007 C 
ENDROOT
BRANCH   4   5
HETATM    5  C4  UNL     1      29.327   7.208  47.896  1.00  0.00     0.044 A 
HETATM    6  C5  UNL     1      30.165   5.995  47.768  1.00  0.00     0.070 A 
HETATM    7  C6  UNL     1      31.459   6.053  48.473  1.00  0.00     0.010 A 
HETATM    8  C13 UNL     1      32.039   6.992  49.203  1.00  0.00     0.025 A 
HETATM    9  C14 UNL     1      31.195   8.207  49.311  1.00  0.00     0.006 A 
HETATM   10  C15 UNL     1      29.989   8.252  48.705  1.00  0.00    -0.062 A 
BRANCH   7  11
HETATM   11  N2  UNL     1      32.116   4.786  48.244  1.00  0.00    -0.360 N 
HETATM   12  H6  UNL     1      31.959   3.872  48.722  1.00  0.00     0.166 HD
BRANCH  11  13
HETATM   13  C7  UNL     1      33.150   4.359  47.338  1.00  0.00     0.033 A 
HETATM   14  C8  UNL     1      34.282   3.652  47.672  1.00  0.00     0.029 A 
HETATM   15  C9  UNL     1      35.196   3.305  46.702  1.00  0.00     0.004 A 
HETATM   16  C10 UNL     1      34.947   3.681  45.398  1.00  0.00     0.019 A 
HETATM   17  C11 UNL     1      33.842   4.383  45.007  1.00  0.00     0.013 A 
HETATM   18 BR1  UNL     1      33.566   4.868  43.185  1.00  0.00    -0.051 Br
HETATM   19  C12 UNL     1      32.932   4.721  46.013  1.00  0.00     0.048 A 
ENDBRANCH  11  13
ENDBRANCH   7  11
BRANCH  10  20
HETATM   20  C16 UNL     1      29.520   9.660  49.100  1.00  0.00     0.063 A 
HETATM   21  C17 UNL     1      30.070  10.607  49.095  1.00  0.00     0.023 A 
HETATM   22  C18 UNL     1      30.392  11.166  49.075  1.00  0.00    -0.066 A 
HETATM   23  C19 UNL     1      30.950  12.147  49.008  1.00  0.00     0.121 A 
HETATM   24  C23 UNL     1      29.602  10.409  47.389  1.00  0.00     0.077 A 
HETATM   25  N3  UNL     1      30.407  11.648  47.335  1.00  0.00    -0.305 N 
HETATM   26  C20 UNL     1      29.649  12.825  47.135  1.00  0.00     0.100 C 
HETATM   27  C21 UNL     1      29.251  12.816  45.649  1.00  0.00     0.088 C 
HETATM   28  S1  UNL     1      27.870  11.596  45.636  1.00  0.00    -0.166 SA
HETATM   29  C22 UNL     1      28.181  10.609  47.155  1.00  0.00     0.094 C 
ENDBRANCH  10  20
ENDBRANCH   4   5
TORSDOF 4
ENDMDL
MODEL 7
REMARK VINA RESULT:      -8.0      3.378      5.554
REMARK  4 active torsions:
REMARK  status: ('A' for Active; 'I' for Inactive)
REMARK    1  A    between atoms: C3_4  and  C4_5 
REMARK    2  A    between atoms: C6_7  and  N2_8 
REMARK    3  A    between atoms: N2_8  and  C7_9 
REMARK    4  A    between atoms: C15_18  and  C16_19 
ROOT
HETATM    1  N1  UNL     1      23.344   4.826  53.197  1.00  0.00    -0.192 NA
HETATM    2  C1  UNL     1      23.858   3.845  52.870  1.00  0.00     0.087 C 
HETATM    3  C2  UNL     1      24.500   2.638  52.442  1.00  0.00     0.090 C 
HETATM    4  C3  UNL     1      24.984   2.364  51.244  1.00  0.00    -0.007 C 
ENDROOT
BRANCH   4   5
HETATM    5  C4  UNL     1      25.198   2.865  49.862  1.00  0.00     0.044 A 
HETATM    6  C5  UNL     1      26.180   3.971  49.881  1.00  0.00     0.070 A 
HETATM    7  C6  UNL     1      25.729   5.217  49.233  1.00  0.00     0.010 A 
HETATM    8  C13 UNL     1      24.607   5.550  48.618  1.00  0.00     0.025 A 
HETATM    9  C14 UNL     1      23.637   4.428  48.594  1.00  0.00     0.006 A 
HETATM   10  C15 UNL     1      23.952   3.246  49.164  1.00  0.00    -0.062 A 
BRANCH   7  11
HETATM   11  N2  UNL     1      26.808   6.170  49.367  1.00  0.00    -0.360 N 
HETATM   12  H6  UNL     1      27.080   6.737  50.200  1.00  0.00     0.166 HD
BRANCH  11  13
HETATM   13  C7  UNL     1      27.824   6.646  48.465  1.00  0.00     0.033 A 
HETATM   14  C8  UNL     1      27.749   7.771  47.677  1.00  0.00     0.029 A 
HETATM   15  C9  UNL     1      28.799   8.114  46.854  1.00  0.00     0.004 A 
HETATM   16  C10 UNL     1      29.918   7.306  46.843  1.00  0.00     0.019 A 
HETATM   17  C11 UNL     1      30.049   6.178  47.602  1.00  0.00     0.013 A 
HETATM   18 BR1  UNL     1      31.626   5.111  47.532  1.00  0.00    -0.051 Br
HETATM   19  C12 UNL     1      28.967   5.855  48.428  1.00  0.00     0.048 A 
ENDBRANCH  11  13
ENDBRANCH   7  11
BRANCH  10  20
HETATM   20  C16 UNL     1      22.672   2.442  48.890  1.00  0.00     0.063 A 
HETATM   21  C17 UNL     1      22.170   1.694  49.512  1.00  0.00     0.023 A 
HETATM   22  C18 UNL     1      21.867   1.266  49.888  1.00  0.00    -0.066 A 
HETATM   23  C19 UNL     1      21.323   0.541  50.564  1.00  0.00     0.121 A 
HETATM   24  C23 UNL     1      21.624   3.233  50.220  1.00  0.00     0.077 A 
HETATM   25  N3  UNL     1      20.996   2.250  51.126  1.00  0.00    -0.305 N 
HETATM   26  C20 UNL     1      19.596   2.126  50.969  1.00  0.00     0.100 C 
HETATM   27  C21 UNL     1      18.990   3.377  51.630  1.00  0.00     0.088 C 
HETATM   28  S1  UNL     1      19.296   4.665  50.349  1.00  0.00    -0.166 SA
HETATM   29  C22 UNL     1      20.684   3.954  49.376  1.00  0.00     0.094 C 
ENDBRANCH  10  20
ENDBRANCH   4   5
TORSDOF 4
ENDMDL
MODEL 8
REMARK VINA RESULT:      -7.7      2.204      3.015
REMARK  4 active torsions:
REMARK  status: ('A' for Active; 'I' for Inactive)
REMARK    1  A    between atoms: C3_4  and  C4_5 
REMARK    2  A    between atoms: C6_7  and  N2_8 
REMARK    3  A    between atoms: N2_8  and  C7_9 
REMARK    4  A    between atoms: C15_18  and  C16_19 
ROOT
HETATM    1  N1  UNL     1      19.118   3.988  47.622  1.00  0.00    -0.192 NA
HETATM    2  C1  UNL     1      19.836   3.117  47.870  1.00  0.00     0.087 C 
HETATM    3  C2  UNL     1      20.718   2.039  48.201  1.00  0.00     0.090 C 
HETATM    4  C3  UNL     1      20.988   1.559  49.402  1.00  0.00    -0.007 C 
ENDROOT
BRANCH   4   5
HETATM    5  C4  UNL     1      20.719   1.672  50.859  1.00  0.00     0.044 A 
HETATM    6  C5  UNL     1      21.990   1.906  51.581  1.00  0.00     0.070 A 
HETATM    7  C6  UNL     1      22.265   0.963  52.681  1.00  0.00     0.010 A 
HETATM    8  C13 UNL     1      21.589  -0.063  53.170  1.00  0.00     0.025 A 
HETATM    9  C14 UNL     1      20.312  -0.277  52.447  1.00  0.00     0.006 A 
HETATM   10  C15 UNL     1      19.969   0.529  51.420  1.00  0.00    -0.062 A 
BRANCH   7  11
HETATM   11  N2  UNL     1      23.541   1.342  53.245  1.00  0.00    -0.360 N 
HETATM   12  H6  UNL     1      23.786   2.197  53.791  1.00  0.00     0.166 HD
BRANCH  11  13
HETATM   13  C7  UNL     1      24.840   0.722  53.257  1.00  0.00     0.033 A 
HETATM   14  C8  UNL     1      25.099  -0.624  53.142  1.00  0.00     0.029 A 
HETATM   15  C9  UNL     1      26.397  -1.087  53.169  1.00  0.00     0.004 A 
HETATM   16  C10 UNL     1      27.419  -0.171  53.314  1.00  0.00     0.019 A 
HETATM   17  C11 UNL     1      27.223   1.176  53.433  1.00  0.00     0.013 A 
HETATM   18 BR1  UNL     1      28.686   2.380  53.631  1.00  0.00    -0.051 Br
HETATM   19  C12 UNL     1      25.896   1.616  53.402  1.00  0.00     0.048 A 
ENDBRANCH  11  13
ENDBRANCH   7  11
BRANCH  10  20
HETATM   20  C16 UNL     1      18.617  -0.077  51.014  1.00  0.00     0.063 A 
HETATM   21  C17 UNL     1      17.728  -0.270  51.622  1.00  0.00     0.023 A 
HETATM   22  C18 UNL     1      17.199  -0.367  51.979  1.00  0.00    -0.066 A 
HETATM   23  C19 UNL     1      16.266  -0.505  52.602  1.00  0.00     0.121 A 
HETATM   24  C23 UNL     1      17.597   1.469  51.265  1.00  0.00     0.077 A 
HETATM   25  N3  UNL     1      16.431   1.258  52.148  1.00  0.00    -0.305 N 
HETATM   26  C20 UNL     1      15.184   1.294  51.482  1.00  0.00     0.100 C 
HETATM   27  C21 UNL     1      14.909   2.779  51.191  1.00  0.00     0.088 C 
HETATM   28  S1  UNL     1      16.002   3.086  49.740  1.00  0.00    -0.166 SA
HETATM   29  C22 UNL     1      17.254   1.747  49.879  1.00  0.00     0.094 C 
ENDBRANCH  10  20
ENDBRANCH   4   5
TORSDOF 4
ENDMDL
MODEL 9
REMARK VINA RESULT:      -7.6      3.551      6.088
REMARK  4 active torsions:
REMARK  status: ('A' for Active; 'I' for Inactive)
REMARK    1  A    between atoms: C3_4  and  C4_5 
REMARK    2  A    between atoms: C6_7  and  N2_8 
REMARK    3  A    between atoms: N2_8  and  C7_9 
REMARK    4  A    between atoms: C15_18  and  C16_19 
ROOT
HETATM    1  N1  UNL     1      24.625  -0.542  53.152  1.00  0.00    -0.192 NA
HETATM    2  C1  UNL     1      24.344   0.578  53.112  1.00  0.00     0.087 C 
HETATM    3  C2  UNL     1      24.003   1.967  53.040  1.00  0.00     0.090 C 
HETATM    4  C3  UNL     1      24.206   2.795  52.030  1.00  0.00    -0.007 C 
ENDROOT
BRANCH   4   5
HETATM    5  C4  UNL     1      24.745   2.944  50.654  1.00  0.00     0.044 A 
HETATM    6  C5  UNL     1      25.735   4.044  50.626  1.00  0.00     0.070 A 
HETATM    7  C6  UNL     1      25.486   5.082  49.608  1.00  0.00     0.010 A 
HETATM    8  C13 UNL     1      24.545   5.226  48.690  1.00  0.00     0.025 A 
HETATM    9  C14 UNL     1      23.568   4.111  48.720  1.00  0.00     0.006 A 
HETATM   10  C15 UNL     1      23.705   3.113  49.619  1.00  0.00    -0.062 A 
BRANCH   7  11
HETATM   11  N2  UNL     1      26.539   6.063  49.747  1.00  0.00    -0.360 N 
HETATM   12  H6  UNL     1      27.394   6.024  50.344  1.00  0.00     0.166 HD
BRANCH  11  13
HETATM   13  C7  UNL     1      26.771   7.354  49.156  1.00  0.00     0.033 A 
HETATM   14  C8  UNL     1      26.458   8.572  49.714  1.00  0.00     0.029 A 
HETATM   15  C9  UNL     1      26.735   9.739  49.036  1.00  0.00     0.004 A 
HETATM   16  C10 UNL     1      27.330   9.653  47.794  1.00  0.00     0.019 A 
HETATM   17  C11 UNL     1      27.664   8.474  47.190  1.00  0.00     0.013 A 
HETATM   18 BR1  UNL     1      28.484   8.435  45.471  1.00  0.00    -0.051 Br
HETATM   19  C12 UNL     1      27.370   7.306  47.901  1.00  0.00     0.048 A 
ENDBRANCH  11  13
ENDBRANCH   7  11
BRANCH  10  20
HETATM   20  C16 UNL     1      22.494   2.237  49.265  1.00  0.00     0.063 A 
HETATM   21  C17 UNL     1      21.982   1.477  49.863  1.00  0.00     0.023 A 
HETATM   22  C18 UNL     1      21.672   1.041  50.224  1.00  0.00    -0.066 A 
HETATM   23  C19 UNL     1      21.115   0.302  50.873  1.00  0.00     0.121 A 
HETATM   24  C23 UNL     1      21.304   2.998  50.488  1.00  0.00     0.077 A 
HETATM   25  N3  UNL     1      20.656   2.001  51.366  1.00  0.00    -0.305 N 
HETATM   26  C20 UNL     1      19.281   1.801  51.102  1.00  0.00     0.100 C 
HETATM   27  C21 UNL     1      18.562   3.030  51.683  1.00  0.00     0.088 C 
HETATM   28  S1  UNL     1      18.902   4.307  50.399  1.00  0.00    -0.166 SA
HETATM   29  C22 UNL     1      20.398   3.651  49.556  1.00  0.00     0.094 C 
ENDBRANCH  10  20
ENDBRANCH   4   5
TORSDOF 4
ENDMDL
