MODEL 1
REMARK VINA RESULT:      -8.3      0.000      0.000
REMARK  5 active torsions:
REMARK  status: ('A' for Active; 'I' for Inactive)
REMARK    1  A    between atoms: C3_3  and  C4_4 
REMARK    2  A    between atoms: C5_6  and  C6_7 
REMARK    3  A    between atoms: C6_7  and  N1_8 
REMARK    4  A    between atoms: N1_8  and  C7_9 
REMARK    5  A    between atoms: C12_17  and  O2_18 
ROOT
HETATM    1  C7  UNL     1      26.743   0.725  52.583  1.00  0.00     0.139 A 
HETATM    2  N2  UNL     1      27.880   0.650  53.276  1.00  0.00    -0.224 NA
HETATM    3  C8  UNL     1      27.979   0.097  54.481  1.00  0.00     0.238 A 
HETATM    4  N3  UNL     1      26.888  -0.443  55.104  1.00  0.00    -0.217 NA
HETATM    5  C9  UNL     1      25.688  -0.409  54.469  1.00  0.00     0.185 A 
HETATM    6  O1  UNL     1      24.655  -0.931  55.081  1.00  0.00    -0.290 OA
HETATM    7  C10 UNL     1      23.449  -0.966  54.590  1.00  0.00     0.091 A 
HETATM    8  C11 UNL     1      22.227  -1.438  55.013  1.00  0.00     0.075 A 
HETATM    9  C12 UNL     1      21.332  -1.152  53.998  1.00  0.00     0.071 A 
HETATM   10  C14 UNL     1      21.974  -0.510  52.951  1.00  0.00     0.051 A 
HETATM   11  C15 UNL     1      23.323  -0.361  53.262  1.00  0.00     0.002 A 
HETATM   12  C16 UNL     1      24.425   0.190  52.619  1.00  0.00     0.034 A 
HETATM   13  C17 UNL     1      25.649   0.179  53.215  1.00  0.00     0.064 A 
ENDROOT
BRANCH   1  14
HETATM   14  N1  UNL     1      26.659   1.327  51.280  1.00  0.00    -0.370 N 
HETATM   15  H9  UNL     1      26.529   0.843  50.385  1.00  0.00     0.161 HD
BRANCH  14  16
HETATM   16  C6  UNL     1      26.778   2.784  51.262  1.00  0.00     0.150 C 
BRANCH  16  17
HETATM   17  C5  UNL     1      25.552   3.385  50.722  1.00  0.00     0.011 C 
HETATM   18  C4  UNL     1      25.543   4.153  49.646  1.00  0.00     0.008 C 
HETATM   19 BR1  UNL     1      24.029   4.976  48.877  1.00  0.00    -0.051 Br
BRANCH  18  20
HETATM   20  C3  UNL     1      26.953   4.236  49.174  1.00  0.00     0.014 C 
HETATM   21  C2  UNL     1      27.178   5.482  48.683  1.00  0.00    -0.030 C 
HETATM   22  C1  UNL     1      28.115   6.480  48.048  1.00  0.00     0.036 C 
ENDBRANCH  18  20
ENDBRANCH  16  17
ENDBRANCH  14  16
ENDBRANCH   1  14
BRANCH   9  23
HETATM   23  O2  UNL     1      19.967  -1.471  54.034  1.00  0.00    -0.356 OA
HETATM   24  C13 UNL     1      19.113  -0.756  53.185  1.00  0.00     0.210 C 
ENDBRANCH   9  23
TORSDOF 5
ENDMDL
MODEL 2
REMARK VINA RESULT:      -8.1      1.467      2.545
REMARK  5 active torsions:
REMARK  status: ('A' for Active; 'I' for Inactive)
REMARK    1  A    between atoms: C3_3  and  C4_4 
REMARK    2  A    between atoms: C5_6  and  C6_7 
REMARK    3  A    between atoms: C6_7  and  N1_8 
REMARK    4  A    between atoms: N1_8  and  C7_9 
REMARK    5  A    between atoms: C12_17  and  O2_18 
ROOT
HETATM    1  C7  UNL     1      27.155   1.055  52.546  1.00  0.00     0.139 A 
HETATM    2  N2  UNL     1      28.355   1.131  53.119  1.00  0.00    -0.224 NA
HETATM    3  C8  UNL     1      28.637   0.632  54.319  1.00  0.00     0.238 A 
HETATM    4  N3  UNL     1      27.683  -0.006  55.063  1.00  0.00    -0.217 NA
HETATM    5  C9  UNL     1      26.430  -0.128  54.554  1.00  0.00     0.185 A 
HETATM    6  O1  UNL     1      25.530  -0.741  55.280  1.00  0.00    -0.290 OA
HETATM    7  C10 UNL     1      24.293  -0.927  54.917  1.00  0.00     0.091 A 
HETATM    8  C11 UNL     1      23.181  -1.518  55.473  1.00  0.00     0.075 A 
HETATM    9  C12 UNL     1      22.163  -1.368  54.549  1.00  0.00     0.071 A 
HETATM   10  C14 UNL     1      22.619  -0.693  53.428  1.00  0.00     0.051 A 
HETATM   11  C15 UNL     1      23.967  -0.384  53.596  1.00  0.00     0.002 A 
HETATM   12  C16 UNL     1      24.928   0.266  52.831  1.00  0.00     0.034 A 
HETATM   13  C17 UNL     1      26.198   0.411  53.298  1.00  0.00     0.064 A 
ENDROOT
BRANCH   1  14
HETATM   14  N1  UNL     1      26.873   1.601  51.246  1.00  0.00    -0.370 N 
HETATM   15  H9  UNL     1      27.001   1.136  50.341  1.00  0.00     0.161 HD
BRANCH  14  16
HETATM   16  C6  UNL     1      26.350   2.966  51.247  1.00  0.00     0.150 C 
BRANCH  16  17
HETATM   17  C5  UNL     1      25.555   3.205  50.036  1.00  0.00     0.011 C 
HETATM   18  C4  UNL     1      24.250   3.418  50.064  1.00  0.00     0.008 C 
HETATM   19 BR1  UNL     1      23.140   3.728  48.571  1.00  0.00    -0.051 Br
BRANCH  18  20
HETATM   20  C3  UNL     1      23.843   3.361  51.495  1.00  0.00     0.014 C 
HETATM   21  C2  UNL     1      22.554   2.941  51.568  1.00  0.00    -0.030 C 
HETATM   22  C1  UNL     1      21.345   2.591  52.401  1.00  0.00     0.036 C 
ENDBRANCH  18  20
ENDBRANCH  16  17
ENDBRANCH  14  16
ENDBRANCH   1  14
BRANCH   9  23
HETATM   23  O2  UNL     1      20.854  -1.836  54.732  1.00  0.00    -0.356 OA
HETATM   24  C13 UNL     1      19.857  -1.317  53.896  1.00  0.00     0.210 C 
ENDBRANCH   9  23
TORSDOF 5
ENDMDL
MODEL 3
REMARK VINA RESULT:      -7.9      3.312      5.222
REMARK  5 active torsions:
REMARK  status: ('A' for Active; 'I' for Inactive)
REMARK    1  A    between atoms: C3_3  and  C4_4 
REMARK    2  A    between atoms: C5_6  and  C6_7 
REMARK    3  A    between atoms: C6_7  and  N1_8 
REMARK    4  A    between atoms: N1_8  and  C7_9 
REMARK    5  A    between atoms: C12_17  and  O2_18 
ROOT
HETATM    1  C7  UNL     1      22.445   4.266  52.256  1.00  0.00     0.139 A 
HETATM    2  N2  UNL     1      21.181   4.135  51.853  1.00  0.00    -0.224 NA
HETATM    3  C8  UNL     1      20.548   2.970  51.761  1.00  0.00     0.238 A 
HETATM    4  N3  UNL     1      21.173   1.797  52.082  1.00  0.00    -0.217 NA
HETATM    5  C9  UNL     1      22.464   1.837  52.502  1.00  0.00     0.185 A 
HETATM    6  O1  UNL     1      23.046   0.705  52.804  1.00  0.00    -0.290 OA
HETATM    7  C10 UNL     1      24.277   0.597  53.218  1.00  0.00     0.091 A 
HETATM    8  C11 UNL     1      25.104  -0.439  53.589  1.00  0.00     0.075 A 
HETATM    9  C12 UNL     1      26.315   0.138  53.928  1.00  0.00     0.071 A 
HETATM   10  C14 UNL     1      26.257   1.514  53.773  1.00  0.00     0.051 A 
HETATM   11  C15 UNL     1      24.988   1.872  53.326  1.00  0.00     0.002 A 
HETATM   12  C16 UNL     1      24.362   3.071  53.003  1.00  0.00     0.034 A 
HETATM   13  C17 UNL     1      23.069   3.082  52.579  1.00  0.00     0.064 A 
ENDROOT
BRANCH   1  14
HETATM   14  N1  UNL     1      23.110   5.537  52.350  1.00  0.00    -0.370 N 
HETATM   15  H9  UNL     1      23.348   6.046  53.208  1.00  0.00     0.161 HD
BRANCH  14  16
HETATM   16  C6  UNL     1      23.470   6.142  51.070  1.00  0.00     0.150 C 
BRANCH  16  17
HETATM   17  C5  UNL     1      24.844   5.775  50.705  1.00  0.00     0.011 C 
HETATM   18  C4  UNL     1      25.137   5.083  49.616  1.00  0.00     0.008 C 
HETATM   19 BR1  UNL     1      26.861   4.556  49.061  1.00  0.00    -0.051 Br
BRANCH  18  20
HETATM   20  C3  UNL     1      23.844   4.809  48.929  1.00  0.00     0.014 C 
HETATM   21  C2  UNL     1      23.607   3.472  48.960  1.00  0.00    -0.030 C 
HETATM   22  C1  UNL     1      22.724   2.300  48.608  1.00  0.00     0.036 C 
ENDBRANCH  18  20
ENDBRANCH  16  17
ENDBRANCH  14  16
ENDBRANCH   1  14
BRANCH   9  23
HETATM   23  O2  UNL     1      27.438  -0.579  54.364  1.00  0.00    -0.356 OA
HETATM   24  C13 UNL     1      28.533   0.156  54.835  1.00  0.00     0.210 C 
ENDBRANCH   9  23
TORSDOF 5
ENDMDL
MODEL 4
REMARK VINA RESULT:      -7.7      3.782      7.010
REMARK  5 active torsions:
REMARK  status: ('A' for Active; 'I' for Inactive)
REMARK    1  A    between atoms: C3_3  and  C4_4 
REMARK    2  A    between atoms: C5_6  and  C6_7 
REMARK    3  A    between atoms: C6_7  and  N1_8 
REMARK    4  A    between atoms: N1_8  and  C7_9 
REMARK    5  A    between atoms: C12_17  and  O2_18 
ROOT
HETATM    1  C7  UNL     1      22.887   2.236  50.792  1.00  0.00     0.139 A 
HETATM    2  N2  UNL     1      22.766   3.390  50.135  1.00  0.00    -0.224 NA
HETATM    3  C8  UNL     1      23.756   4.263  49.979  1.00  0.00     0.238 A 
HETATM    4  N3  UNL     1      24.998   4.025  50.499  1.00  0.00    -0.217 NA
HETATM    5  C9  UNL     1      25.211   2.872  51.184  1.00  0.00     0.185 A 
HETATM    6  O1  UNL     1      26.406   2.662  51.675  1.00  0.00    -0.290 OA
HETATM    7  C10 UNL     1      26.748   1.603  52.352  1.00  0.00     0.091 A 
HETATM    8  C11 UNL     1      27.898   1.152  52.961  1.00  0.00     0.075 A 
HETATM    9  C12 UNL     1      27.582  -0.073  53.520  1.00  0.00     0.071 A 
HETATM   10  C14 UNL     1      26.256  -0.392  53.272  1.00  0.00     0.051 A 
HETATM   11  C15 UNL     1      25.668   0.631  52.533  1.00  0.00     0.002 A 
HETATM   12  C16 UNL     1      24.402   0.861  52.008  1.00  0.00     0.034 A 
HETATM   13  C17 UNL     1      24.140   2.002  51.313  1.00  0.00     0.064 A 
ENDROOT
BRANCH   1  14
HETATM   14  N1  UNL     1      21.803   1.306  50.948  1.00  0.00    -0.370 N 
HETATM   15  H9  UNL     1      21.632   0.459  50.395  1.00  0.00     0.161 HD
BRANCH  14  16
HETATM   16  C6  UNL     1      20.858   1.630  52.015  1.00  0.00     0.150 C 
BRANCH  16  17
HETATM   17  C5  UNL     1      19.828   0.589  52.113  1.00  0.00     0.011 C 
HETATM   18  C4  UNL     1      19.667  -0.162  53.190  1.00  0.00     0.008 C 
HETATM   19 BR1  UNL     1      18.383  -1.526  53.416  1.00  0.00    -0.051 Br
BRANCH  18  20
HETATM   20  C3  UNL     1      20.694   0.282  54.173  1.00  0.00     0.014 C 
HETATM   21  C2  UNL     1      21.528  -0.756  54.436  1.00  0.00    -0.030 C 
HETATM   22  C1  UNL     1      22.723  -1.310  55.173  1.00  0.00     0.036 C 
ENDBRANCH  18  20
ENDBRANCH  16  17
ENDBRANCH  14  16
ENDBRANCH   1  14
BRANCH   9  23
HETATM   23  O2  UNL     1      28.484  -0.871  54.237  1.00  0.00    -0.356 OA
HETATM   24  C13 UNL     1      29.794  -0.965  53.750  1.00  0.00     0.210 C 
ENDBRANCH   9  23
TORSDOF 5
ENDMDL
MODEL 5
REMARK VINA RESULT:      -7.7      3.598      5.324
REMARK  5 active torsions:
REMARK  status: ('A' for Active; 'I' for Inactive)
REMARK    1  A    between atoms: C3_3  and  C4_4 
REMARK    2  A    between atoms: C5_6  and  C6_7 
REMARK    3  A    between atoms: C6_7  and  N1_8 
REMARK    4  A    between atoms: N1_8  and  C7_9 
REMARK    5  A    between atoms: C12_17  and  O2_18 
ROOT
HETATM    1  C7  UNL     1      25.007   4.128  50.463  1.00  0.00     0.139 A 
HETATM    2  N2  UNL     1      23.739   4.297  50.090  1.00  0.00    -0.224 NA
HETATM    3  C8  UNL     1      22.779   3.400  50.293  1.00  0.00     0.238 A 
HETATM    4  N3  UNL     1      23.042   2.211  50.916  1.00  0.00    -0.217 NA
HETATM    5  C9  UNL     1      24.310   1.955  51.330  1.00  0.00     0.185 A 
HETATM    6  O1  UNL     1      24.543   0.812  51.923  1.00  0.00    -0.290 OA
HETATM    7  C10 UNL     1      25.708   0.437  52.369  1.00  0.00     0.091 A 
HETATM    8  C11 UNL     1      26.207  -0.675  53.007  1.00  0.00     0.075 A 
HETATM    9  C12 UNL     1      27.556  -0.434  53.202  1.00  0.00     0.071 A 
HETATM   10  C14 UNL     1      27.905   0.808  52.696  1.00  0.00     0.051 A 
HETATM   11  C15 UNL     1      26.776   1.415  52.152  1.00  0.00     0.002 A 
HETATM   12  C16 UNL     1      26.521   2.628  51.521  1.00  0.00     0.034 A 
HETATM   13  C17 UNL     1      25.266   2.929  51.090  1.00  0.00     0.064 A 
ENDROOT
BRANCH   1  14
HETATM   14  N1  UNL     1      26.028   5.113  50.233  1.00  0.00    -0.370 N 
HETATM   15  H9  UNL     1      26.530   5.658  50.943  1.00  0.00     0.161 HD
BRANCH  14  16
HETATM   16  C6  UNL     1      26.365   5.340  48.829  1.00  0.00     0.150 C 
BRANCH  16  17
HETATM   17  C5  UNL     1      27.772   5.000  48.585  1.00  0.00     0.011 C 
HETATM   18  C4  UNL     1      28.680   5.902  48.250  1.00  0.00     0.008 C 
HETATM   19 BR1  UNL     1      30.506   5.572  47.909  1.00  0.00    -0.051 Br
BRANCH  18  20
HETATM   20  C3  UNL     1      27.974   7.213  48.197  1.00  0.00     0.014 C 
HETATM   21  C2  UNL     1      28.789   8.170  48.711  1.00  0.00    -0.030 C 
HETATM   22  C1  UNL     1      29.028   9.614  49.077  1.00  0.00     0.036 C 
ENDBRANCH  18  20
ENDBRANCH  16  17
ENDBRANCH  14  16
ENDBRANCH   1  14
BRANCH   9  23
HETATM   23  O2  UNL     1      28.436  -1.329  53.825  1.00  0.00    -0.356 OA
HETATM   24  C13 UNL     1      29.807  -1.046  53.751  1.00  0.00     0.210 C 
ENDBRANCH   9  23
TORSDOF 5
ENDMDL
MODEL 6
REMARK VINA RESULT:      -7.5      3.290      6.238
REMARK  5 active torsions:
REMARK  status: ('A' for Active; 'I' for Inactive)
REMARK    1  A    between atoms: C3_3  and  C4_4 
REMARK    2  A    between atoms: C5_6  and  C6_7 
REMARK    3  A    between atoms: C6_7  and  N1_8 
REMARK    4  A    between atoms: N1_8  and  C7_9 
REMARK    5  A    between atoms: C12_17  and  O2_18 
ROOT
HETATM    1  C7  UNL     1      24.467   0.218  53.150  1.00  0.00     0.139 A 
HETATM    2  N2  UNL     1      25.264  -0.760  53.579  1.00  0.00    -0.224 NA
HETATM    3  C8  UNL     1      26.534  -0.898  53.212  1.00  0.00     0.238 A 
HETATM    4  N3  UNL     1      27.119  -0.018  52.344  1.00  0.00    -0.217 NA
HETATM    5  C9  UNL     1      26.378   1.011  51.856  1.00  0.00     0.185 A 
HETATM    6  O1  UNL     1      26.955   1.843  51.026  1.00  0.00    -0.290 OA
HETATM    7  C10 UNL     1      26.365   2.869  50.484  1.00  0.00     0.091 A 
HETATM    8  C11 UNL     1      26.730   3.866  49.607  1.00  0.00     0.075 A 
HETATM    9  C12 UNL     1      25.608   4.656  49.434  1.00  0.00     0.071 A 
HETATM   10  C14 UNL     1      24.551   4.169  50.186  1.00  0.00     0.051 A 
HETATM   11  C15 UNL     1      24.964   3.035  50.878  1.00  0.00     0.002 A 
HETATM   12  C16 UNL     1      24.359   2.147  51.761  1.00  0.00     0.034 A 
HETATM   13  C17 UNL     1      25.061   1.101  52.277  1.00  0.00     0.064 A 
ENDROOT
BRANCH   1  14
HETATM   14  N1  UNL     1      23.095   0.348  53.561  1.00  0.00    -0.370 N 
HETATM   15  H9  UNL     1      22.732   0.935  54.320  1.00  0.00     0.161 HD
BRANCH  14  16
HETATM   16  C6  UNL     1      22.142  -0.456  52.799  1.00  0.00     0.150 C 
BRANCH  16  17
HETATM   17  C5  UNL     1      20.869   0.263  52.662  1.00  0.00     0.011 C 
HETATM   18  C4  UNL     1      20.404   0.683  51.497  1.00  0.00     0.008 C 
HETATM   19 BR1  UNL     1      18.790   1.617  51.213  1.00  0.00    -0.051 Br
BRANCH  18  20
HETATM   20  C3  UNL     1      21.404   0.274  50.471  1.00  0.00     0.014 C 
HETATM   21  C2  UNL     1      21.496   1.255  49.536  1.00  0.00    -0.030 C 
HETATM   22  C1  UNL     1      22.109   1.781  48.261  1.00  0.00     0.036 C 
ENDBRANCH  18  20
ENDBRANCH  16  17
ENDBRANCH  14  16
ENDBRANCH   1  14
BRANCH   9  23
HETATM   23  O2  UNL     1      25.559   5.789  48.609  1.00  0.00    -0.356 OA
HETATM   24  C13 UNL     1      26.492   6.806  48.849  1.00  0.00     0.210 C 
ENDBRANCH   9  23
TORSDOF 5
ENDMDL
MODEL 7
REMARK VINA RESULT:      -7.4      2.534      3.597
REMARK  5 active torsions:
REMARK  status: ('A' for Active; 'I' for Inactive)
REMARK    1  A    between atoms: C3_3  and  C4_4 
REMARK    2  A    between atoms: C5_6  and  C6_7 
REMARK    3  A    between atoms: C6_7  and  N1_8 
REMARK    4  A    between atoms: N1_8  and  C7_9 
REMARK    5  A    between atoms: C12_17  and  O2_18 
ROOT
HETATM    1  C7  UNL     1      24.276  -0.194  53.517  1.00  0.00     0.139 A 
HETATM    2  N2  UNL     1      24.867  -0.692  54.603  1.00  0.00    -0.224 NA
HETATM    3  C8  UNL     1      24.218  -1.310  55.585  1.00  0.00     0.238 A 
HETATM    4  N3  UNL     1      22.861  -1.477  55.540  1.00  0.00    -0.217 NA
HETATM    5  C9  UNL     1      22.177  -1.000  54.468  1.00  0.00     0.185 A 
HETATM    6  O1  UNL     1      20.880  -1.169  54.444  1.00  0.00    -0.290 OA
HETATM    7  C10 UNL     1      20.103  -0.762  53.481  1.00  0.00     0.091 A 
HETATM    8  C11 UNL     1      18.752  -0.809  53.219  1.00  0.00     0.075 A 
HETATM    9  C12 UNL     1      18.574  -0.180  52.000  1.00  0.00     0.071 A 
HETATM   10  C14 UNL     1      19.790   0.260  51.499  1.00  0.00     0.051 A 
HETATM   11  C15 UNL     1      20.803  -0.079  52.391  1.00  0.00     0.002 A 
HETATM   12  C16 UNL     1      22.182   0.096  52.425  1.00  0.00     0.034 A 
HETATM   13  C17 UNL     1      22.911  -0.366  53.477  1.00  0.00     0.064 A 
ENDROOT
BRANCH   1  14
HETATM   14  N1  UNL     1      24.999   0.470  52.467  1.00  0.00    -0.370 N 
HETATM   15  H9  UNL     1      25.129   0.140  51.504  1.00  0.00     0.161 HD
BRANCH  14  16
HETATM   16  C6  UNL     1      25.602   1.747  52.842  1.00  0.00     0.150 C 
BRANCH  16  17
HETATM   17  C5  UNL     1      24.555   2.737  53.126  1.00  0.00     0.011 C 
HETATM   18  C4  UNL     1      23.901   3.383  52.175  1.00  0.00     0.008 C 
HETATM   19 BR1  UNL     1      22.549   4.672  52.431  1.00  0.00    -0.051 Br
BRANCH  18  20
HETATM   20  C3  UNL     1      24.446   2.891  50.878  1.00  0.00     0.014 C 
HETATM   21  C2  UNL     1      23.449   2.891  49.956  1.00  0.00    -0.030 C 
HETATM   22  C1  UNL     1      22.981   2.621  48.547  1.00  0.00     0.036 C 
ENDBRANCH  18  20
ENDBRANCH  16  17
ENDBRANCH  14  16
ENDBRANCH   1  14
BRANCH   9  23
HETATM   23  O2  UNL     1      17.333  -0.013  51.370  1.00  0.00    -0.356 OA
HETATM   24  C13 UNL     1      17.150   1.140  50.595  1.00  0.00     0.210 C 
ENDBRANCH   9  23
TORSDOF 5
ENDMDL
MODEL 8
REMARK VINA RESULT:      -7.4      3.197      6.042
REMARK  5 active torsions:
REMARK  status: ('A' for Active; 'I' for Inactive)
REMARK    1  A    between atoms: C3_3  and  C4_4 
REMARK    2  A    between atoms: C5_6  and  C6_7 
REMARK    3  A    between atoms: C6_7  and  N1_8 
REMARK    4  A    between atoms: N1_8  and  C7_9 
REMARK    5  A    between atoms: C12_17  and  O2_18 
ROOT
HETATM    1  C7  UNL     1      22.222  -0.171  54.227  1.00  0.00     0.139 A 
HETATM    2  N2  UNL     1      22.360  -1.096  55.177  1.00  0.00    -0.224 NA
HETATM    3  C8  UNL     1      23.531  -1.585  55.572  1.00  0.00     0.238 A 
HETATM    4  N3  UNL     1      24.702  -1.158  55.011  1.00  0.00    -0.217 NA
HETATM    5  C9  UNL     1      24.654  -0.216  54.033  1.00  0.00     0.185 A 
HETATM    6  O1  UNL     1      25.785   0.180  53.507  1.00  0.00    -0.290 OA
HETATM    7  C10 UNL     1      25.886   1.074  52.565  1.00  0.00     0.091 A 
HETATM    8  C11 UNL     1      26.918   1.649  51.859  1.00  0.00     0.075 A 
HETATM    9  C12 UNL     1      26.333   2.544  50.981  1.00  0.00     0.071 A 
HETATM   10  C14 UNL     1      24.954   2.535  51.127  1.00  0.00     0.051 A 
HETATM   11  C15 UNL     1      24.604   1.623  52.118  1.00  0.00     0.002 A 
HETATM   12  C16 UNL     1      23.407   1.197  52.683  1.00  0.00     0.034 A 
HETATM   13  C17 UNL     1      23.404   0.256  53.666  1.00  0.00     0.064 A 
ENDROOT
BRANCH   1  14
HETATM   14  N1  UNL     1      20.944   0.344  53.817  1.00  0.00    -0.370 N 
HETATM   15  H9  UNL     1      20.501   1.215  54.129  1.00  0.00     0.161 HD
BRANCH  14  16
HETATM   16  C6  UNL     1      20.224  -0.484  52.852  1.00  0.00     0.150 C 
BRANCH  16  17
HETATM   17  C5  UNL     1      19.168   0.301  52.199  1.00  0.00     0.011 C 
HETATM   18  C4  UNL     1      19.296   0.802  50.982  1.00  0.00     0.008 C 
HETATM   19 BR1  UNL     1      18.008   1.826  50.058  1.00  0.00    -0.051 Br
BRANCH  18  20
HETATM   20  C3  UNL     1      20.646   0.400  50.498  1.00  0.00     0.014 C 
HETATM   21  C2  UNL     1      21.001   1.210  49.467  1.00  0.00    -0.030 C 
HETATM   22  C1  UNL     1      22.005   1.610  48.414  1.00  0.00     0.036 C 
ENDBRANCH  18  20
ENDBRANCH  16  17
ENDBRANCH  14  16
ENDBRANCH   1  14
BRANCH   9  23
HETATM   23  O2  UNL     1      27.044   3.341  50.074  1.00  0.00    -0.356 OA
HETATM   24  C13 UNL     1      26.331   4.330  49.383  1.00  0.00     0.210 C 
ENDBRANCH   9  23
TORSDOF 5
ENDMDL
MODEL 9
REMARK VINA RESULT:      -7.4      4.184      7.772
REMARK  5 active torsions:
REMARK  status: ('A' for Active; 'I' for Inactive)
REMARK    1  A    between atoms: C3_3  and  C4_4 
REMARK    2  A    between atoms: C5_6  and  C6_7 
REMARK    3  A    between atoms: C6_7  and  N1_8 
REMARK    4  A    between atoms: N1_8  and  C7_9 
REMARK    5  A    between atoms: C12_17  and  O2_18 
ROOT
HETATM    1  C7  UNL     1      22.212   1.263  52.391  1.00  0.00     0.139 A 
HETATM    2  N2  UNL     1      21.658   2.467  52.253  1.00  0.00    -0.224 NA
HETATM    3  C8  UNL     1      22.324   3.610  52.380  1.00  0.00     0.238 A 
HETATM    4  N3  UNL     1      23.661   3.621  52.672  1.00  0.00    -0.217 NA
HETATM    5  C9  UNL     1      24.306   2.437  52.830  1.00  0.00     0.185 A 
HETATM    6  O1  UNL     1      25.584   2.468  53.109  1.00  0.00    -0.290 OA
HETATM    7  C10 UNL     1      26.325   1.411  53.287  1.00  0.00     0.091 A 
HETATM    8  C11 UNL     1      27.648   1.173  53.582  1.00  0.00     0.075 A 
HETATM    9  C12 UNL     1      27.790  -0.202  53.635  1.00  0.00     0.071 A 
HETATM   10  C14 UNL     1      26.579  -0.825  53.380  1.00  0.00     0.051 A 
HETATM   11  C15 UNL     1      25.605   0.143  53.150  1.00  0.00     0.002 A 
HETATM   12  C16 UNL     1      24.247   0.119  52.852  1.00  0.00     0.034 A 
HETATM   13  C17 UNL     1      23.557   1.280  52.684  1.00  0.00     0.064 A 
ENDROOT
BRANCH   1  14
HETATM   14  N1  UNL     1      21.471   0.039  52.248  1.00  0.00    -0.370 N 
HETATM   15  H9  UNL     1      21.695  -0.748  51.630  1.00  0.00     0.161 HD
BRANCH  14  16
HETATM   16  C6  UNL     1      20.276  -0.063  53.083  1.00  0.00     0.150 C 
BRANCH  16  17
HETATM   17  C5  UNL     1      19.069   0.086  52.260  1.00  0.00     0.011 C 
HETATM   18  C4  UNL     1      18.021  -0.714  52.372  1.00  0.00     0.008 C 
HETATM   19 BR1  UNL     1      16.430  -0.613  51.364  1.00  0.00    -0.051 Br
BRANCH  18  20
HETATM   20  C3  UNL     1      18.352  -1.697  53.441  1.00  0.00     0.014 C 
HETATM   21  C2  UNL     1      17.514  -2.760  53.333  1.00  0.00    -0.030 C 
HETATM   22  C1  UNL     1      17.051  -4.106  53.833  1.00  0.00     0.036 C 
ENDBRANCH  18  20
ENDBRANCH  16  17
ENDBRANCH  14  16
ENDBRANCH   1  14
BRANCH   9  23
HETATM   23  O2  UNL     1      28.995  -0.862  53.912  1.00  0.00    -0.356 OA
HETATM   24  C13 UNL     1      29.211  -2.102  53.296  1.00  0.00     0.210 C 
ENDBRANCH   9  23
TORSDOF 5
ENDMDL
