MODEL 1
REMARK VINA RESULT:      -8.3      0.000      0.000
REMARK  3 active torsions:
REMARK  status: ('A' for Active; 'I' for Inactive)
REMARK    1  A    between atoms: C4_5  and  C5_6 
REMARK    2  A    between atoms: C5_6  and  N1_7 
REMARK    3  A    between atoms: C11_14  and  N3_15 
ROOT
HETATM    1  N1  UNL     1      23.849   1.476  51.995  1.00  0.00    -0.337 N 
HETATM    2  C6  UNL     1      23.632   1.107  53.269  1.00  0.00     0.094 A 
HETATM    3  C7  UNL     1      22.339   0.629  53.323  1.00  0.00     0.034 A 
HETATM    4  C8  UNL     1      21.785   0.718  52.064  1.00  0.00     0.035 A 
HETATM    5  C9  UNL     1      22.757   1.256  51.240  1.00  0.00     0.137 A 
HETATM    6  N2  UNL     1      22.379   1.403  50.004  1.00  0.00    -0.266 NA
HETATM    7  C10 UNL     1      21.004   0.934  49.892  1.00  0.00     0.209 A 
HETATM    8  C11 UNL     1      20.721   0.513  51.289  1.00  0.00     0.045 A 
ENDROOT
BRANCH   1   9
HETATM    9  C5  UNL     1      25.130   2.031  51.578  1.00  0.00     0.168 C 
BRANCH   9  10
HETATM   10  C4  UNL     1      26.243   1.215  52.140  1.00  0.00    -0.038 A 
HETATM   11  C3  UNL     1      27.264   1.950  52.732  1.00  0.00     0.010 A 
HETATM   12  C2  UNL     1      28.323   1.250  53.270  1.00  0.00     0.026 A 
HETATM   13  C1  UNL     1      28.450  -0.123  53.269  1.00  0.00     0.055 A 
HETATM   14 CL1  UNL     1      29.828  -0.932  53.975  1.00  0.00    -0.083 Cl
HETATM   15  C18 UNL     1      27.405  -0.824  52.666  1.00  0.00     0.056 A 
HETATM   16  C17 UNL     1      26.336  -0.149  52.121  1.00  0.00     0.034 A 
HETATM   17 CL2  UNL     1      27.457  -2.560  52.605  1.00  0.00    -0.083 Cl
ENDBRANCH   9  10
ENDBRANCH   1   9
BRANCH   8  18
HETATM   18  N3  UNL     1      19.507  -0.038  51.790  1.00  0.00    -0.353 N 
HETATM   19  C12 UNL     1      18.396   0.101  50.911  1.00  0.00     0.110 A 
HETATM   20  C13 UNL     1      17.201  -0.362  51.242  1.00  0.00     0.026 A 
HETATM   21 BR1  UNL     1      15.725  -0.174  50.069  1.00  0.00    -0.050 Br
HETATM   22  C14 UNL     1      16.973  -1.035  52.518  1.00  0.00     0.018 A 
HETATM   23  C15 UNL     1      18.040  -1.141  53.306  1.00  0.00    -0.005 A 
HETATM   24  C16 UNL     1      19.413  -0.682  53.079  1.00  0.00     0.155 A 
ENDBRANCH   8  18
TORSDOF 3
ENDMDL
MODEL 2
REMARK VINA RESULT:      -8.2      5.438      7.952
REMARK  3 active torsions:
REMARK  status: ('A' for Active; 'I' for Inactive)
REMARK    1  A    between atoms: C4_5  and  C5_6 
REMARK    2  A    between atoms: C5_6  and  N1_7 
REMARK    3  A    between atoms: C11_14  and  N3_15 
ROOT
HETATM    1  N1  UNL     1      25.454   2.960  50.871  1.00  0.00    -0.337 N 
HETATM    2  C6  UNL     1      26.446   2.806  49.975  1.00  0.00     0.094 A 
HETATM    3  C7  UNL     1      26.574   4.014  49.323  1.00  0.00     0.034 A 
HETATM    4  C8  UNL     1      25.646   4.894  49.839  1.00  0.00     0.035 A 
HETATM    5  C9  UNL     1      24.950   4.207  50.816  1.00  0.00     0.137 A 
HETATM    6  N2  UNL     1      24.028   4.913  51.403  1.00  0.00    -0.266 NA
HETATM    7  C10 UNL     1      24.035   6.245  50.813  1.00  0.00     0.209 A 
HETATM    8  C11 UNL     1      25.124   6.119  49.810  1.00  0.00     0.045 A 
ENDROOT
BRANCH   1   9
HETATM    9  C5  UNL     1      25.049   1.867  51.744  1.00  0.00     0.168 C 
BRANCH   9  10
HETATM   10  C4  UNL     1      26.252   1.232  52.352  1.00  0.00    -0.038 A 
HETATM   11  C3  UNL     1      26.352  -0.141  52.151  1.00  0.00     0.010 A 
HETATM   12  C2  UNL     1      27.445  -0.786  52.691  1.00  0.00     0.026 A 
HETATM   13  C1  UNL     1      28.448  -0.178  53.415  1.00  0.00     0.055 A 
HETATM   14 CL1  UNL     1      29.802  -1.071  54.065  1.00  0.00    -0.083 Cl
HETATM   15  C18 UNL     1      28.313   1.199  53.594  1.00  0.00     0.056 A 
HETATM   16  C17 UNL     1      27.231   1.868  53.065  1.00  0.00     0.034 A 
HETATM   17 CL2  UNL     1      29.518   2.074  54.491  1.00  0.00    -0.083 Cl
ENDBRANCH   9  10
ENDBRANCH   1   9
BRANCH   8  18
HETATM   18  N3  UNL     1      25.589   7.126  48.917  1.00  0.00    -0.353 N 
HETATM   19  C12 UNL     1      26.763   7.801  49.358  1.00  0.00     0.110 A 
HETATM   20  C13 UNL     1      27.311   8.763  48.632  1.00  0.00     0.026 A 
HETATM   21 BR1  UNL     1      28.872   9.659  49.223  1.00  0.00    -0.050 Br
HETATM   22  C14 UNL     1      26.737   9.170  47.352  1.00  0.00     0.018 A 
HETATM   23  C15 UNL     1      25.642   8.512  46.982  1.00  0.00    -0.005 A 
HETATM   24  C16 UNL     1      24.926   7.435  47.672  1.00  0.00     0.155 A 
ENDBRANCH   8  18
TORSDOF 3
ENDMDL
MODEL 3
REMARK VINA RESULT:      -8.0      5.076      7.627
REMARK  3 active torsions:
REMARK  status: ('A' for Active; 'I' for Inactive)
REMARK    1  A    between atoms: C4_5  and  C5_6 
REMARK    2  A    between atoms: C5_6  and  N1_7 
REMARK    3  A    between atoms: C11_14  and  N3_15 
ROOT
HETATM    1  N1  UNL     1      25.516   2.984  50.833  1.00  0.00    -0.337 N 
HETATM    2  C6  UNL     1      26.518   2.862  49.945  1.00  0.00     0.094 A 
HETATM    3  C7  UNL     1      26.647   4.090  49.330  1.00  0.00     0.034 A 
HETATM    4  C8  UNL     1      25.709   4.949  49.862  1.00  0.00     0.035 A 
HETATM    5  C9  UNL     1      25.006   4.229  50.810  1.00  0.00     0.137 A 
HETATM    6  N2  UNL     1      24.073   4.912  51.407  1.00  0.00    -0.266 NA
HETATM    7  C10 UNL     1      24.080   6.262  50.858  1.00  0.00     0.209 A 
HETATM    8  C11 UNL     1      25.181   6.172  49.863  1.00  0.00     0.045 A 
ENDROOT
BRANCH   1   9
HETATM    9  C5  UNL     1      25.108   1.863  51.668  1.00  0.00     0.168 C 
BRANCH   9  10
HETATM   10  C4  UNL     1      26.304   1.241  52.303  1.00  0.00    -0.038 A 
HETATM   11  C3  UNL     1      26.409  -0.134  52.128  1.00  0.00     0.010 A 
HETATM   12  C2  UNL     1      27.496  -0.767  52.694  1.00  0.00     0.026 A 
HETATM   13  C1  UNL     1      28.488  -0.143  53.420  1.00  0.00     0.055 A 
HETATM   14 CL1  UNL     1      29.835  -1.022  54.104  1.00  0.00    -0.083 Cl
HETATM   15  C18 UNL     1      28.347   1.236  53.572  1.00  0.00     0.056 A 
HETATM   16  C17 UNL     1      27.271   1.893  53.018  1.00  0.00     0.034 A 
HETATM   17 CL2  UNL     1      29.539   2.129  54.469  1.00  0.00    -0.083 Cl
ENDBRANCH   9  10
ENDBRANCH   1   9
BRANCH   8  18
HETATM   18  N3  UNL     1      25.650   7.207  49.007  1.00  0.00    -0.353 N 
HETATM   19  C12 UNL     1      24.974   7.283  47.756  1.00  0.00     0.110 A 
HETATM   20  C13 UNL     1      25.304   8.196  46.856  1.00  0.00     0.026 A 
HETATM   21 BR1  UNL     1      24.401   8.293  45.193  1.00  0.00    -0.050 Br
HETATM   22  C14 UNL     1      26.369   9.162  47.108  1.00  0.00     0.018 A 
HETATM   23  C15 UNL     1      26.972   9.053  48.289  1.00  0.00    -0.005 A 
HETATM   24  C16 UNL     1      26.721   8.103  49.377  1.00  0.00     0.155 A 
ENDBRANCH   8  18
TORSDOF 3
ENDMDL
MODEL 4
REMARK VINA RESULT:      -8.0      5.896      7.700
REMARK  3 active torsions:
REMARK  status: ('A' for Active; 'I' for Inactive)
REMARK    1  A    between atoms: C4_5  and  C5_6 
REMARK    2  A    between atoms: C5_6  and  N1_7 
REMARK    3  A    between atoms: C11_14  and  N3_15 
ROOT
HETATM    1  N1  UNL     1      25.435   5.010  49.598  1.00  0.00    -0.337 N 
HETATM    2  C6  UNL     1      26.405   4.137  49.272  1.00  0.00     0.094 A 
HETATM    3  C7  UNL     1      26.321   3.102  50.180  1.00  0.00     0.034 A 
HETATM    4  C8  UNL     1      25.288   3.367  51.054  1.00  0.00     0.035 A 
HETATM    5  C9  UNL     1      24.741   4.577  50.667  1.00  0.00     0.137 A 
HETATM    6  N2  UNL     1      23.744   4.966  51.405  1.00  0.00    -0.266 NA
HETATM    7  C10 UNL     1      23.523   3.959  52.435  1.00  0.00     0.209 A 
HETATM    8  C11 UNL     1      24.582   2.967  52.111  1.00  0.00     0.045 A 
ENDROOT
BRANCH   1   9
HETATM    9  C5  UNL     1      25.235   6.234  48.835  1.00  0.00     0.168 C 
BRANCH   9  10
HETATM   10  C4  UNL     1      26.463   7.075  48.896  1.00  0.00    -0.038 A 
HETATM   11  C3  UNL     1      26.435   8.081  49.856  1.00  0.00     0.010 A 
HETATM   12  C2  UNL     1      27.544   8.894  49.960  1.00  0.00     0.026 A 
HETATM   13  C1  UNL     1      28.681   8.788  49.187  1.00  0.00     0.055 A 
HETATM   14 CL1  UNL     1      30.046   9.862  49.384  1.00  0.00    -0.083 Cl
HETATM   15  C18 UNL     1      28.670   7.768  48.235  1.00  0.00     0.056 A 
HETATM   16  C17 UNL     1      27.575   6.942  48.110  1.00  0.00     0.034 A 
HETATM   17 CL2  UNL     1      30.049   7.540  47.202  1.00  0.00    -0.083 Cl
ENDBRANCH   9  10
ENDBRANCH   1   9
BRANCH   8  18
HETATM   18  N3  UNL     1      24.854   1.748  52.793  1.00  0.00    -0.353 N 
HETATM   19  C12 UNL     1      26.178   1.647  53.305  1.00  0.00     0.110 A 
HETATM   20  C13 UNL     1      26.576   0.569  53.963  1.00  0.00     0.026 A 
HETATM   21 BR1  UNL     1      28.340   0.440  54.643  1.00  0.00    -0.050 Br
HETATM   22  C14 UNL     1      25.676  -0.558  54.191  1.00  0.00     0.018 A 
HETATM   23  C15 UNL     1      24.450  -0.419  53.694  1.00  0.00    -0.005 A 
HETATM   24  C16 UNL     1      23.869   0.704  52.951  1.00  0.00     0.155 A 
ENDBRANCH   8  18
TORSDOF 3
ENDMDL
MODEL 5
REMARK VINA RESULT:      -8.0      5.097      7.576
REMARK  3 active torsions:
REMARK  status: ('A' for Active; 'I' for Inactive)
REMARK    1  A    between atoms: C4_5  and  C5_6 
REMARK    2  A    between atoms: C5_6  and  N1_7 
REMARK    3  A    between atoms: C11_14  and  N3_15 
ROOT
HETATM    1  N1  UNL     1      25.503   3.228  51.014  1.00  0.00    -0.337 N 
HETATM    2  C6  UNL     1      26.479   2.860  50.166  1.00  0.00     0.094 A 
HETATM    3  C7  UNL     1      26.672   3.921  49.307  1.00  0.00     0.034 A 
HETATM    4  C8  UNL     1      25.798   4.930  49.652  1.00  0.00     0.035 A 
HETATM    5  C9  UNL     1      25.069   4.470  50.734  1.00  0.00     0.137 A 
HETATM    6  N2  UNL     1      24.191   5.321  51.179  1.00  0.00    -0.266 NA
HETATM    7  C10 UNL     1      24.270   6.523  50.360  1.00  0.00     0.209 A 
HETATM    8  C11 UNL     1      25.345   6.158  49.401  1.00  0.00     0.045 A 
ENDROOT
BRANCH   1   9
HETATM    9  C5  UNL     1      25.042   2.333  52.067  1.00  0.00     0.168 C 
BRANCH   9  10
HETATM   10  C4  UNL     1      26.149   1.427  52.483  1.00  0.00    -0.038 A 
HETATM   11  C3  UNL     1      27.218   2.060  53.106  1.00  0.00     0.010 A 
HETATM   12  C2  UNL     1      28.275   1.273  53.514  1.00  0.00     0.026 A 
HETATM   13  C1  UNL     1      28.355  -0.094  53.354  1.00  0.00     0.055 A 
HETATM   14 CL1  UNL     1      29.733  -1.018  53.902  1.00  0.00    -0.083 Cl
HETATM   15  C18 UNL     1      27.262  -0.692  52.725  1.00  0.00     0.056 A 
HETATM   16  C17 UNL     1      26.194   0.071  52.308  1.00  0.00     0.034 A 
HETATM   17 CL2  UNL     1      27.252  -2.411  52.468  1.00  0.00    -0.083 Cl
ENDBRANCH   9  10
ENDBRANCH   1   9
BRANCH   8  18
HETATM   18  N3  UNL     1      25.861   6.960  48.344  1.00  0.00    -0.353 N 
HETATM   19  C12 UNL     1      24.877   7.416  47.422  1.00  0.00     0.110 A 
HETATM   20  C13 UNL     1      25.210   8.171  46.387  1.00  0.00     0.026 A 
HETATM   21 BR1  UNL     1      23.896   8.776  45.162  1.00  0.00    -0.050 Br
HETATM   22  C14 UNL     1      26.594   8.569  46.149  1.00  0.00     0.018 A 
HETATM   23  C15 UNL     1      27.478   8.119  47.036  1.00  0.00    -0.005 A 
HETATM   24  C16 UNL     1      27.263   7.282  48.220  1.00  0.00     0.155 A 
ENDBRANCH   8  18
TORSDOF 3
ENDMDL
MODEL 6
REMARK VINA RESULT:      -7.9      4.840      6.825
REMARK  3 active torsions:
REMARK  status: ('A' for Active; 'I' for Inactive)
REMARK    1  A    between atoms: C4_5  and  C5_6 
REMARK    2  A    between atoms: C5_6  and  N1_7 
REMARK    3  A    between atoms: C11_14  and  N3_15 
ROOT
HETATM    1  N1  UNL     1      24.283   2.205  52.303  1.00  0.00    -0.337 N 
HETATM    2  C6  UNL     1      23.537   3.041  53.048  1.00  0.00     0.094 A 
HETATM    3  C7  UNL     1      23.605   4.275  52.438  1.00  0.00     0.034 A 
HETATM    4  C8  UNL     1      24.401   4.169  51.317  1.00  0.00     0.035 A 
HETATM    5  C9  UNL     1      24.818   2.852  51.251  1.00  0.00     0.137 A 
HETATM    6  N2  UNL     1      25.587   2.592  50.234  1.00  0.00    -0.266 NA
HETATM    7  C10 UNL     1      25.760   3.822  49.472  1.00  0.00     0.209 A 
HETATM    8  C11 UNL     1      24.946   4.779  50.266  1.00  0.00     0.045 A 
ENDROOT
BRANCH   1   9
HETATM    9  C5  UNL     1      24.432   0.802  52.664  1.00  0.00     0.168 C 
BRANCH   9  10
HETATM   10  C4  UNL     1      25.863   0.502  52.951  1.00  0.00    -0.038 A 
HETATM   11  C3  UNL     1      26.252  -0.804  52.677  1.00  0.00     0.010 A 
HETATM   12  C2  UNL     1      27.566  -1.143  52.923  1.00  0.00     0.026 A 
HETATM   13  C1  UNL     1      28.527  -0.288  53.418  1.00  0.00     0.055 A 
HETATM   14 CL1  UNL     1      30.174  -0.799  53.701  1.00  0.00    -0.083 Cl
HETATM   15  C18 UNL     1      28.098   1.014  53.679  1.00  0.00     0.056 A 
HETATM   16  C17 UNL     1      26.791   1.378  53.443  1.00  0.00     0.034 A 
HETATM   17 CL2  UNL     1      29.223   2.181  54.308  1.00  0.00    -0.083 Cl
ENDBRANCH   9  10
ENDBRANCH   1   9
BRANCH   8  18
HETATM   18  N3  UNL     1      24.741   6.162  49.995  1.00  0.00    -0.353 N 
HETATM   19  C12 UNL     1      25.917   6.958  50.093  1.00  0.00     0.110 A 
HETATM   20  C13 UNL     1      25.879   8.262  49.869  1.00  0.00     0.026 A 
HETATM   21 BR1  UNL     1      27.447   9.318  50.001  1.00  0.00    -0.050 Br
HETATM   22  C14 UNL     1      24.635   8.937  49.511  1.00  0.00     0.018 A 
HETATM   23  C15 UNL     1      23.563   8.153  49.432  1.00  0.00    -0.005 A 
HETATM   24  C16 UNL     1      23.450   6.707  49.650  1.00  0.00     0.155 A 
ENDBRANCH   8  18
TORSDOF 3
ENDMDL
MODEL 7
REMARK VINA RESULT:      -7.9      4.845      6.816
REMARK  3 active torsions:
REMARK  status: ('A' for Active; 'I' for Inactive)
REMARK    1  A    between atoms: C4_5  and  C5_6 
REMARK    2  A    between atoms: C5_6  and  N1_7 
REMARK    3  A    between atoms: C11_14  and  N3_15 
ROOT
HETATM    1  N1  UNL     1      23.688   2.668  51.621  1.00  0.00    -0.337 N 
HETATM    2  C6  UNL     1      23.659   2.080  50.412  1.00  0.00     0.094 A 
HETATM    3  C7  UNL     1      23.664   3.097  49.482  1.00  0.00     0.034 A 
HETATM    4  C8  UNL     1      23.695   4.303  50.150  1.00  0.00     0.035 A 
HETATM    5  C9  UNL     1      23.711   4.008  51.501  1.00  0.00     0.137 A 
HETATM    6  N2  UNL     1      23.741   5.056  52.270  1.00  0.00    -0.266 NA
HETATM    7  C10 UNL     1      23.749   6.240  51.421  1.00  0.00     0.209 A 
HETATM    8  C11 UNL     1      23.718   5.633  50.065  1.00  0.00     0.045 A 
ENDROOT
BRANCH   1   9
HETATM    9  C5  UNL     1      23.693   1.877  52.845  1.00  0.00     0.168 C 
BRANCH   9  10
HETATM   10  C4  UNL     1      25.061   1.346  53.099  1.00  0.00    -0.038 A 
HETATM   11  C3  UNL     1      25.151  -0.041  53.138  1.00  0.00     0.010 A 
HETATM   12  C2  UNL     1      26.393  -0.594  53.371  1.00  0.00     0.026 A 
HETATM   13  C1  UNL     1      27.555   0.121  53.568  1.00  0.00     0.055 A 
HETATM   14 CL1  UNL     1      29.092  -0.658  53.857  1.00  0.00    -0.083 Cl
HETATM   15  C18 UNL     1      27.424   1.510  53.521  1.00  0.00     0.056 A 
HETATM   16  C17 UNL     1      26.195   2.087  53.290  1.00  0.00     0.034 A 
HETATM   17 CL2  UNL     1      28.823   2.515  53.756  1.00  0.00    -0.083 Cl
ENDBRANCH   9  10
ENDBRANCH   1   9
BRANCH   8  18
HETATM   18  N3  UNL     1      23.711   6.318  48.817  1.00  0.00    -0.353 N 
HETATM   19  C12 UNL     1      24.957   6.915  48.472  1.00  0.00     0.110 A 
HETATM   20  C13 UNL     1      25.102   7.587  47.340  1.00  0.00     0.026 A 
HETATM   21 BR1  UNL     1      26.762   8.378  46.884  1.00  0.00    -0.050 Br
HETATM   22  C14 UNL     1      23.994   7.743  46.402  1.00  0.00     0.018 A 
HETATM   23  C15 UNL     1      22.850   7.170  46.767  1.00  0.00    -0.005 A 
HETATM   24  C16 UNL     1      22.540   6.401  47.977  1.00  0.00     0.155 A 
ENDBRANCH   8  18
TORSDOF 3
ENDMDL
MODEL 8
REMARK VINA RESULT:      -7.7      6.077      9.462
REMARK  3 active torsions:
REMARK  status: ('A' for Active; 'I' for Inactive)
REMARK    1  A    between atoms: C4_5  and  C5_6 
REMARK    2  A    between atoms: C5_6  and  N1_7 
REMARK    3  A    between atoms: C11_14  and  N3_15 
ROOT
HETATM    1  N1  UNL     1      17.634   2.239  51.117  1.00  0.00    -0.337 N 
HETATM    2  C6  UNL     1      17.475   0.904  51.166  1.00  0.00     0.094 A 
HETATM    3  C7  UNL     1      18.592   0.401  51.799  1.00  0.00     0.034 A 
HETATM    4  C8  UNL     1      19.422   1.451  52.128  1.00  0.00     0.035 A 
HETATM    5  C9  UNL     1      18.796   2.604  51.688  1.00  0.00     0.137 A 
HETATM    6  N2  UNL     1      19.465   3.693  51.930  1.00  0.00    -0.266 NA
HETATM    7  C10 UNL     1      20.700   3.324  52.611  1.00  0.00     0.209 A 
HETATM    8  C11 UNL     1      20.566   1.846  52.686  1.00  0.00     0.045 A 
ENDROOT
BRANCH   1   9
HETATM    9  C5  UNL     1      16.627   3.096  50.507  1.00  0.00     0.168 C 
BRANCH   9  10
HETATM   10  C4  UNL     1      15.489   3.292  51.450  1.00  0.00    -0.038 A 
HETATM   11  C3  UNL     1      15.746   4.165  52.501  1.00  0.00     0.010 A 
HETATM   12  C2  UNL     1      14.731   4.386  53.408  1.00  0.00     0.026 A 
HETATM   13  C1  UNL     1      13.479   3.810  53.355  1.00  0.00     0.055 A 
HETATM   14 CL1  UNL     1      12.247   4.146  54.547  1.00  0.00    -0.083 Cl
HETATM   15  C18 UNL     1      13.261   2.941  52.286  1.00  0.00     0.056 A 
HETATM   16  C17 UNL     1      14.258   2.702  51.366  1.00  0.00     0.034 A 
HETATM   17 CL2  UNL     1      11.720   2.155  52.117  1.00  0.00    -0.083 Cl
ENDBRANCH   9  10
ENDBRANCH   1   9
BRANCH   8  18
HETATM   18  N3  UNL     1      21.491   0.928  53.260  1.00  0.00    -0.353 N 
HETATM   19  C12 UNL     1      22.806   1.012  52.721  1.00  0.00     0.110 A 
HETATM   20  C13 UNL     1      23.774   0.220  53.156  1.00  0.00     0.026 A 
HETATM   21 BR1  UNL     1      25.523   0.334  52.437  1.00  0.00    -0.050 Br
HETATM   22  C14 UNL     1      23.535  -0.768  54.204  1.00  0.00     0.018 A 
HETATM   23  C15 UNL     1      22.291  -0.810  54.676  1.00  0.00    -0.005 A 
HETATM   24  C16 UNL     1      21.125  -0.006  54.298  1.00  0.00     0.155 A 
ENDBRANCH   8  18
TORSDOF 3
ENDMDL
MODEL 9
REMARK VINA RESULT:      -7.7      4.748      8.102
REMARK  3 active torsions:
REMARK  status: ('A' for Active; 'I' for Inactive)
REMARK    1  A    between atoms: C4_5  and  C5_6 
REMARK    2  A    between atoms: C5_6  and  N1_7 
REMARK    3  A    between atoms: C11_14  and  N3_15 
ROOT
HETATM    1  N1  UNL     1      22.340   0.471  53.270  1.00  0.00    -0.337 N 
HETATM    2  C6  UNL     1      22.782  -0.713  53.728  1.00  0.00     0.094 A 
HETATM    3  C7  UNL     1      24.157  -0.620  53.788  1.00  0.00     0.034 A 
HETATM    4  C8  UNL     1      24.532   0.635  53.359  1.00  0.00     0.035 A 
HETATM    5  C9  UNL     1      23.367   1.308  53.037  1.00  0.00     0.137 A 
HETATM    6  N2  UNL     1      23.559   2.522  52.611  1.00  0.00    -0.266 NA
HETATM    7  C10 UNL     1      24.993   2.781  52.614  1.00  0.00     0.209 A 
HETATM    8  C11 UNL     1      25.526   1.488  53.117  1.00  0.00     0.045 A 
ENDROOT
BRANCH   1   9
HETATM    9  C5  UNL     1      20.917   0.724  53.084  1.00  0.00     0.168 C 
BRANCH   9  10
HETATM   10  C4  UNL     1      20.681   1.325  51.741  1.00  0.00    -0.038 A 
HETATM   11  C3  UNL     1      21.085   0.537  50.669  1.00  0.00     0.010 A 
HETATM   12  C2  UNL     1      20.892   1.041  49.400  1.00  0.00     0.026 A 
HETATM   13  C1  UNL     1      20.329   2.265  49.109  1.00  0.00     0.055 A 
HETATM   14 CL1  UNL     1      20.120   2.828  47.468  1.00  0.00    -0.083 Cl
HETATM   15  C18 UNL     1      19.936   3.025  50.210  1.00  0.00     0.056 A 
HETATM   16  C17 UNL     1      20.117   2.546  51.489  1.00  0.00     0.034 A 
HETATM   17 CL2  UNL     1      19.214   4.587  49.965  1.00  0.00    -0.083 Cl
ENDBRANCH   9  10
ENDBRANCH   1   9
BRANCH   8  18
HETATM   18  N3  UNL     1      26.892   1.149  53.332  1.00  0.00    -0.353 N 
HETATM   19  C12 UNL     1      27.185  -0.233  53.157  1.00  0.00     0.110 A 
HETATM   20  C13 UNL     1      28.414  -0.697  53.325  1.00  0.00     0.026 A 
HETATM   21 BR1  UNL     1      28.799  -2.538  53.091  1.00  0.00    -0.050 Br
HETATM   22  C14 UNL     1      29.517   0.186  53.693  1.00  0.00     0.018 A 
HETATM   23  C15 UNL     1      29.195   1.468  53.846  1.00  0.00    -0.005 A 
HETATM   24  C16 UNL     1      27.893   2.124  53.696  1.00  0.00     0.155 A 
ENDBRANCH   8  18
TORSDOF 3
ENDMDL
