MODEL 1
REMARK VINA RESULT:      -7.6      0.000      0.000
REMARK  1 active torsions:
REMARK  status: ('A' for Active; 'I' for Inactive)
REMARK    1  A    between atoms: C8_10  and  C9_11 
ROOT
HETATM    1  N1  UNL     1      23.630   2.918  48.727  1.00  0.00    -0.196 NA
HETATM    2  C1  UNL     1      23.342   2.514  49.795  1.00  0.00     0.074 C 
HETATM    3  C2  UNL     1      22.975   1.992  51.110  1.00  0.00     0.168 C 
HETATM    4  C3  UNL     1      22.049   2.923  51.753  1.00  0.00     0.107 C 
HETATM    5  N2  UNL     1      21.886   4.068  52.261  1.00  0.00    -0.300 NA
HETATM    6  C4  UNL     1      22.923   5.055  52.358  1.00  0.00     0.175 C 
HETATM    7  C5  UNL     1      22.752   5.966  51.199  1.00  0.00    -0.003 C 
HETATM    8  C6  UNL     1      23.597   6.215  50.223  1.00  0.00     0.028 C 
HETATM    9  C7  UNL     1      24.902   5.619  50.100  1.00  0.00     0.045 C 
HETATM   10  C8  UNL     1      25.647   5.962  49.071  1.00  0.00     0.019 C 
HETATM   11  N3  UNL     1      25.677   4.685  50.826  1.00  0.00    -0.301 N 
HETATM   12  N4  UNL     1      25.899   3.312  50.956  1.00  0.00    -0.300 N 
HETATM   13  C10 UNL     1      25.437   2.255  51.785  1.00  0.00     0.057 A 
HETATM   14  C11 UNL     1      26.431   1.772  52.619  1.00  0.00     0.050 A 
HETATM   15  C12 UNL     1      26.288   0.736  53.558  1.00  0.00     0.013 A 
HETATM   16 BR1  UNL     1      27.702   0.146  54.653  1.00  0.00    -0.051 Br
HETATM   17  C13 UNL     1      25.018   0.190  53.605  1.00  0.00     0.020 A 
HETATM   18  C14 UNL     1      24.020   0.668  52.774  1.00  0.00     0.012 A 
HETATM   19  C15 UNL     1      24.187   1.688  51.859  1.00  0.00    -0.007 A 
HETATM   20  H10 UNL     1      26.334   5.069  51.522  1.00  0.00     0.187 HD
HETATM   21  H11 UNL     1      26.589   2.884  50.297  1.00  0.00     0.187 HD
ENDROOT
BRANCH  10  22
HETATM   22  C9  UNL     1      26.986   5.612  48.581  1.00  0.00     0.144 C 
HETATM   23 CL1  UNL     1      27.714   7.054  47.814  1.00  0.00    -0.126 Cl
ENDBRANCH  10  22
TORSDOF 1
ENDMDL
MODEL 2
REMARK VINA RESULT:      -7.5      1.152      1.376
REMARK  1 active torsions:
REMARK  status: ('A' for Active; 'I' for Inactive)
REMARK    1  A    between atoms: C8_10  and  C9_11 
ROOT
HETATM    1  N1  UNL     1      23.211   2.810  48.457  1.00  0.00    -0.196 NA
HETATM    2  C1  UNL     1      22.633   2.511  49.439  1.00  0.00     0.074 C 
HETATM    3  C2  UNL     1      21.902   2.124  50.643  1.00  0.00     0.168 C 
HETATM    4  C3  UNL     1      21.167   3.281  51.150  1.00  0.00     0.107 C 
HETATM    5  N2  UNL     1      21.236   4.431  51.670  1.00  0.00    -0.300 NA
HETATM    6  C4  UNL     1      22.468   5.091  51.992  1.00  0.00     0.175 C 
HETATM    7  C5  UNL     1      22.770   6.003  50.861  1.00  0.00    -0.003 C 
HETATM    8  C6  UNL     1      23.814   5.998  50.062  1.00  0.00     0.028 C 
HETATM    9  C7  UNL     1      24.904   5.061  50.148  1.00  0.00     0.045 C 
HETATM   10  C8  UNL     1      25.890   5.174  49.284  1.00  0.00     0.019 C 
HETATM   11  N3  UNL     1      25.246   3.955  50.960  1.00  0.00    -0.301 N 
HETATM   12  N4  UNL     1      25.054   2.575  51.069  1.00  0.00    -0.300 N 
HETATM   13  C10 UNL     1      24.175   1.696  51.757  1.00  0.00     0.057 A 
HETATM   14  C11 UNL     1      24.828   0.963  52.732  1.00  0.00     0.050 A 
HETATM   15  C12 UNL     1      24.236   0.016  53.586  1.00  0.00     0.013 A 
HETATM   16 BR1  UNL     1      25.208  -0.935  54.889  1.00  0.00    -0.051 Br
HETATM   17  C13 UNL     1      22.878  -0.154  53.383  1.00  0.00     0.020 A 
HETATM   18  C14 UNL     1      22.220   0.576  52.409  1.00  0.00     0.012 A 
HETATM   19  C15 UNL     1      22.825   1.500  51.582  1.00  0.00    -0.007 A 
HETATM   20  H10 UNL     1      25.845   4.147  51.777  1.00  0.00     0.187 HD
HETATM   21  H11 UNL     1      25.707   1.967  50.525  1.00  0.00     0.187 HD
ENDROOT
BRANCH  10  22
HETATM   22  C9  UNL     1      27.147   4.462  49.025  1.00  0.00     0.144 C 
HETATM   23 CL1  UNL     1      28.320   5.603  48.307  1.00  0.00    -0.126 Cl
ENDBRANCH  10  22
TORSDOF 1
ENDMDL
MODEL 3
REMARK VINA RESULT:      -7.5      4.087      5.978
REMARK  1 active torsions:
REMARK  status: ('A' for Active; 'I' for Inactive)
REMARK    1  A    between atoms: C8_10  and  C9_11 
ROOT
HETATM    1  N1  UNL     1      20.048   3.247  52.721  1.00  0.00    -0.196 NA
HETATM    2  C1  UNL     1      21.141   3.375  52.300  1.00  0.00     0.074 C 
HETATM    3  C2  UNL     1      22.497   3.558  51.789  1.00  0.00     0.168 C 
HETATM    4  C3  UNL     1      22.461   3.566  50.328  1.00  0.00     0.107 C 
HETATM    5  N2  UNL     1      22.249   2.904  49.273  1.00  0.00    -0.300 NA
HETATM    6  C4  UNL     1      21.864   1.522  49.260  1.00  0.00     0.175 C 
HETATM    7  C5  UNL     1      20.387   1.495  49.118  1.00  0.00    -0.003 C 
HETATM    8  C6  UNL     1      19.495   0.992  49.943  1.00  0.00     0.028 C 
HETATM    9  C7  UNL     1      19.809   0.348  51.192  1.00  0.00     0.045 C 
HETATM   10  C8  UNL     1      18.815  -0.114  51.920  1.00  0.00     0.019 C 
HETATM   11  N3  UNL     1      20.979   0.050  51.928  1.00  0.00    -0.301 N 
HETATM   12  N4  UNL     1      21.853   0.601  52.868  1.00  0.00    -0.300 N 
HETATM   13  C10 UNL     1      23.090   1.300  52.857  1.00  0.00     0.057 A 
HETATM   14  C11 UNL     1      24.119   0.549  53.398  1.00  0.00     0.050 A 
HETATM   15  C12 UNL     1      25.459   0.955  53.523  1.00  0.00     0.013 A 
HETATM   16 BR1  UNL     1      26.793  -0.141  54.274  1.00  0.00    -0.051 Br
HETATM   17  C13 UNL     1      25.707   2.230  53.046  1.00  0.00     0.020 A 
HETATM   18  C14 UNL     1      24.683   2.986  52.505  1.00  0.00     0.012 A 
HETATM   19  C15 UNL     1      23.374   2.563  52.394  1.00  0.00    -0.007 A 
HETATM   20  H10 UNL     1      21.396  -0.882  51.778  1.00  0.00     0.187 HD
HETATM   21  H11 UNL     1      21.584   0.502  53.873  1.00  0.00     0.187 HD
ENDROOT
BRANCH  10  22
HETATM   22  C9  UNL     1      18.689  -0.811  53.206  1.00  0.00     0.144 C 
HETATM   23 CL1  UNL     1      17.399  -2.041  53.072  1.00  0.00    -0.126 Cl
ENDBRANCH  10  22
TORSDOF 1
ENDMDL
MODEL 4
REMARK VINA RESULT:      -7.3      4.845      7.316
REMARK  1 active torsions:
REMARK  status: ('A' for Active; 'I' for Inactive)
REMARK    1  A    between atoms: C8_10  and  C9_11 
ROOT
HETATM    1  N1  UNL     1      29.798   7.715  45.958  1.00  0.00    -0.196 NA
HETATM    2  C1  UNL     1      28.762   8.002  46.438  1.00  0.00     0.074 C 
HETATM    3  C2  UNL     1      27.467   8.361  47.010  1.00  0.00     0.168 C 
HETATM    4  C3  UNL     1      27.604   9.606  47.763  1.00  0.00     0.107 C 
HETATM    5  N2  UNL     1      28.108  10.181  48.770  1.00  0.00    -0.300 NA
HETATM    6  C4  UNL     1      28.943   9.523  49.733  1.00  0.00     0.175 C 
HETATM    7  C5  UNL     1      30.346   9.811  49.344  1.00  0.00    -0.003 C 
HETATM    8  C6  UNL     1      31.293   8.963  49.009  1.00  0.00     0.028 C 
HETATM    9  C7  UNL     1      31.128   7.533  48.957  1.00  0.00     0.045 C 
HETATM   10  C8  UNL     1      32.164   6.801  48.608  1.00  0.00     0.019 C 
HETATM   11  N3  UNL     1      30.081   6.612  49.186  1.00  0.00    -0.301 N 
HETATM   12  N4  UNL     1      29.005   5.995  48.544  1.00  0.00    -0.300 N 
HETATM   13  C10 UNL     1      27.607   6.213  48.408  1.00  0.00     0.057 A 
HETATM   14  C11 UNL     1      26.862   5.238  49.048  1.00  0.00     0.050 A 
HETATM   15  C12 UNL     1      25.458   5.178  49.103  1.00  0.00     0.013 A 
HETATM   16 BR1  UNL     1      24.529   3.809  50.003  1.00  0.00    -0.051 Br
HETATM   17  C13 UNL     1      24.824   6.211  48.439  1.00  0.00     0.020 A 
HETATM   18  C14 UNL     1      25.563   7.188  47.796  1.00  0.00     0.012 A 
HETATM   19  C15 UNL     1      26.942   7.225  47.757  1.00  0.00    -0.007 A 
HETATM   20  H10 UNL     1      30.021   6.203  50.131  1.00  0.00     0.187 HD
HETATM   21  H11 UNL     1      29.217   5.126  48.002  1.00  0.00     0.187 HD
ENDROOT
BRANCH  10  22
HETATM   22  C9  UNL     1      32.427   5.367  48.433  1.00  0.00     0.144 C 
HETATM   23 CL1  UNL     1      32.089   4.921  46.735  1.00  0.00    -0.126 Cl
ENDBRANCH  10  22
TORSDOF 1
ENDMDL
MODEL 5
REMARK VINA RESULT:      -7.3      5.740      8.501
REMARK  1 active torsions:
REMARK  status: ('A' for Active; 'I' for Inactive)
REMARK    1  A    between atoms: C8_10  and  C9_11 
ROOT
HETATM    1  N1  UNL     1      31.265   7.352  45.499  1.00  0.00    -0.196 NA
HETATM    2  C1  UNL     1      30.457   7.734  46.267  1.00  0.00     0.074 C 
HETATM    3  C2  UNL     1      29.445   8.219  47.201  1.00  0.00     0.168 C 
HETATM    4  C3  UNL     1      30.078   9.106  48.175  1.00  0.00     0.107 C 
HETATM    5  N2  UNL     1      30.888   9.210  49.139  1.00  0.00    -0.300 NA
HETATM    6  C4  UNL     1      31.624   8.107  49.688  1.00  0.00     0.175 C 
HETATM    7  C5  UNL     1      32.966   8.137  49.056  1.00  0.00    -0.003 C 
HETATM    8  C6  UNL     1      33.540   7.217  48.311  1.00  0.00     0.028 C 
HETATM    9  C7  UNL     1      32.937   5.958  47.959  1.00  0.00     0.045 C 
HETATM   10  C8  UNL     1      33.628   5.127  47.207  1.00  0.00     0.019 C 
HETATM   11  N3  UNL     1      31.708   5.303  48.205  1.00  0.00    -0.301 N 
HETATM   12  N4  UNL     1      30.406   5.196  47.711  1.00  0.00    -0.300 N 
HETATM   13  C10 UNL     1      29.141   5.789  47.970  1.00  0.00     0.057 A 
HETATM   14  C11 UNL     1      28.244   4.887  48.517  1.00  0.00     0.050 A 
HETATM   15  C12 UNL     1      26.918   5.167  48.890  1.00  0.00     0.013 A 
HETATM   16 BR1  UNL     1      25.770   3.871  49.632  1.00  0.00    -0.051 Br
HETATM   17  C13 UNL     1      26.534   6.476  48.664  1.00  0.00     0.020 A 
HETATM   18  C14 UNL     1      27.425   7.382  48.116  1.00  0.00     0.012 A 
HETATM   19  C15 UNL     1      28.724   7.082  47.758  1.00  0.00    -0.007 A 
HETATM   20  H10 UNL     1      31.678   4.661  49.011  1.00  0.00     0.187 HD
HETATM   21  H11 UNL     1      30.251   4.504  46.942  1.00  0.00     0.187 HD
ENDROOT
BRANCH  10  22
HETATM   22  C9  UNL     1      33.405   3.793  46.637  1.00  0.00     0.144 C 
HETATM   23 CL1  UNL     1      34.972   3.131  46.090  1.00  0.00    -0.126 Cl
ENDBRANCH  10  22
TORSDOF 1
ENDMDL
MODEL 6
REMARK VINA RESULT:      -7.1      3.006      5.426
REMARK  1 active torsions:
REMARK  status: ('A' for Active; 'I' for Inactive)
REMARK    1  A    between atoms: C8_10  and  C9_11 
ROOT
HETATM    1  N1  UNL     1      22.925   4.434  52.530  1.00  0.00    -0.196 NA
HETATM    2  C1  UNL     1      23.082   4.859  51.442  1.00  0.00     0.074 C 
HETATM    3  C2  UNL     1      23.269   5.408  50.102  1.00  0.00     0.168 C 
HETATM    4  C3  UNL     1      22.332   4.763  49.184  1.00  0.00     0.107 C 
HETATM    5  N2  UNL     1      21.991   3.695  48.602  1.00  0.00    -0.300 NA
HETATM    6  C4  UNL     1      22.676   2.444  48.758  1.00  0.00     0.175 C 
HETATM    7  C5  UNL     1      21.927   1.675  49.782  1.00  0.00    -0.003 C 
HETATM    8  C6  UNL     1      22.351   1.231  50.945  1.00  0.00     0.028 C 
HETATM    9  C7  UNL     1      23.683   1.423  51.456  1.00  0.00     0.045 C 
HETATM   10  C8  UNL     1      23.974   0.921  52.637  1.00  0.00     0.019 C 
HETATM   11  N3  UNL     1      24.869   2.057  51.018  1.00  0.00    -0.301 N 
HETATM   12  N4  UNL     1      25.511   3.297  51.016  1.00  0.00    -0.300 N 
HETATM   13  C10 UNL     1      25.632   4.407  50.137  1.00  0.00     0.057 A 
HETATM   14  C11 UNL     1      26.917   4.541  49.639  1.00  0.00     0.050 A 
HETATM   15  C12 UNL     1      27.354   5.532  48.743  1.00  0.00     0.013 A 
HETATM   16 BR1  UNL     1      29.128   5.634  48.117  1.00  0.00    -0.051 Br
HETATM   17  C13 UNL     1      26.367   6.423  48.364  1.00  0.00     0.020 A 
HETATM   18  C14 UNL     1      25.081   6.295  48.858  1.00  0.00     0.012 A 
HETATM   19  C15 UNL     1      24.677   5.312  49.738  1.00  0.00    -0.007 A 
HETATM   20  H10 UNL     1      25.553   1.467  50.521  1.00  0.00     0.187 HD
HETATM   21  H11 UNL     1      26.081   3.533  51.861  1.00  0.00     0.187 HD
ENDROOT
BRANCH  10  22
HETATM   22  C9  UNL     1      25.161   0.884  53.500  1.00  0.00     0.144 C 
HETATM   23 CL1  UNL     1      26.123  -0.567  53.095  1.00  0.00    -0.126 Cl
ENDBRANCH  10  22
TORSDOF 1
ENDMDL
MODEL 7
REMARK VINA RESULT:      -6.7      3.880      5.895
REMARK  1 active torsions:
REMARK  status: ('A' for Active; 'I' for Inactive)
REMARK    1  A    between atoms: C8_10  and  C9_11 
ROOT
HETATM    1  N1  UNL     1      23.674   4.146  52.981  1.00  0.00    -0.196 NA
HETATM    2  C1  UNL     1      22.680   4.317  52.373  1.00  0.00     0.074 C 
HETATM    3  C2  UNL     1      21.447   4.553  51.625  1.00  0.00     0.168 C 
HETATM    4  C3  UNL     1      20.356   3.809  52.252  1.00  0.00     0.107 C 
HETATM    5  N2  UNL     1      19.870   2.675  52.521  1.00  0.00    -0.300 NA
HETATM    6  C4  UNL     1      20.482   1.432  52.147  1.00  0.00     0.175 C 
HETATM    7  C5  UNL     1      21.244   0.962  53.330  1.00  0.00    -0.003 C 
HETATM    8  C6  UNL     1      22.536   0.739  53.436  1.00  0.00     0.028 C 
HETATM    9  C7  UNL     1      23.486   0.923  52.369  1.00  0.00     0.045 C 
HETATM   10  C8  UNL     1      24.752   0.659  52.613  1.00  0.00     0.019 C 
HETATM   11  N3  UNL     1      23.448   1.349  51.022  1.00  0.00    -0.301 N 
HETATM   12  N4  UNL     1      23.493   2.503  50.235  1.00  0.00    -0.300 N 
HETATM   13  C10 UNL     1      22.562   3.387  49.628  1.00  0.00     0.057 A 
HETATM   14  C11 UNL     1      22.588   3.305  48.246  1.00  0.00     0.050 A 
HETATM   15  C12 UNL     1      21.784   4.045  47.361  1.00  0.00     0.013 A 
HETATM   16 BR1  UNL     1      21.890   3.863  45.490  1.00  0.00    -0.051 Br
HETATM   17  C13 UNL     1      20.911   4.915  47.988  1.00  0.00     0.020 A 
HETATM   18  C14 UNL     1      20.880   5.002  49.368  1.00  0.00     0.012 A 
HETATM   19  C15 UNL     1      21.681   4.265  50.216  1.00  0.00    -0.007 A 
HETATM   20  H10 UNL     1      23.358   0.612  50.305  1.00  0.00     0.187 HD
HETATM   21  H11 UNL     1      24.442   2.862  49.984  1.00  0.00     0.187 HD
ENDROOT
BRANCH  10  22
HETATM   22  C9  UNL     1      26.002   0.706  51.845  1.00  0.00     0.144 C 
HETATM   23 CL1  UNL     1      27.014  -0.694  52.305  1.00  0.00    -0.126 Cl
ENDBRANCH  10  22
TORSDOF 1
ENDMDL
MODEL 8
REMARK VINA RESULT:      -6.5      5.001      8.252
REMARK  1 active torsions:
REMARK  status: ('A' for Active; 'I' for Inactive)
REMARK    1  A    between atoms: C8_10  and  C9_11 
ROOT
HETATM    1  N1  UNL     1      27.564   9.103  50.211  1.00  0.00    -0.196 NA
HETATM    2  C1  UNL     1      28.490   9.381  49.539  1.00  0.00     0.074 C 
HETATM    3  C2  UNL     1      29.645   9.745  48.722  1.00  0.00     0.168 C 
HETATM    4  C3  UNL     1      29.179  10.253  47.433  1.00  0.00     0.107 C 
HETATM    5  N2  UNL     1      28.601   9.990  46.341  1.00  0.00    -0.300 NA
HETATM    6  C4  UNL     1      28.099   8.692  45.993  1.00  0.00     0.175 C 
HETATM    7  C5  UNL     1      26.651   8.697  46.317  1.00  0.00    -0.003 C 
HETATM    8  C6  UNL     1      25.999   7.931  47.164  1.00  0.00     0.028 C 
HETATM    9  C7  UNL     1      26.606   6.902  47.968  1.00  0.00     0.045 C 
HETATM   10  C8  UNL     1      25.833   6.206  48.774  1.00  0.00     0.019 C 
HETATM   11  N3  UNL     1      27.907   6.384  48.161  1.00  0.00    -0.301 N 
HETATM   12  N4  UNL     1      29.069   6.590  48.909  1.00  0.00    -0.300 N 
HETATM   13  C10 UNL     1      30.308   7.265  48.745  1.00  0.00     0.057 A 
HETATM   14  C11 UNL     1      31.374   6.386  48.660  1.00  0.00     0.050 A 
HETATM   15  C12 UNL     1      32.723   6.742  48.489  1.00  0.00     0.013 A 
HETATM   16 BR1  UNL     1      34.109   5.470  48.381  1.00  0.00    -0.051 Br
HETATM   17  C13 UNL     1      32.940   8.105  48.407  1.00  0.00     0.020 A 
HETATM   18  C14 UNL     1      31.879   8.988  48.492  1.00  0.00     0.012 A 
HETATM   19  C15 UNL     1      30.562   8.614  48.661  1.00  0.00    -0.007 A 
HETATM   20  H10 UNL     1      28.169   5.565  47.591  1.00  0.00     0.187 HD
HETATM   21  H11 UNL     1      29.101   6.148  49.856  1.00  0.00     0.187 HD
ENDROOT
BRANCH  10  22
HETATM   22  C9  UNL     1      26.027   5.109  49.729  1.00  0.00     0.144 C 
HETATM   23 CL1  UNL     1      24.542   4.925  50.707  1.00  0.00    -0.126 Cl
ENDBRANCH  10  22
TORSDOF 1
ENDMDL
MODEL 9
REMARK VINA RESULT:      -6.3      7.726     10.485
REMARK  1 active torsions:
REMARK  status: ('A' for Active; 'I' for Inactive)
REMARK    1  A    between atoms: C8_10  and  C9_11 
ROOT
HETATM    1  N1  UNL     1      32.033   7.234  49.975  1.00  0.00    -0.196 NA
HETATM    2  C1  UNL     1      31.608   8.226  49.504  1.00  0.00     0.074 C 
HETATM    3  C2  UNL     1      31.088   9.469  48.939  1.00  0.00     0.168 C 
HETATM    4  C3  UNL     1      29.633   9.381  48.846  1.00  0.00     0.107 C 
HETATM    5  N2  UNL     1      28.641   8.823  48.297  1.00  0.00    -0.300 NA
HETATM    6  C4  UNL     1      28.752   7.798  47.299  1.00  0.00     0.175 C 
HETATM    7  C5  UNL     1      28.606   6.501  48.005  1.00  0.00    -0.003 C 
HETATM    8  C6  UNL     1      29.470   5.512  48.086  1.00  0.00     0.028 C 
HETATM    9  C7  UNL     1      30.774   5.514  47.475  1.00  0.00     0.045 C 
HETATM   10  C8  UNL     1      31.536   4.454  47.635  1.00  0.00     0.019 C 
HETATM   11  N3  UNL     1      31.539   6.408  46.690  1.00  0.00    -0.301 N 
HETATM   12  N4  UNL     1      32.429   7.479  46.803  1.00  0.00    -0.300 N 
HETATM   13  C10 UNL     1      32.360   8.898  46.784  1.00  0.00     0.057 A 
HETATM   14  C11 UNL     1      32.972   9.435  45.664  1.00  0.00     0.050 A 
HETATM   15  C12 UNL     1      33.066  10.803  45.353  1.00  0.00     0.013 A 
HETATM   16 BR1  UNL     1      33.919  11.440  43.799  1.00  0.00    -0.051 Br
HETATM   17  C13 UNL     1      32.476  11.634  46.287  1.00  0.00     0.020 A 
HETATM   18  C14 UNL     1      31.864  11.104  47.409  1.00  0.00     0.012 A 
HETATM   19  C15 UNL     1      31.785   9.756  47.692  1.00  0.00    -0.007 A 
HETATM   20  H10 UNL     1      31.476   6.297  45.667  1.00  0.00     0.187 HD
HETATM   21  H11 UNL     1      33.438   7.238  46.934  1.00  0.00     0.187 HD
ENDROOT
BRANCH  10  22
HETATM   22  C9  UNL     1      32.879   4.050  47.201  1.00  0.00     0.144 C 
HETATM   23 CL1  UNL     1      32.997   2.268  47.271  1.00  0.00    -0.126 Cl
ENDBRANCH  10  22
TORSDOF 1
ENDMDL
