MODEL 1
REMARK VINA RESULT:      -7.3      0.000      0.000
REMARK  10 active torsions:
REMARK  status: ('A' for Active; 'I' for Inactive)
REMARK    1  A    between atoms: C2_2  and  O1_3 
REMARK    2  A    between atoms: O1_3  and  C3_4 
REMARK    3  A    between atoms: C7_9  and  C8_10 
REMARK    4  A    between atoms: C8_10  and  N2_11 
REMARK    5  A    between atoms: C9_12  and  N3_13 
REMARK    6  A    between atoms: N3_13  and  C10_14 
REMARK    7  A    between atoms: C10_14  and  C11_15 
REMARK    8  A    between atoms: C12_16  and  C13_18 
REMARK    9  A    between atoms: C16_22  and  N4_23 
REMARK   10  A    between atoms: N4_23  and  C17_24 
ROOT
HETATM    1  C17 UNL     1      20.728   0.540  50.795  1.00  0.00     0.156 C 
HETATM    2  C18 UNL     1      20.836   1.137  49.416  1.00  0.00     0.410 C 
HETATM    3  O2  UNL     1      20.982   1.625  48.323  1.00  0.00    -0.428 OA
ENDROOT
BRANCH   1   4
HETATM    4  N4  UNL     1      21.951   0.554  51.480  1.00  0.00    -0.385 N 
HETATM    5  H19 UNL     1      21.695   1.560  51.747  1.00  0.00     0.159 HD
BRANCH   4   6
HETATM    6  C16 UNL     1      23.184   0.575  52.173  1.00  0.00     0.062 A 
HETATM    7  C3  UNL     1      23.054  -0.462  53.124  1.00  0.00     0.097 A 
HETATM    8  C4  UNL     1      24.114  -0.735  54.004  1.00  0.00     0.071 A 
HETATM    9  C5  UNL     1      25.221   0.066  53.847  1.00  0.00     0.071 A 
HETATM   10  N1  UNL     1      26.279  -0.110  54.630  1.00  0.00    -0.260 NA
HETATM   11  C14 UNL     1      25.361   1.076  52.929  1.00  0.00     0.022 A 
HETATM   12  C6  UNL     1      27.392   0.635  54.532  1.00  0.00     0.128 A 
HETATM   13  C7  UNL     1      27.516   1.643  53.605  1.00  0.00     0.014 A 
HETATM   14  C9  UNL     1      26.457   1.887  52.755  1.00  0.00     0.050 A 
HETATM   15  C15 UNL     1      24.316   1.322  52.085  1.00  0.00     0.048 A 
BRANCH   7  16
HETATM   16  O1  UNL     1      21.969  -1.310  53.338  1.00  0.00    -0.349 OA
BRANCH  16  17
HETATM   17  C2  UNL     1      20.968  -1.179  54.281  1.00  0.00     0.171 C 
HETATM   18  C1  UNL     1      20.705   0.197  54.799  1.00  0.00     0.034 C 
ENDBRANCH  16  17
ENDBRANCH   7  16
BRANCH  13  19
HETATM   19  C8  UNL     1      28.770   2.445  53.530  1.00  0.00     0.309 C 
BRANCH  19  20
HETATM   20  N2  UNL     1      29.595   2.138  54.675  1.00  0.00     0.082 N 
HETATM   21  H10 UNL     1      29.285   1.250  55.135  1.00  0.00     0.313 HD
HETATM   22  H11 UNL     1      30.584   2.057  54.356  1.00  0.00     0.313 HD
ENDBRANCH  19  20
ENDBRANCH  13  19
BRANCH  14  23
HETATM   23  N3  UNL     1      26.499   2.906  51.766  1.00  0.00    -0.385 N 
HETATM   24  H12 UNL     1      26.461   3.725  52.437  1.00  0.00     0.160 HD
BRANCH  23  25
HETATM   25  C10 UNL     1      26.570   3.066  50.347  1.00  0.00     0.148 C 
BRANCH  25  26
HETATM   26  C11 UNL     1      25.895   4.341  49.985  1.00  0.00     0.014 C 
HETATM   27  C12 UNL     1      26.302   5.339  49.218  1.00  0.00     0.038 C 
HETATM   28 CL1  UNL     1      27.879   5.233  48.463  1.00  0.00    -0.087 Cl
BRANCH  27  29
HETATM   29  C13 UNL     1      25.390   6.478  49.055  1.00  0.00     0.273 C 
HETATM   30  F1  UNL     1      25.229   6.785  47.731  1.00  0.00    -0.250 F 
ENDBRANCH  27  29
ENDBRANCH  25  26
ENDBRANCH  23  25
ENDBRANCH  14  23
ENDBRANCH   4   6
ENDBRANCH   1   4
TORSDOF 10
ENDMDL
MODEL 2
REMARK VINA RESULT:      -7.1      3.539      6.165
REMARK  10 active torsions:
REMARK  status: ('A' for Active; 'I' for Inactive)
REMARK    1  A    between atoms: C2_2  and  O1_3 
REMARK    2  A    between atoms: O1_3  and  C3_4 
REMARK    3  A    between atoms: C7_9  and  C8_10 
REMARK    4  A    between atoms: C8_10  and  N2_11 
REMARK    5  A    between atoms: C9_12  and  N3_13 
REMARK    6  A    between atoms: N3_13  and  C10_14 
REMARK    7  A    between atoms: C10_14  and  C11_15 
REMARK    8  A    between atoms: C12_16  and  C13_18 
REMARK    9  A    between atoms: C16_22  and  N4_23 
REMARK   10  A    between atoms: N4_23  and  C17_24 
ROOT
HETATM    1  C17 UNL     1      24.580  -1.153  55.319  1.00  0.00     0.156 C 
HETATM    2  C18 UNL     1      23.120  -1.519  55.362  1.00  0.00     0.410 C 
HETATM    3  O2  UNL     1      21.941  -1.772  55.351  1.00  0.00    -0.428 OA
ENDROOT
BRANCH   1   4
HETATM    4  N4  UNL     1      24.861  -0.189  54.339  1.00  0.00    -0.385 N 
HETATM    5  H19 UNL     1      23.801  -0.037  54.303  1.00  0.00     0.159 HD
BRANCH   4   6
HETATM    6  C16 UNL     1      25.138   0.783  53.350  1.00  0.00     0.062 A 
HETATM    7  C3  UNL     1      26.459   0.489  52.949  1.00  0.00     0.097 A 
HETATM    8  C4  UNL     1      27.075   1.269  51.956  1.00  0.00     0.071 A 
HETATM    9  C5  UNL     1      26.298   2.285  51.451  1.00  0.00     0.071 A 
HETATM   10  N1  UNL     1      26.785   3.082  50.507  1.00  0.00    -0.260 NA
HETATM   11  C14 UNL     1      25.014   2.582  51.832  1.00  0.00     0.022 A 
HETATM   12  C6  UNL     1      26.083   4.092  49.969  1.00  0.00     0.128 A 
HETATM   13  C7  UNL     1      24.796   4.376  50.361  1.00  0.00     0.014 A 
HETATM   14  C9  UNL     1      24.220   3.592  51.340  1.00  0.00     0.050 A 
HETATM   15  C15 UNL     1      24.438   1.810  52.798  1.00  0.00     0.048 A 
BRANCH   7  16
HETATM   16  O1  UNL     1      27.302  -0.519  53.413  1.00  0.00    -0.349 OA
BRANCH  16  17
HETATM   17  C2  UNL     1      28.520  -0.376  54.049  1.00  0.00     0.171 C 
HETATM   18  C1  UNL     1      29.670  -1.143  53.483  1.00  0.00     0.034 C 
ENDBRANCH  16  17
ENDBRANCH   7  16
BRANCH  13  19
HETATM   19  C8  UNL     1      24.053   5.507  49.738  1.00  0.00     0.309 C 
BRANCH  19  20
HETATM   20  N2  UNL     1      23.487   5.065  48.485  1.00  0.00     0.082 N 
HETATM   21  H10 UNL     1      22.963   4.167  48.605  1.00  0.00     0.313 HD
HETATM   22  H11 UNL     1      22.854   5.812  48.128  1.00  0.00     0.313 HD
ENDBRANCH  19  20
ENDBRANCH  13  19
BRANCH  14  23
HETATM   23  N3  UNL     1      22.895   3.811  51.804  1.00  0.00    -0.385 N 
HETATM   24  H12 UNL     1      23.164   4.245  52.732  1.00  0.00     0.160 HD
BRANCH  23  25
HETATM   25  C10 UNL     1      21.537   3.625  51.397  1.00  0.00     0.148 C 
BRANCH  25  26
HETATM   26  C11 UNL     1      20.930   2.575  52.257  1.00  0.00     0.014 C 
HETATM   27  C12 UNL     1      20.868   1.264  52.095  1.00  0.00     0.038 C 
HETATM   28 CL1  UNL     1      21.592   0.556  50.665  1.00  0.00    -0.087 Cl
BRANCH  27  29
HETATM   29  C13 UNL     1      20.188   0.487  53.139  1.00  0.00     0.273 C 
HETATM   30  F1  UNL     1      20.615   0.867  54.383  1.00  0.00    -0.250 F 
ENDBRANCH  27  29
ENDBRANCH  25  26
ENDBRANCH  23  25
ENDBRANCH  14  23
ENDBRANCH   4   6
ENDBRANCH   1   4
TORSDOF 10
ENDMDL
MODEL 3
REMARK VINA RESULT:      -7.1      2.802      4.897
REMARK  10 active torsions:
REMARK  status: ('A' for Active; 'I' for Inactive)
REMARK    1  A    between atoms: C2_2  and  O1_3 
REMARK    2  A    between atoms: O1_3  and  C3_4 
REMARK    3  A    between atoms: C7_9  and  C8_10 
REMARK    4  A    between atoms: C8_10  and  N2_11 
REMARK    5  A    between atoms: C9_12  and  N3_13 
REMARK    6  A    between atoms: N3_13  and  C10_14 
REMARK    7  A    between atoms: C10_14  and  C11_15 
REMARK    8  A    between atoms: C12_16  and  C13_18 
REMARK    9  A    between atoms: C16_22  and  N4_23 
REMARK   10  A    between atoms: N4_23  and  C17_24 
ROOT
HETATM    1  C17 UNL     1      26.895  -0.888  52.444  1.00  0.00     0.156 C 
HETATM    2  C18 UNL     1      27.865  -0.704  53.582  1.00  0.00     0.410 C 
HETATM    3  O2  UNL     1      28.617  -0.501  54.502  1.00  0.00    -0.428 OA
ENDROOT
BRANCH   1   4
HETATM    4  N4  UNL     1      26.054   0.221  52.275  1.00  0.00    -0.385 N 
HETATM    5  H19 UNL     1      25.252  -0.460  52.478  1.00  0.00     0.159 HD
BRANCH   4   6
HETATM    6  C16 UNL     1      25.201   1.336  52.104  1.00  0.00     0.062 A 
HETATM    7  C3  UNL     1      23.987   0.925  52.698  1.00  0.00     0.097 A 
HETATM    8  C4  UNL     1      22.889   1.802  52.715  1.00  0.00     0.071 A 
HETATM    9  C5  UNL     1      23.113   3.025  52.128  1.00  0.00     0.071 A 
HETATM   10  N1  UNL     1      22.139   3.928  52.090  1.00  0.00    -0.260 NA
HETATM   11  C14 UNL     1      24.286   3.437  51.547  1.00  0.00     0.022 A 
HETATM   12  C6  UNL     1      22.289   5.140  51.534  1.00  0.00     0.128 A 
HETATM   13  C7  UNL     1      23.472   5.538  50.956  1.00  0.00     0.014 A 
HETATM   14  C9  UNL     1      24.531   4.653  50.955  1.00  0.00     0.050 A 
HETATM   15  C15 UNL     1      25.338   2.566  51.543  1.00  0.00     0.048 A 
BRANCH   7  16
HETATM   16  O1  UNL     1      23.689  -0.291  53.310  1.00  0.00    -0.349 OA
BRANCH  16  17
HETATM   17  C2  UNL     1      22.472  -0.945  53.343  1.00  0.00     0.171 C 
HETATM   18  C1  UNL     1      21.877  -1.194  54.690  1.00  0.00     0.034 C 
ENDBRANCH  16  17
ENDBRANCH   7  16
BRANCH  13  19
HETATM   19  C8  UNL     1      23.594   6.893  50.350  1.00  0.00     0.309 C 
BRANCH  19  20
HETATM   20  N2  UNL     1      24.012   7.829  51.367  1.00  0.00     0.082 N 
HETATM   21  H10 UNL     1      23.813   8.814  51.076  1.00  0.00     0.313 HD
HETATM   22  H11 UNL     1      23.509   7.601  52.252  1.00  0.00     0.313 HD
ENDBRANCH  19  20
ENDBRANCH  13  19
BRANCH  14  23
HETATM   23  N3  UNL     1      25.791   4.981  50.384  1.00  0.00    -0.385 N 
HETATM   24  H12 UNL     1      26.168   5.504  51.224  1.00  0.00     0.160 HD
BRANCH  23  25
HETATM   25  C10 UNL     1      26.535   4.805  49.178  1.00  0.00     0.148 C 
BRANCH  25  26
HETATM   26  C11 UNL     1      26.920   6.147  48.665  1.00  0.00     0.014 C 
HETATM   27  C12 UNL     1      28.060   6.573  48.146  1.00  0.00     0.038 C 
HETATM   28 CL1  UNL     1      29.391   5.444  47.998  1.00  0.00    -0.087 Cl
BRANCH  27  29
HETATM   29  C13 UNL     1      28.127   7.979  47.729  1.00  0.00     0.273 C 
HETATM   30  F1  UNL     1      29.414   8.334  47.426  1.00  0.00    -0.250 F 
ENDBRANCH  27  29
ENDBRANCH  25  26
ENDBRANCH  23  25
ENDBRANCH  14  23
ENDBRANCH   4   6
ENDBRANCH   1   4
TORSDOF 10
ENDMDL
MODEL 4
REMARK VINA RESULT:      -7.1      3.306      5.542
REMARK  10 active torsions:
REMARK  status: ('A' for Active; 'I' for Inactive)
REMARK    1  A    between atoms: C2_2  and  O1_3 
REMARK    2  A    between atoms: O1_3  and  C3_4 
REMARK    3  A    between atoms: C7_9  and  C8_10 
REMARK    4  A    between atoms: C8_10  and  N2_11 
REMARK    5  A    between atoms: C9_12  and  N3_13 
REMARK    6  A    between atoms: N3_13  and  C10_14 
REMARK    7  A    between atoms: C10_14  and  C11_15 
REMARK    8  A    between atoms: C12_16  and  C13_18 
REMARK    9  A    between atoms: C16_22  and  N4_23 
REMARK   10  A    between atoms: N4_23  and  C17_24 
ROOT
HETATM    1  C17 UNL     1      21.091  -1.169  53.965  1.00  0.00     0.156 C 
HETATM    2  C18 UNL     1      22.096  -1.566  55.014  1.00  0.00     0.410 C 
HETATM    3  O2  UNL     1      22.941  -1.849  55.826  1.00  0.00    -0.428 OA
ENDROOT
BRANCH   1   4
HETATM    4  N4  UNL     1      21.627  -0.284  53.020  1.00  0.00    -0.385 N 
HETATM    5  H19 UNL     1      21.725   0.400  53.839  1.00  0.00     0.159 HD
BRANCH   4   6
HETATM    6  C16 UNL     1      22.168   0.615  52.071  1.00  0.00     0.062 A 
HETATM    7  C3  UNL     1      21.158   0.717  51.088  1.00  0.00     0.097 A 
HETATM    8  C4  UNL     1      21.356   1.545  49.971  1.00  0.00     0.071 A 
HETATM    9  C5  UNL     1      22.562   2.203  49.942  1.00  0.00     0.071 A 
HETATM   10  N1  UNL     1      22.849   3.012  48.928  1.00  0.00    -0.260 NA
HETATM   11  C14 UNL     1      23.552   2.113  50.888  1.00  0.00     0.022 A 
HETATM   12  C6  UNL     1      24.006   3.686  48.836  1.00  0.00     0.128 A 
HETATM   13  C7  UNL     1      24.988   3.585  49.793  1.00  0.00     0.014 A 
HETATM   14  C9  UNL     1      24.764   2.762  50.878  1.00  0.00     0.050 A 
HETATM   15  C15 UNL     1      23.336   1.302  51.964  1.00  0.00     0.048 A 
BRANCH   7  16
HETATM   16  O1  UNL     1      19.917   0.083  51.053  1.00  0.00    -0.349 OA
BRANCH  16  17
HETATM   17  C2  UNL     1      18.673   0.652  51.242  1.00  0.00     0.171 C 
HETATM   18  C1  UNL     1      17.692  -0.128  52.054  1.00  0.00     0.034 C 
ENDBRANCH  16  17
ENDBRANCH   7  16
BRANCH  13  19
HETATM   19  C8  UNL     1      26.258   4.351  49.651  1.00  0.00     0.309 C 
BRANCH  19  20
HETATM   20  N2  UNL     1      26.042   5.708  50.095  1.00  0.00     0.082 N 
HETATM   21  H10 UNL     1      25.576   6.278  49.351  1.00  0.00     0.313 HD
HETATM   22  H11 UNL     1      25.455   5.683  50.957  1.00  0.00     0.313 HD
ENDBRANCH  19  20
ENDBRANCH  13  19
BRANCH  14  23
HETATM   23  N3  UNL     1      25.721   2.601  51.917  1.00  0.00    -0.385 N 
HETATM   24  H12 UNL     1      25.228   3.213  52.628  1.00  0.00     0.160 HD
BRANCH  23  25
HETATM   25  C10 UNL     1      26.956   1.935  52.187  1.00  0.00     0.148 C 
BRANCH  25  26
HETATM   26  C11 UNL     1      26.704   0.469  52.201  1.00  0.00     0.014 C 
HETATM   27  C12 UNL     1      27.417  -0.518  52.717  1.00  0.00     0.038 C 
HETATM   28 CL1  UNL     1      28.918  -0.137  53.534  1.00  0.00    -0.087 Cl
BRANCH  27  29
HETATM   29  C13 UNL     1      26.892  -1.881  52.562  1.00  0.00     0.273 C 
HETATM   30  F1  UNL     1      27.887  -2.806  52.732  1.00  0.00    -0.250 F 
ENDBRANCH  27  29
ENDBRANCH  25  26
ENDBRANCH  23  25
ENDBRANCH  14  23
ENDBRANCH   4   6
ENDBRANCH   1   4
TORSDOF 10
ENDMDL
MODEL 5
REMARK VINA RESULT:      -6.9      3.312      6.409
REMARK  10 active torsions:
REMARK  status: ('A' for Active; 'I' for Inactive)
REMARK    1  A    between atoms: C2_2  and  O1_3 
REMARK    2  A    between atoms: O1_3  and  C3_4 
REMARK    3  A    between atoms: C7_9  and  C8_10 
REMARK    4  A    between atoms: C8_10  and  N2_11 
REMARK    5  A    between atoms: C9_12  and  N3_13 
REMARK    6  A    between atoms: N3_13  and  C10_14 
REMARK    7  A    between atoms: C10_14  and  C11_15 
REMARK    8  A    between atoms: C12_16  and  C13_18 
REMARK    9  A    between atoms: C16_22  and  N4_23 
REMARK   10  A    between atoms: N4_23  and  C17_24 
ROOT
HETATM    1  C17 UNL     1      27.159   4.359  49.190  1.00  0.00     0.156 C 
HETATM    2  C18 UNL     1      26.664   5.722  48.780  1.00  0.00     0.410 C 
HETATM    3  O2  UNL     1      26.214   6.798  48.476  1.00  0.00    -0.428 OA
ENDROOT
BRANCH   1   4
HETATM    4  N4  UNL     1      26.176   3.611  49.854  1.00  0.00    -0.385 N 
HETATM    5  H19 UNL     1      25.517   4.422  49.617  1.00  0.00     0.159 HD
BRANCH   4   6
HETATM    6  C16 UNL     1      25.180   2.862  50.523  1.00  0.00     0.062 A 
HETATM    7  C3  UNL     1      23.983   3.236  49.874  1.00  0.00     0.097 A 
HETATM    8  C4  UNL     1      22.764   2.674  50.285  1.00  0.00     0.071 A 
HETATM    9  C5  UNL     1      22.858   1.776  51.323  1.00  0.00     0.071 A 
HETATM   10  N1  UNL     1      21.763   1.186  51.788  1.00  0.00    -0.260 NA
HETATM   11  C14 UNL     1      24.013   1.404  51.962  1.00  0.00     0.022 A 
HETATM   12  C6  UNL     1      21.782   0.301  52.796  1.00  0.00     0.128 A 
HETATM   13  C7  UNL     1      22.949  -0.063  53.426  1.00  0.00     0.014 A 
HETATM   14  C9  UNL     1      24.130   0.509  52.999  1.00  0.00     0.050 A 
HETATM   15  C15 UNL     1      25.186   1.965  51.544  1.00  0.00     0.048 A 
BRANCH   7  16
HETATM   16  O1  UNL     1      23.812   4.134  48.822  1.00  0.00    -0.349 OA
BRANCH  16  17
HETATM   17  C2  UNL     1      22.803   5.063  48.659  1.00  0.00     0.171 C 
HETATM   18  C1  UNL     1      22.891   5.952  47.463  1.00  0.00     0.034 C 
ENDBRANCH  16  17
ENDBRANCH   7  16
BRANCH  13  19
HETATM   19  C8  UNL     1      22.925  -1.050  54.542  1.00  0.00     0.309 C 
BRANCH  19  20
HETATM   20  N2  UNL     1      21.569  -1.508  54.737  1.00  0.00     0.082 N 
HETATM   21  H10 UNL     1      21.078  -1.629  53.821  1.00  0.00     0.313 HD
HETATM   22  H11 UNL     1      21.598  -2.411  55.258  1.00  0.00     0.313 HD
ENDBRANCH  19  20
ENDBRANCH  13  19
BRANCH  14  23
HETATM   23  N3  UNL     1      25.383   0.190  53.590  1.00  0.00    -0.385 N 
HETATM   24  H12 UNL     1      25.624  -0.606  52.933  1.00  0.00     0.160 HD
BRANCH  23  25
HETATM   25  C10 UNL     1      26.239   0.605  54.656  1.00  0.00     0.148 C 
BRANCH  25  26
HETATM   26  C11 UNL     1      27.621   0.145  54.353  1.00  0.00     0.014 C 
HETATM   27  C12 UNL     1      28.638   0.787  53.803  1.00  0.00     0.038 C 
HETATM   28 CL1  UNL     1      28.418   2.456  53.318  1.00  0.00    -0.087 Cl
BRANCH  27  29
HETATM   29  C13 UNL     1      29.892   0.044  53.635  1.00  0.00     0.273 C 
HETATM   30  F1  UNL     1      29.687  -1.097  52.908  1.00  0.00    -0.250 F 
ENDBRANCH  27  29
ENDBRANCH  25  26
ENDBRANCH  23  25
ENDBRANCH  14  23
ENDBRANCH   4   6
ENDBRANCH   1   4
TORSDOF 10
ENDMDL
MODEL 6
REMARK VINA RESULT:      -6.9      2.884      5.988
REMARK  10 active torsions:
REMARK  status: ('A' for Active; 'I' for Inactive)
REMARK    1  A    between atoms: C2_2  and  O1_3 
REMARK    2  A    between atoms: O1_3  and  C3_4 
REMARK    3  A    between atoms: C7_9  and  C8_10 
REMARK    4  A    between atoms: C8_10  and  N2_11 
REMARK    5  A    between atoms: C9_12  and  N3_13 
REMARK    6  A    between atoms: N3_13  and  C10_14 
REMARK    7  A    between atoms: C10_14  and  C11_15 
REMARK    8  A    between atoms: C12_16  and  C13_18 
REMARK    9  A    between atoms: C16_22  and  N4_23 
REMARK   10  A    between atoms: N4_23  and  C17_24 
ROOT
HETATM    1  C17 UNL     1      26.395   2.927  50.654  1.00  0.00     0.156 C 
HETATM    2  C18 UNL     1      25.768   4.085  49.924  1.00  0.00     0.410 C 
HETATM    3  O2  UNL     1      25.212   4.994  49.359  1.00  0.00    -0.428 OA
ENDROOT
BRANCH   1   4
HETATM    4  N4  UNL     1      25.447   2.146  51.330  1.00  0.00    -0.385 N 
HETATM    5  H19 UNL     1      25.576   1.445  50.530  1.00  0.00     0.159 HD
BRANCH   4   6
HETATM    6  C16 UNL     1      24.490   1.354  52.007  1.00  0.00     0.062 A 
HETATM    7  C3  UNL     1      25.260   0.609  52.928  1.00  0.00     0.097 A 
HETATM    8  C4  UNL     1      24.625  -0.302  53.788  1.00  0.00     0.071 A 
HETATM    9  C5  UNL     1      23.260  -0.382  53.645  1.00  0.00     0.071 A 
HETATM   10  N1  UNL     1      22.563  -1.214  54.412  1.00  0.00    -0.260 NA
HETATM   11  C14 UNL     1      22.500   0.335  52.756  1.00  0.00     0.022 A 
HETATM   12  C6  UNL     1      21.230  -1.342  54.326  1.00  0.00     0.128 A 
HETATM   13  C7  UNL     1      20.482  -0.615  53.429  1.00  0.00     0.014 A 
HETATM   14  C9  UNL     1      21.136   0.271  52.597  1.00  0.00     0.050 A 
HETATM   15  C15 UNL     1      23.140   1.213  51.930  1.00  0.00     0.048 A 
BRANCH   7  16
HETATM   16  O1  UNL     1      26.639   0.638  53.128  1.00  0.00    -0.349 OA
BRANCH  16  17
HETATM   17  C2  UNL     1      27.542  -0.390  52.939  1.00  0.00     0.171 C 
HETATM   18  C1  UNL     1      28.664  -0.490  53.919  1.00  0.00     0.034 C 
ENDBRANCH  16  17
ENDBRANCH   7  16
BRANCH  13  19
HETATM   19  C8  UNL     1      19.004  -0.788  53.368  1.00  0.00     0.309 C 
BRANCH  19  20
HETATM   20  N2  UNL     1      18.653  -2.054  53.967  1.00  0.00     0.082 N 
HETATM   21  H10 UNL     1      18.769  -2.024  55.006  1.00  0.00     0.313 HD
HETATM   22  H11 UNL     1      17.664  -2.274  53.717  1.00  0.00     0.313 HD
ENDBRANCH  19  20
ENDBRANCH  13  19
BRANCH  14  23
HETATM   23  N3  UNL     1      20.444   1.065  51.643  1.00  0.00    -0.385 N 
HETATM   24  H12 UNL     1      20.538   1.984  52.163  1.00  0.00     0.160 HD
BRANCH  23  25
HETATM   25  C10 UNL     1      19.777   0.949  50.384  1.00  0.00     0.148 C 
BRANCH  25  26
HETATM   26  C11 UNL     1      20.777   1.166  49.304  1.00  0.00     0.014 C 
HETATM   27  C12 UNL     1      21.214   2.286  48.753  1.00  0.00     0.038 C 
HETATM   28 CL1  UNL     1      20.571   3.813  49.322  1.00  0.00    -0.087 Cl
BRANCH  27  29
HETATM   29  C13 UNL     1      22.219   2.166  47.690  1.00  0.00     0.273 C 
HETATM   30  F1  UNL     1      23.456   2.535  48.147  1.00  0.00    -0.250 F 
ENDBRANCH  27  29
ENDBRANCH  25  26
ENDBRANCH  23  25
ENDBRANCH  14  23
ENDBRANCH   4   6
ENDBRANCH   1   4
TORSDOF 10
ENDMDL
MODEL 7
REMARK VINA RESULT:      -6.8      3.066      6.175
REMARK  10 active torsions:
REMARK  status: ('A' for Active; 'I' for Inactive)
REMARK    1  A    between atoms: C2_2  and  O1_3 
REMARK    2  A    between atoms: O1_3  and  C3_4 
REMARK    3  A    between atoms: C7_9  and  C8_10 
REMARK    4  A    between atoms: C8_10  and  N2_11 
REMARK    5  A    between atoms: C9_12  and  N3_13 
REMARK    6  A    between atoms: N3_13  and  C10_14 
REMARK    7  A    between atoms: C10_14  and  C11_15 
REMARK    8  A    between atoms: C12_16  and  C13_18 
REMARK    9  A    between atoms: C16_22  and  N4_23 
REMARK   10  A    between atoms: N4_23  and  C17_24 
ROOT
HETATM    1  C17 UNL     1      27.146   2.381  52.226  1.00  0.00     0.156 C 
HETATM    2  C18 UNL     1      28.157   2.486  53.339  1.00  0.00     0.410 C 
HETATM    3  O2  UNL     1      28.928   2.538  54.264  1.00  0.00    -0.428 OA
ENDROOT
BRANCH   1   4
HETATM    4  N4  UNL     1      26.005   1.663  52.608  1.00  0.00    -0.385 N 
HETATM    5  H19 UNL     1      25.768   1.646  51.563  1.00  0.00     0.159 HD
BRANCH   4   6
HETATM    6  C16 UNL     1      24.851   0.938  52.987  1.00  0.00     0.062 A 
HETATM    7  C3  UNL     1      25.365  -0.158  53.715  1.00  0.00     0.097 A 
HETATM    8  C4  UNL     1      24.483  -1.108  54.257  1.00  0.00     0.071 A 
HETATM    9  C5  UNL     1      23.151  -0.867  54.017  1.00  0.00     0.071 A 
HETATM   10  N1  UNL     1      22.234  -1.706  54.486  1.00  0.00    -0.260 NA
HETATM   11  C14 UNL     1      22.638   0.192  53.312  1.00  0.00     0.022 A 
HETATM   12  C6  UNL     1      20.917  -1.532  54.290  1.00  0.00     0.128 A 
HETATM   13  C7  UNL     1      20.419  -0.464  53.582  1.00  0.00     0.014 A 
HETATM   14  C9  UNL     1      21.311   0.451  53.061  1.00  0.00     0.050 A 
HETATM   15  C15 UNL     1      23.515   1.101  52.795  1.00  0.00     0.048 A 
BRANCH   7  16
HETATM   16  O1  UNL     1      26.695  -0.464  53.997  1.00  0.00    -0.349 OA
BRANCH  16  17
HETATM   17  C2  UNL     1      27.557  -1.247  53.255  1.00  0.00     0.171 C 
HETATM   18  C1  UNL     1      29.018  -1.077  53.517  1.00  0.00     0.034 C 
ENDBRANCH  16  17
ENDBRANCH   7  16
BRANCH  13  19
HETATM   19  C8  UNL     1      18.950  -0.310  53.388  1.00  0.00     0.309 C 
BRANCH  19  20
HETATM   20  N2  UNL     1      18.291  -1.533  53.783  1.00  0.00     0.082 N 
HETATM   21  H10 UNL     1      17.428  -1.332  54.339  1.00  0.00     0.313 HD
HETATM   22  H11 UNL     1      18.054  -2.072  52.922  1.00  0.00     0.313 HD
ENDBRANCH  19  20
ENDBRANCH  13  19
BRANCH  14  23
HETATM   23  N3  UNL     1      20.885   1.586  52.319  1.00  0.00    -0.385 N 
HETATM   24  H12 UNL     1      21.022   2.293  53.096  1.00  0.00     0.160 HD
BRANCH  23  25
HETATM   25  C10 UNL     1      20.409   1.941  51.019  1.00  0.00     0.148 C 
BRANCH  25  26
HETATM   26  C11 UNL     1      21.375   2.893  50.410  1.00  0.00     0.014 C 
HETATM   27  C12 UNL     1      22.087   2.799  49.299  1.00  0.00     0.038 C 
HETATM   28 CL1  UNL     1      21.934   1.355  48.320  1.00  0.00    -0.087 Cl
BRANCH  27  29
HETATM   29  C13 UNL     1      22.966   3.926  48.965  1.00  0.00     0.273 C 
HETATM   30  F1  UNL     1      24.249   3.496  48.758  1.00  0.00    -0.250 F 
ENDBRANCH  27  29
ENDBRANCH  25  26
ENDBRANCH  23  25
ENDBRANCH  14  23
ENDBRANCH   4   6
ENDBRANCH   1   4
TORSDOF 10
ENDMDL
MODEL 8
REMARK VINA RESULT:      -6.7      3.808      6.560
REMARK  10 active torsions:
REMARK  status: ('A' for Active; 'I' for Inactive)
REMARK    1  A    between atoms: C2_2  and  O1_3 
REMARK    2  A    between atoms: O1_3  and  C3_4 
REMARK    3  A    between atoms: C7_9  and  C8_10 
REMARK    4  A    between atoms: C8_10  and  N2_11 
REMARK    5  A    between atoms: C9_12  and  N3_13 
REMARK    6  A    between atoms: N3_13  and  C10_14 
REMARK    7  A    between atoms: C10_14  and  C11_15 
REMARK    8  A    between atoms: C12_16  and  C13_18 
REMARK    9  A    between atoms: C16_22  and  N4_23 
REMARK   10  A    between atoms: N4_23  and  C17_24 
ROOT
HETATM    1  C17 UNL     1      25.497   5.545  49.300  1.00  0.00     0.156 C 
HETATM    2  C18 UNL     1      26.846   4.980  48.939  1.00  0.00     0.410 C 
HETATM    3  O2  UNL     1      27.910   4.476  48.680  1.00  0.00    -0.428 OA
ENDROOT
BRANCH   1   4
HETATM    4  N4  UNL     1      24.730   4.652  50.061  1.00  0.00    -0.385 N 
HETATM    5  H19 UNL     1      24.642   5.455  50.765  1.00  0.00     0.159 HD
BRANCH   4   6
HETATM    6  C16 UNL     1      23.956   3.755  50.833  1.00  0.00     0.062 A 
HETATM    7  C3  UNL     1      22.632   4.218  50.663  1.00  0.00     0.097 A 
HETATM    8  C4  UNL     1      21.574   3.550  51.300  1.00  0.00     0.071 A 
HETATM    9  C5  UNL     1      21.944   2.464  52.058  1.00  0.00     0.071 A 
HETATM   10  N1  UNL     1      21.019   1.761  52.702  1.00  0.00    -0.260 NA
HETATM   11  C14 UNL     1      23.225   2.003  52.232  1.00  0.00     0.022 A 
HETATM   12  C6  UNL     1      21.310   0.691  53.458  1.00  0.00     0.128 A 
HETATM   13  C7  UNL     1      22.599   0.241  53.622  1.00  0.00     0.014 A 
HETATM   14  C9  UNL     1      23.617   0.921  52.984  1.00  0.00     0.050 A 
HETATM   15  C15 UNL     1      24.236   2.670  51.603  1.00  0.00     0.048 A 
BRANCH   7  16
HETATM   16  O1  UNL     1      22.184   5.305  49.914  1.00  0.00    -0.349 OA
BRANCH  16  17
HETATM   17  C2  UNL     1      21.651   6.491  50.381  1.00  0.00     0.171 C 
HETATM   18  C1  UNL     1      22.601   7.628  50.570  1.00  0.00     0.034 C 
ENDBRANCH  16  17
ENDBRANCH   7  16
BRANCH  13  19
HETATM   19  C8  UNL     1      22.876  -0.952  54.470  1.00  0.00     0.309 C 
BRANCH  19  20
HETATM   20  N2  UNL     1      21.633  -1.629  54.753  1.00  0.00     0.082 N 
HETATM   21  H10 UNL     1      21.547  -2.506  54.189  1.00  0.00     0.313 HD
HETATM   22  H11 UNL     1      21.600  -1.846  55.772  1.00  0.00     0.313 HD
ENDBRANCH  19  20
ENDBRANCH  13  19
BRANCH  14  23
HETATM   23  N3  UNL     1      24.977   0.524  53.094  1.00  0.00    -0.385 N 
HETATM   24  H12 UNL     1      25.210   1.134  53.929  1.00  0.00     0.160 HD
BRANCH  23  25
HETATM   25  C10 UNL     1      25.930  -0.338  52.471  1.00  0.00     0.148 C 
BRANCH  25  26
HETATM   26  C11 UNL     1      27.244  -0.147  53.141  1.00  0.00     0.014 C 
HETATM   27  C12 UNL     1      28.232  -1.001  53.350  1.00  0.00     0.038 C 
HETATM   28 CL1  UNL     1      28.058  -2.648  52.781  1.00  0.00    -0.087 Cl
BRANCH  27  29
HETATM   29  C13 UNL     1      29.419  -0.499  54.054  1.00  0.00     0.273 C 
HETATM   30  F1  UNL     1      30.410  -0.178  53.166  1.00  0.00    -0.250 F 
ENDBRANCH  27  29
ENDBRANCH  25  26
ENDBRANCH  23  25
ENDBRANCH  14  23
ENDBRANCH   4   6
ENDBRANCH   1   4
TORSDOF 10
ENDMDL
MODEL 9
REMARK VINA RESULT:      -6.7      2.943      5.840
REMARK  10 active torsions:
REMARK  status: ('A' for Active; 'I' for Inactive)
REMARK    1  A    between atoms: C2_2  and  O1_3 
REMARK    2  A    between atoms: O1_3  and  C3_4 
REMARK    3  A    between atoms: C7_9  and  C8_10 
REMARK    4  A    between atoms: C8_10  and  N2_11 
REMARK    5  A    between atoms: C9_12  and  N3_13 
REMARK    6  A    between atoms: N3_13  and  C10_14 
REMARK    7  A    between atoms: C10_14  and  C11_15 
REMARK    8  A    between atoms: C12_16  and  C13_18 
REMARK    9  A    between atoms: C16_22  and  N4_23 
REMARK   10  A    between atoms: N4_23  and  C17_24 
ROOT
HETATM    1  C17 UNL     1      28.219   2.376  53.380  1.00  0.00     0.156 C 
HETATM    2  C18 UNL     1      28.791   1.272  54.230  1.00  0.00     0.410 C 
HETATM    3  O2  UNL     1      29.193   0.365  54.915  1.00  0.00    -0.428 OA
ENDROOT
BRANCH   1   4
HETATM    4  N4  UNL     1      26.842   2.226  53.165  1.00  0.00    -0.385 N 
HETATM    5  H19 UNL     1      27.011   1.184  53.350  1.00  0.00     0.159 HD
BRANCH   4   6
HETATM    6  C16 UNL     1      25.453   2.068  52.949  1.00  0.00     0.062 A 
HETATM    7  C3  UNL     1      25.239   0.684  53.132  1.00  0.00     0.097 A 
HETATM    8  C4  UNL     1      23.944   0.157  52.993  1.00  0.00     0.071 A 
HETATM    9  C5  UNL     1      22.972   1.078  52.680  1.00  0.00     0.071 A 
HETATM   10  N1  UNL     1      21.713   0.682  52.526  1.00  0.00    -0.260 NA
HETATM   11  C14 UNL     1      23.166   2.423  52.499  1.00  0.00     0.022 A 
HETATM   12  C6  UNL     1      20.715   1.526  52.221  1.00  0.00     0.128 A 
HETATM   13  C7  UNL     1      20.926   2.873  52.044  1.00  0.00     0.014 A 
HETATM   14  C9  UNL     1      22.209   3.360  52.186  1.00  0.00     0.050 A 
HETATM   15  C15 UNL     1      24.433   2.912  52.639  1.00  0.00     0.048 A 
BRANCH   7  16
HETATM   16  O1  UNL     1      26.170  -0.303  53.449  1.00  0.00    -0.349 OA
BRANCH  16  17
HETATM   17  C2  UNL     1      26.413  -1.484  52.775  1.00  0.00     0.171 C 
HETATM   18  C1  UNL     1      27.804  -2.022  52.837  1.00  0.00     0.034 C 
ENDBRANCH  16  17
ENDBRANCH   7  16
BRANCH  13  19
HETATM   19  C8  UNL     1      19.789   3.774  51.706  1.00  0.00     0.309 C 
BRANCH  19  20
HETATM   20  N2  UNL     1      18.567   3.005  51.688  1.00  0.00     0.082 N 
HETATM   21  H10 UNL     1      18.649   2.185  51.044  1.00  0.00     0.313 HD
HETATM   22  H11 UNL     1      18.364   2.687  52.660  1.00  0.00     0.313 HD
ENDBRANCH  19  20
ENDBRANCH  13  19
BRANCH  14  23
HETATM   23  N3  UNL     1      22.519   4.738  52.024  1.00  0.00    -0.385 N 
HETATM   24  H12 UNL     1      22.682   4.944  53.051  1.00  0.00     0.160 HD
BRANCH  23  25
HETATM   25  C10 UNL     1      22.644   5.729  51.003  1.00  0.00     0.148 C 
BRANCH  25  26
HETATM   26  C11 UNL     1      24.020   5.654  50.443  1.00  0.00     0.014 C 
HETATM   27  C12 UNL     1      24.529   4.853  49.522  1.00  0.00     0.038 C 
HETATM   28 CL1  UNL     1      23.490   3.651  48.784  1.00  0.00    -0.087 Cl
BRANCH  27  29
HETATM   29  C13 UNL     1      25.946   5.030  49.183  1.00  0.00     0.273 C 
HETATM   30  F1  UNL     1      26.566   3.818  49.038  1.00  0.00    -0.250 F 
ENDBRANCH  27  29
ENDBRANCH  25  26
ENDBRANCH  23  25
ENDBRANCH  14  23
ENDBRANCH   4   6
ENDBRANCH   1   4
TORSDOF 10
ENDMDL
