MODEL 1
REMARK VINA RESULT:      -8.8      0.000      0.000
REMARK  7 active torsions:
REMARK  status: ('A' for Active; 'I' for Inactive)
REMARK    1  A    between atoms: O1_2  and  C2_3 
REMARK    2  A    between atoms: C5_6  and  C6_7 
REMARK    3  A    between atoms: C7_8  and  C8_9 
REMARK    4  A    between atoms: C10_11  and  N1_12 
REMARK    5  A    between atoms: C14_17  and  C15_18 
REMARK    6  A    between atoms: C15_18  and  C16_19 
REMARK    7  A    between atoms: C16_19  and  C17_20 
ROOT
HETATM    1  C8  UNL     1      24.208   0.946  52.928  1.00  0.00    -0.034 C 
HETATM    2  C9  UNL     1      23.997   2.174  52.472  1.00  0.00     0.006 C 
HETATM    3  C10 UNL     1      24.489   3.168  53.158  1.00  0.00     0.015 C 
HETATM    4  C11 UNL     1      25.639   2.509  53.871  1.00  0.00     0.074 C 
HETATM    5  C12 UNL     1      25.642   1.179  53.200  1.00  0.00     0.019 C 
HETATM    6  C13 UNL     1      26.459   1.317  51.934  1.00  0.00     0.164 C 
HETATM    7  N2  UNL     1      27.795   1.054  52.416  1.00  0.00    -0.297 NA
HETATM    8  C14 UNL     1      27.756   0.370  53.496  1.00  0.00     0.012 C 
HETATM    9  C18 UNL     1      26.346   0.080  53.886  1.00  0.00     0.044 C 
HETATM   10  C19 UNL     1      26.154  -0.045  55.358  1.00  0.00     0.017 C 
ENDROOT
BRANCH   1  11
HETATM   11  C7  UNL     1      23.292  -0.177  53.076  1.00  0.00     0.010 C 
HETATM   12  C6  UNL     1      22.107  -0.624  52.743  1.00  0.00     0.012 C 
BRANCH  12  13
HETATM   13  C5  UNL     1      21.144   0.075  51.918  1.00  0.00    -0.036 A 
HETATM   14  C4  UNL     1      21.456   0.410  50.603  1.00  0.00     0.014 A 
HETATM   15  C3  UNL     1      20.556   1.075  49.798  1.00  0.00     0.037 A 
HETATM   16  C2  UNL     1      19.297   1.441  50.265  1.00  0.00     0.068 A 
HETATM   17  C21 UNL     1      18.966   1.120  51.566  1.00  0.00     0.037 A 
HETATM   18  C20 UNL     1      19.890   0.455  52.342  1.00  0.00     0.014 A 
BRANCH  16  19
HETATM   19  O1  UNL     1      18.469   2.107  49.371  1.00  0.00    -0.356 OA
HETATM   20  C1  UNL     1      18.424   3.511  49.409  1.00  0.00     0.210 C 
ENDBRANCH  16  19
ENDBRANCH  12  13
ENDBRANCH   1  11
BRANCH   3  21
HETATM   21  N1  UNL     1      23.809   4.425  52.995  1.00  0.00    -0.402 N 
HETATM   22  H8  UNL     1      24.232   5.013  53.760  1.00  0.00     0.156 HD
HETATM   23  H9  UNL     1      23.142   4.320  52.186  1.00  0.00     0.156 HD
ENDBRANCH   3  21
BRANCH   8  24
HETATM   24  C15 UNL     1      28.959  -0.090  54.283  1.00  0.00     0.061 C 
BRANCH  24  25
HETATM   25  C16 UNL     1      29.812  -0.948  53.373  1.00  0.00     0.076 C 
BRANCH  25  26
HETATM   26  C17 UNL     1      29.072  -2.222  53.170  1.00  0.00     0.117 A 
HETATM   27  O2  UNL     1      29.387  -3.281  53.797  1.00  0.00    -0.194 OA
HETATM   28  O3  UNL     1      28.265  -3.289  52.839  1.00  0.00     0.000 OA
HETATM   29  H18 UNL     1      27.688  -3.196  52.004  1.00  0.00     0.000 HD
ENDBRANCH  25  26
ENDBRANCH  24  25
ENDBRANCH   8  24
TORSDOF 7
ENDMDL
MODEL 2
REMARK VINA RESULT:      -8.4      1.659      2.032
REMARK  7 active torsions:
REMARK  status: ('A' for Active; 'I' for Inactive)
REMARK    1  A    between atoms: O1_2  and  C2_3 
REMARK    2  A    between atoms: C5_6  and  C6_7 
REMARK    3  A    between atoms: C7_8  and  C8_9 
REMARK    4  A    between atoms: C10_11  and  N1_12 
REMARK    5  A    between atoms: C14_17  and  C15_18 
REMARK    6  A    between atoms: C15_18  and  C16_19 
REMARK    7  A    between atoms: C16_19  and  C17_20 
ROOT
HETATM    1  C8  UNL     1      23.762   0.966  52.964  1.00  0.00    -0.034 C 
HETATM    2  C9  UNL     1      23.716   2.231  52.566  1.00  0.00     0.006 C 
HETATM    3  C10 UNL     1      24.486   3.087  53.176  1.00  0.00     0.015 C 
HETATM    4  C11 UNL     1      25.590   2.199  53.683  1.00  0.00     0.074 C 
HETATM    5  C12 UNL     1      25.239   0.922  53.002  1.00  0.00     0.019 C 
HETATM    6  C13 UNL     1      25.858   0.965  51.622  1.00  0.00     0.164 C 
HETATM    7  N2  UNL     1      27.180   0.442  51.876  1.00  0.00    -0.297 NA
HETATM    8  C14 UNL     1      27.184  -0.271  52.939  1.00  0.00     0.012 C 
HETATM    9  C18 UNL     1      25.824  -0.316  53.549  1.00  0.00     0.044 C 
HETATM   10  C19 UNL     1      25.845  -0.470  55.030  1.00  0.00     0.017 C 
ENDROOT
BRANCH   1  11
HETATM   11  C7  UNL     1      22.687   0.023  53.242  1.00  0.00     0.010 C 
HETATM   12  C6  UNL     1      21.479  -0.335  52.887  1.00  0.00     0.012 C 
BRANCH  12  13
HETATM   13  C5  UNL     1      20.689   0.282  51.841  1.00  0.00    -0.036 A 
HETATM   14  C4  UNL     1      19.361   0.630  52.076  1.00  0.00     0.014 A 
HETATM   15  C3  UNL     1      18.590   1.220  51.097  1.00  0.00     0.037 A 
HETATM   16  C2  UNL     1      19.104   1.491  49.832  1.00  0.00     0.068 A 
HETATM   17  C21 UNL     1      20.418   1.153  49.578  1.00  0.00     0.037 A 
HETATM   18  C20 UNL     1      21.159   0.566  50.579  1.00  0.00     0.014 A 
BRANCH  16  19
HETATM   19  O1  UNL     1      18.240   2.085  48.921  1.00  0.00    -0.356 OA
HETATM   20  C1  UNL     1      16.863   2.085  49.197  1.00  0.00     0.210 C 
ENDBRANCH  16  19
ENDBRANCH  12  13
ENDBRANCH   1  11
BRANCH   3  21
HETATM   21  N1  UNL     1      24.036   4.453  53.144  1.00  0.00    -0.402 N 
HETATM   22  H8  UNL     1      22.988   4.347  53.169  1.00  0.00     0.156 HD
HETATM   23  H9  UNL     1      24.891   5.067  53.110  1.00  0.00     0.156 HD
ENDBRANCH   3  21
BRANCH   8  24
HETATM   24  C15 UNL     1      28.388  -0.977  53.512  1.00  0.00     0.061 C 
BRANCH  24  25
HETATM   25  C16 UNL     1      29.586  -0.066  53.348  1.00  0.00     0.076 C 
BRANCH  25  26
HETATM   26  C17 UNL     1      29.277   1.183  54.093  1.00  0.00     0.117 A 
HETATM   27  O2  UNL     1      28.889   1.157  55.303  1.00  0.00    -0.194 OA
HETATM   28  O3  UNL     1      29.045   2.444  54.598  1.00  0.00     0.000 OA
HETATM   29  H18 UNL     1      28.978   3.210  53.929  1.00  0.00     0.000 HD
ENDBRANCH  25  26
ENDBRANCH  24  25
ENDBRANCH   8  24
TORSDOF 7
ENDMDL
MODEL 3
REMARK VINA RESULT:      -8.4      3.387      4.847
REMARK  7 active torsions:
REMARK  status: ('A' for Active; 'I' for Inactive)
REMARK    1  A    between atoms: O1_2  and  C2_3 
REMARK    2  A    between atoms: C5_6  and  C6_7 
REMARK    3  A    between atoms: C7_8  and  C8_9 
REMARK    4  A    between atoms: C10_11  and  N1_12 
REMARK    5  A    between atoms: C14_17  and  C15_18 
REMARK    6  A    between atoms: C15_18  and  C16_19 
REMARK    7  A    between atoms: C16_19  and  C17_20 
ROOT
HETATM    1  C8  UNL     1      23.571   1.308  52.056  1.00  0.00    -0.034 C 
HETATM    2  C9  UNL     1      22.823   0.878  53.064  1.00  0.00     0.006 C 
HETATM    3  C10 UNL     1      23.271  -0.126  53.765  1.00  0.00     0.015 C 
HETATM    4  C11 UNL     1      24.756  -0.013  53.549  1.00  0.00     0.074 C 
HETATM    5  C12 UNL     1      24.823   1.295  52.840  1.00  0.00     0.019 C 
HETATM    6  C13 UNL     1      24.857   2.377  53.898  1.00  0.00     0.164 C 
HETATM    7  N2  UNL     1      26.272   2.476  54.172  1.00  0.00    -0.297 NA
HETATM    8  C14 UNL     1      26.953   2.045  53.178  1.00  0.00     0.012 C 
HETATM    9  C18 UNL     1      26.053   1.587  52.081  1.00  0.00     0.044 C 
HETATM   10  C19 UNL     1      26.631   0.487  51.262  1.00  0.00     0.017 C 
ENDROOT
BRANCH   1  11
HETATM   11  C7  UNL     1      23.206   1.649  50.688  1.00  0.00     0.010 C 
HETATM   12  C6  UNL     1      23.327   2.565  49.760  1.00  0.00     0.012 C 
BRANCH  12  13
HETATM   13  C5  UNL     1      24.055   3.810  49.894  1.00  0.00    -0.036 A 
HETATM   14  C4  UNL     1      23.492   4.882  50.583  1.00  0.00     0.014 A 
HETATM   15  C3  UNL     1      24.165   6.078  50.724  1.00  0.00     0.037 A 
HETATM   16  C2  UNL     1      25.435   6.264  50.185  1.00  0.00     0.068 A 
HETATM   17  C21 UNL     1      26.011   5.215  49.499  1.00  0.00     0.037 A 
HETATM   18  C20 UNL     1      25.310   4.036  49.376  1.00  0.00     0.014 A 
BRANCH  16  19
HETATM   19  O1  UNL     1      26.022   7.507  50.386  1.00  0.00    -0.356 OA
HETATM   20  C1  UNL     1      26.801   8.060  49.358  1.00  0.00     0.210 C 
ENDBRANCH  16  19
ENDBRANCH  12  13
ENDBRANCH   1  11
BRANCH   3  21
HETATM   21  N1  UNL     1      22.265  -0.909  54.432  1.00  0.00    -0.402 N 
HETATM   22  H8  UNL     1      21.720  -1.313  53.626  1.00  0.00     0.156 HD
HETATM   23  H9  UNL     1      22.421  -0.807  55.468  1.00  0.00     0.156 HD
ENDBRANCH   3  21
BRANCH   8  24
HETATM   24  C15 UNL     1      28.460   1.995  53.107  1.00  0.00     0.061 C 
BRANCH  24  25
HETATM   25  C16 UNL     1      28.964   1.305  54.356  1.00  0.00     0.076 C 
BRANCH  25  26
HETATM   26  C17 UNL     1      28.901  -0.157  54.091  1.00  0.00     0.117 A 
HETATM   27  O2  UNL     1      27.918  -0.862  54.483  1.00  0.00    -0.194 OA
HETATM   28  O3  UNL     1      29.035  -1.484  53.745  1.00  0.00     0.000 OA
HETATM   29  H18 UNL     1      29.956  -1.797  53.442  1.00  0.00     0.000 HD
ENDBRANCH  25  26
ENDBRANCH  24  25
ENDBRANCH   8  24
TORSDOF 7
ENDMDL
MODEL 4
REMARK VINA RESULT:      -8.4      2.477      2.920
REMARK  7 active torsions:
REMARK  status: ('A' for Active; 'I' for Inactive)
REMARK    1  A    between atoms: O1_2  and  C2_3 
REMARK    2  A    between atoms: C5_6  and  C6_7 
REMARK    3  A    between atoms: C7_8  and  C8_9 
REMARK    4  A    between atoms: C10_11  and  N1_12 
REMARK    5  A    between atoms: C14_17  and  C15_18 
REMARK    6  A    between atoms: C15_18  and  C16_19 
REMARK    7  A    between atoms: C16_19  and  C17_20 
ROOT
HETATM    1  C8  UNL     1      23.557   1.847  52.037  1.00  0.00    -0.034 C 
HETATM    2  C9  UNL     1      23.592   3.173  52.063  1.00  0.00     0.006 C 
HETATM    3  C10 UNL     1      24.167   3.744  53.084  1.00  0.00     0.015 C 
HETATM    4  C11 UNL     1      25.120   2.672  53.537  1.00  0.00     0.074 C 
HETATM    5  C12 UNL     1      24.976   1.697  52.422  1.00  0.00     0.019 C 
HETATM    6  C13 UNL     1      25.924   2.126  51.324  1.00  0.00     0.164 C 
HETATM    7  N2  UNL     1      27.147   1.465  51.716  1.00  0.00    -0.297 NA
HETATM    8  C14 UNL     1      26.893   0.458  52.463  1.00  0.00     0.012 C 
HETATM    9  C18 UNL     1      25.424   0.315  52.673  1.00  0.00     0.044 C 
HETATM   10  C19 UNL     1      25.071  -0.293  53.986  1.00  0.00     0.017 C 
ENDROOT
BRANCH   1  11
HETATM   11  C7  UNL     1      22.463   0.936  51.727  1.00  0.00     0.010 C 
HETATM   12  C6  UNL     1      21.514   0.681  50.861  1.00  0.00     0.012 C 
BRANCH  12  13
HETATM   13  C5  UNL     1      21.238   1.447  49.663  1.00  0.00    -0.036 A 
HETATM   14  C4  UNL     1      22.237   1.652  48.715  1.00  0.00     0.014 A 
HETATM   15  C3  UNL     1      21.999   2.377  47.566  1.00  0.00     0.037 A 
HETATM   16  C2  UNL     1      20.750   2.935  47.306  1.00  0.00     0.068 A 
HETATM   17  C21 UNL     1      19.746   2.745  48.233  1.00  0.00     0.037 A 
HETATM   18  C20 UNL     1      20.020   2.015  49.369  1.00  0.00     0.014 A 
BRANCH  16  19
HETATM   19  O1  UNL     1      20.620   3.646  46.120  1.00  0.00    -0.356 OA
HETATM   20  C1  UNL     1      21.778   3.970  45.395  1.00  0.00     0.210 C 
ENDBRANCH  16  19
ENDBRANCH  12  13
ENDBRANCH   1  11
BRANCH   3  21
HETATM   21  N1  UNL     1      23.716   5.079  53.377  1.00  0.00    -0.402 N 
HETATM   22  H8  UNL     1      22.741   5.081  52.980  1.00  0.00     0.156 HD
HETATM   23  H9  UNL     1      24.501   5.574  53.876  1.00  0.00     0.156 HD
ENDBRANCH   3  21
BRANCH   8  24
HETATM   24  C15 UNL     1      27.924  -0.468  53.061  1.00  0.00     0.061 C 
BRANCH  24  25
HETATM   25  C16 UNL     1      28.439   0.166  54.335  1.00  0.00     0.076 C 
BRANCH  25  26
HETATM   26  C17 UNL     1      28.945   1.515  53.966  1.00  0.00     0.117 A 
HETATM   27  O2  UNL     1      29.413   2.312  54.839  1.00  0.00    -0.194 OA
HETATM   28  O3  UNL     1      29.359   2.711  53.419  1.00  0.00     0.000 OA
HETATM   29  H18 UNL     1      29.051   2.922  52.472  1.00  0.00     0.000 HD
ENDBRANCH  25  26
ENDBRANCH  24  25
ENDBRANCH   8  24
TORSDOF 7
ENDMDL
MODEL 5
REMARK VINA RESULT:      -8.1      2.130      2.826
REMARK  7 active torsions:
REMARK  status: ('A' for Active; 'I' for Inactive)
REMARK    1  A    between atoms: O1_2  and  C2_3 
REMARK    2  A    between atoms: C5_6  and  C6_7 
REMARK    3  A    between atoms: C7_8  and  C8_9 
REMARK    4  A    between atoms: C10_11  and  N1_12 
REMARK    5  A    between atoms: C14_17  and  C15_18 
REMARK    6  A    between atoms: C15_18  and  C16_19 
REMARK    7  A    between atoms: C16_19  and  C17_20 
ROOT
HETATM    1  C8  UNL     1      23.370   1.986  51.390  1.00  0.00    -0.034 C 
HETATM    2  C9  UNL     1      23.395   3.311  51.334  1.00  0.00     0.006 C 
HETATM    3  C10 UNL     1      23.628   3.960  52.441  1.00  0.00     0.015 C 
HETATM    4  C11 UNL     1      24.395   2.940  53.239  1.00  0.00     0.074 C 
HETATM    5  C12 UNL     1      24.601   1.890  52.202  1.00  0.00     0.019 C 
HETATM    6  C13 UNL     1      25.842   2.267  51.423  1.00  0.00     0.164 C 
HETATM    7  N2  UNL     1      26.883   1.658  52.216  1.00  0.00    -0.297 NA
HETATM    8  C14 UNL     1      26.411   0.697  52.917  1.00  0.00     0.012 C 
HETATM    9  C18 UNL     1      24.949   0.538  52.673  1.00  0.00     0.044 C 
HETATM   10  C19 UNL     1      24.208   0.009  53.852  1.00  0.00     0.017 C 
ENDROOT
BRANCH   1  11
HETATM   11  C7  UNL     1      22.424   1.035  50.822  1.00  0.00     0.010 C 
HETATM   12  C6  UNL     1      21.585   0.841  49.836  1.00  0.00     0.012 C 
BRANCH  12  13
HETATM   13  C5  UNL     1      21.311   1.778  48.765  1.00  0.00    -0.036 A 
HETATM   14  C4  UNL     1      22.315   2.133  47.868  1.00  0.00     0.014 A 
HETATM   15  C3  UNL     1      22.079   3.022  46.841  1.00  0.00     0.037 A 
HETATM   16  C2  UNL     1      20.828   3.604  46.658  1.00  0.00     0.068 A 
HETATM   17  C21 UNL     1      19.818   3.267  47.536  1.00  0.00     0.037 A 
HETATM   18  C20 UNL     1      20.090   2.375  48.550  1.00  0.00     0.014 A 
BRANCH  16  19
HETATM   19  O1  UNL     1      20.699   4.486  45.593  1.00  0.00    -0.356 OA
HETATM   20  C1  UNL     1      21.016   5.839  45.794  1.00  0.00     0.210 C 
ENDBRANCH  16  19
ENDBRANCH  12  13
ENDBRANCH   1  11
BRANCH   3  21
HETATM   21  N1  UNL     1      23.110   5.301  52.490  1.00  0.00    -0.402 N 
HETATM   22  H8  UNL     1      23.987   5.882  52.538  1.00  0.00     0.156 HD
HETATM   23  H9  UNL     1      22.059   5.234  52.459  1.00  0.00     0.156 HD
ENDBRANCH   3  21
BRANCH   8  24
HETATM   24  C15 UNL     1      27.207  -0.166  53.864  1.00  0.00     0.061 C 
BRANCH  24  25
HETATM   25  C16 UNL     1      28.470  -0.600  53.153  1.00  0.00     0.076 C 
BRANCH  25  26
HETATM   26  C17 UNL     1      28.508  -2.085  53.217  1.00  0.00     0.117 A 
HETATM   27  O2  UNL     1      27.538  -2.794  52.802  1.00  0.00    -0.194 OA
HETATM   28  O3  UNL     1      28.742  -3.435  53.366  1.00  0.00     0.000 OA
HETATM   29  H18 UNL     1      29.512  -3.712  53.972  1.00  0.00     0.000 HD
ENDBRANCH  25  26
ENDBRANCH  24  25
ENDBRANCH   8  24
TORSDOF 7
ENDMDL
MODEL 6
REMARK VINA RESULT:      -8.1      4.682      7.685
REMARK  7 active torsions:
REMARK  status: ('A' for Active; 'I' for Inactive)
REMARK    1  A    between atoms: O1_2  and  C2_3 
REMARK    2  A    between atoms: C5_6  and  C6_7 
REMARK    3  A    between atoms: C7_8  and  C8_9 
REMARK    4  A    between atoms: C10_11  and  N1_12 
REMARK    5  A    between atoms: C14_17  and  C15_18 
REMARK    6  A    between atoms: C15_18  and  C16_19 
REMARK    7  A    between atoms: C16_19  and  C17_20 
ROOT
HETATM    1  C8  UNL     1      22.997   2.741  50.427  1.00  0.00    -0.034 C 
HETATM    2  C9  UNL     1      23.122   2.139  49.252  1.00  0.00     0.006 C 
HETATM    3  C10 UNL     1      22.838   2.829  48.183  1.00  0.00     0.015 C 
HETATM    4  C11 UNL     1      23.074   4.238  48.658  1.00  0.00     0.074 C 
HETATM    5  C12 UNL     1      23.687   3.972  49.989  1.00  0.00     0.019 C 
HETATM    6  C13 UNL     1      25.168   3.761  49.765  1.00  0.00     0.164 C 
HETATM    7  N2  UNL     1      25.671   5.113  49.827  1.00  0.00    -0.297 NA
HETATM    8  C14 UNL     1      24.869   5.861  50.485  1.00  0.00     0.012 C 
HETATM    9  C18 UNL     1      23.691   5.080  50.961  1.00  0.00     0.044 C 
HETATM   10  C19 UNL     1      22.451   5.895  51.079  1.00  0.00     0.017 C 
ENDROOT
BRANCH   1  11
HETATM   11  C7  UNL     1      22.382   2.280  51.665  1.00  0.00     0.010 C 
HETATM   12  C6  UNL     1      22.624   1.689  52.808  1.00  0.00     0.012 C 
BRANCH  12  13
HETATM   13  C5  UNL     1      23.918   1.216  53.255  1.00  0.00    -0.036 A 
HETATM   14  C4  UNL     1      24.116  -0.135  53.530  1.00  0.00     0.014 A 
HETATM   15  C3  UNL     1      25.338  -0.610  53.956  1.00  0.00     0.037 A 
HETATM   16  C2  UNL     1      26.426   0.241  54.132  1.00  0.00     0.068 A 
HETATM   17  C21 UNL     1      26.252   1.584  53.866  1.00  0.00     0.037 A 
HETATM   18  C20 UNL     1      25.017   2.023  53.442  1.00  0.00     0.014 A 
BRANCH  16  19
HETATM   19  O1  UNL     1      27.610  -0.341  54.565  1.00  0.00    -0.356 OA
HETATM   20  C1  UNL     1      28.830   0.209  54.138  1.00  0.00     0.210 C 
ENDBRANCH  16  19
ENDBRANCH  12  13
ENDBRANCH   1  11
BRANCH   3  21
HETATM   21  N1  UNL     1      22.436   2.056  47.039  1.00  0.00    -0.402 N 
HETATM   22  H8  UNL     1      21.412   2.290  46.955  1.00  0.00     0.156 HD
HETATM   23  H9  UNL     1      23.286   1.539  46.693  1.00  0.00     0.156 HD
ENDBRANCH   3  21
BRANCH   8  24
HETATM   24  C15 UNL     1      25.068   7.333  50.753  1.00  0.00     0.061 C 
BRANCH  24  25
HETATM   25  C16 UNL     1      26.014   7.875  49.703  1.00  0.00     0.076 C 
BRANCH  25  26
HETATM   26  C17 UNL     1      26.890   8.863  50.387  1.00  0.00     0.117 A 
HETATM   27  O2  UNL     1      27.128  10.004  49.881  1.00  0.00    -0.194 OA
HETATM   28  O3  UNL     1      27.724   9.625  51.177  1.00  0.00     0.000 OA
HETATM   29  H18 UNL     1      28.228   9.147  51.921  1.00  0.00     0.000 HD
ENDBRANCH  25  26
ENDBRANCH  24  25
ENDBRANCH   8  24
TORSDOF 7
ENDMDL
MODEL 7
REMARK VINA RESULT:      -7.7      2.876      3.827
REMARK  7 active torsions:
REMARK  status: ('A' for Active; 'I' for Inactive)
REMARK    1  A    between atoms: O1_2  and  C2_3 
REMARK    2  A    between atoms: C5_6  and  C6_7 
REMARK    3  A    between atoms: C7_8  and  C8_9 
REMARK    4  A    between atoms: C10_11  and  N1_12 
REMARK    5  A    between atoms: C14_17  and  C15_18 
REMARK    6  A    between atoms: C15_18  and  C16_19 
REMARK    7  A    between atoms: C16_19  and  C17_20 
ROOT
HETATM    1  C8  UNL     1      23.928   1.696  53.186  1.00  0.00    -0.034 C 
HETATM    2  C9  UNL     1      22.840   0.989  53.462  1.00  0.00     0.006 C 
HETATM    3  C10 UNL     1      22.678  -0.144  52.837  1.00  0.00     0.015 C 
HETATM    4  C11 UNL     1      24.098  -0.513  52.501  1.00  0.00     0.074 C 
HETATM    5  C12 UNL     1      24.833   0.531  53.266  1.00  0.00     0.019 C 
HETATM    6  C13 UNL     1      24.997   0.018  54.680  1.00  0.00     0.164 C 
HETATM    7  N2  UNL     1      26.221  -0.741  54.579  1.00  0.00    -0.297 NA
HETATM    8  C14 UNL     1      26.922  -0.332  53.590  1.00  0.00     0.012 C 
HETATM    9  C18 UNL     1      26.234   0.786  52.883  1.00  0.00     0.044 C 
HETATM   10  C19 UNL     1      26.547   0.846  51.428  1.00  0.00     0.017 C 
ENDROOT
BRANCH   1  11
HETATM   11  C7  UNL     1      24.087   3.117  52.913  1.00  0.00     0.010 C 
HETATM   12  C6  UNL     1      23.857   4.055  52.028  1.00  0.00     0.012 C 
BRANCH  12  13
HETATM   13  C5  UNL     1      23.207   3.864  50.747  1.00  0.00    -0.036 A 
HETATM   14  C4  UNL     1      22.022   4.534  50.454  1.00  0.00     0.014 A 
HETATM   15  C3  UNL     1      21.385   4.369  49.241  1.00  0.00     0.037 A 
HETATM   16  C2  UNL     1      21.899   3.526  48.260  1.00  0.00     0.068 A 
HETATM   17  C21 UNL     1      23.073   2.852  48.530  1.00  0.00     0.037 A 
HETATM   18  C20 UNL     1      23.681   3.040  49.752  1.00  0.00     0.014 A 
BRANCH  16  19
HETATM   19  O1  UNL     1      21.178   3.433  47.077  1.00  0.00    -0.356 OA
HETATM   20  C1  UNL     1      21.853   3.612  45.858  1.00  0.00     0.210 C 
ENDBRANCH  16  19
ENDBRANCH  12  13
ENDBRANCH   1  11
BRANCH   3  21
HETATM   21  N1  UNL     1      21.316  -0.588  52.709  1.00  0.00    -0.402 N 
HETATM   22  H8  UNL     1      21.050  -0.233  51.753  1.00  0.00     0.156 HD
HETATM   23  H9  UNL     1      21.066  -1.101  53.594  1.00  0.00     0.156 HD
ENDBRANCH   3  21
BRANCH   8  24
HETATM   24  C15 UNL     1      28.262  -0.891  53.178  1.00  0.00     0.061 C 
BRANCH  24  25
HETATM   25  C16 UNL     1      29.309  -0.339  54.122  1.00  0.00     0.076 C 
BRANCH  25  26
HETATM   26  C17 UNL     1      29.350   1.131  53.901  1.00  0.00     0.117 A 
HETATM   27  O2  UNL     1      29.343   1.950  54.873  1.00  0.00    -0.194 OA
HETATM   28  O3  UNL     1      29.393   2.444  53.483  1.00  0.00     0.000 OA
HETATM   29  H18 UNL     1      29.196   2.627  52.500  1.00  0.00     0.000 HD
ENDBRANCH  25  26
ENDBRANCH  24  25
ENDBRANCH   8  24
TORSDOF 7
ENDMDL
MODEL 8
REMARK VINA RESULT:      -7.6      4.401      7.058
REMARK  7 active torsions:
REMARK  status: ('A' for Active; 'I' for Inactive)
REMARK    1  A    between atoms: O1_2  and  C2_3 
REMARK    2  A    between atoms: C5_6  and  C6_7 
REMARK    3  A    between atoms: C7_8  and  C8_9 
REMARK    4  A    between atoms: C10_11  and  N1_12 
REMARK    5  A    between atoms: C14_17  and  C15_18 
REMARK    6  A    between atoms: C15_18  and  C16_19 
REMARK    7  A    between atoms: C16_19  and  C17_20 
ROOT
HETATM    1  C8  UNL     1      23.400   3.547  51.723  1.00  0.00    -0.034 C 
HETATM    2  C9  UNL     1      23.478   4.758  52.259  1.00  0.00     0.006 C 
HETATM    3  C10 UNL     1      23.714   5.761  51.460  1.00  0.00     0.015 C 
HETATM    4  C11 UNL     1      23.191   5.238  50.150  1.00  0.00     0.074 C 
HETATM    5  C12 UNL     1      22.535   3.982  50.607  1.00  0.00     0.019 C 
HETATM    6  C13 UNL     1      21.138   4.345  51.061  1.00  0.00     0.164 C 
HETATM    7  N2  UNL     1      20.395   4.259  49.826  1.00  0.00    -0.297 NA
HETATM    8  C14 UNL     1      20.995   3.496  48.993  1.00  0.00     0.012 C 
HETATM    9  C18 UNL     1      22.254   2.958  49.584  1.00  0.00     0.044 C 
HETATM   10  C19 UNL     1      23.313   2.690  48.572  1.00  0.00     0.017 C 
ENDROOT
BRANCH   1  11
HETATM   11  C7  UNL     1      23.991   2.286  52.149  1.00  0.00     0.010 C 
HETATM   12  C6  UNL     1      23.712   1.078  52.571  1.00  0.00     0.012 C 
BRANCH  12  13
HETATM   13  C5  UNL     1      22.381   0.543  52.775  1.00  0.00    -0.036 A 
HETATM   14  C4  UNL     1      22.042  -0.054  53.986  1.00  0.00     0.014 A 
HETATM   15  C3  UNL     1      20.782  -0.570  54.205  1.00  0.00     0.037 A 
HETATM   16  C2  UNL     1      19.796  -0.517  53.224  1.00  0.00     0.068 A 
HETATM   17  C21 UNL     1      20.110   0.070  52.015  1.00  0.00     0.037 A 
HETATM   18  C20 UNL     1      21.379   0.575  51.832  1.00  0.00     0.014 A 
BRANCH  16  19
HETATM   19  O1  UNL     1      18.562  -1.067  53.549  1.00  0.00    -0.356 OA
HETATM   20  C1  UNL     1      17.507  -0.950  52.629  1.00  0.00     0.210 C 
ENDBRANCH  16  19
ENDBRANCH  12  13
ENDBRANCH   1  11
BRANCH   3  21
HETATM   21  N1  UNL     1      24.337   6.904  52.073  1.00  0.00    -0.402 N 
HETATM   22  H8  UNL     1      25.346   6.606  52.135  1.00  0.00     0.156 HD
HETATM   23  H9  UNL     1      23.585   7.622  52.240  1.00  0.00     0.156 HD
ENDBRANCH   3  21
BRANCH   8  24
HETATM   24  C15 UNL     1      20.512   3.171  47.600  1.00  0.00     0.061 C 
BRANCH  24  25
HETATM   25  C16 UNL     1      20.665   4.415  46.751  1.00  0.00     0.076 C 
BRANCH  25  26
HETATM   26  C17 UNL     1      21.040   3.957  45.387  1.00  0.00     0.117 A 
HETATM   27  O2  UNL     1      22.196   3.490  45.138  1.00  0.00    -0.194 OA
HETATM   28  O3  UNL     1      21.185   3.591  44.067  1.00  0.00     0.000 OA
HETATM   29  H18 UNL     1      20.485   3.928  43.409  1.00  0.00     0.000 HD
ENDBRANCH  25  26
ENDBRANCH  24  25
ENDBRANCH   8  24
TORSDOF 7
ENDMDL
MODEL 9
REMARK VINA RESULT:      -7.6      2.266      3.050
REMARK  7 active torsions:
REMARK  status: ('A' for Active; 'I' for Inactive)
REMARK    1  A    between atoms: O1_2  and  C2_3 
REMARK    2  A    between atoms: C5_6  and  C6_7 
REMARK    3  A    between atoms: C7_8  and  C8_9 
REMARK    4  A    between atoms: C10_11  and  N1_12 
REMARK    5  A    between atoms: C14_17  and  C15_18 
REMARK    6  A    between atoms: C15_18  and  C16_19 
REMARK    7  A    between atoms: C16_19  and  C17_20 
ROOT
HETATM    1  C8  UNL     1      23.244   2.058  51.149  1.00  0.00    -0.034 C 
HETATM    2  C9  UNL     1      23.147   3.374  51.281  1.00  0.00     0.006 C 
HETATM    3  C10 UNL     1      23.411   3.888  52.450  1.00  0.00     0.015 C 
HETATM    4  C11 UNL     1      24.329   2.850  53.039  1.00  0.00     0.074 C 
HETATM    5  C12 UNL     1      24.541   1.977  51.852  1.00  0.00     0.019 C 
HETATM    6  C13 UNL     1      25.675   2.577  51.050  1.00  0.00     0.164 C 
HETATM    7  N2  UNL     1      26.829   1.974  51.674  1.00  0.00    -0.297 NA
HETATM    8  C14 UNL     1      26.504   0.885  52.261  1.00  0.00     0.012 C 
HETATM    9  C18 UNL     1      25.046   0.614  52.100  1.00  0.00     0.044 C 
HETATM   10  C19 UNL     1      24.456  -0.140  53.240  1.00  0.00     0.017 C 
ENDROOT
BRANCH   1  11
HETATM   11  C7  UNL     1      22.343   1.102  50.518  1.00  0.00     0.010 C 
HETATM   12  C6  UNL     1      21.101   0.904  50.155  1.00  0.00     0.012 C 
BRANCH  12  13
HETATM   13  C5  UNL     1      20.010   1.839  50.335  1.00  0.00    -0.036 A 
HETATM   14  C4  UNL     1      19.623   2.229  51.615  1.00  0.00     0.014 A 
HETATM   15  C3  UNL     1      18.588   3.119  51.813  1.00  0.00     0.037 A 
HETATM   16  C2  UNL     1      17.884   3.664  50.742  1.00  0.00     0.068 A 
HETATM   17  C21 UNL     1      18.251   3.290  49.465  1.00  0.00     0.037 A 
HETATM   18  C20 UNL     1      19.290   2.400  49.305  1.00  0.00     0.014 A 
BRANCH  16  19
HETATM   19  O1  UNL     1      16.860   4.549  51.053  1.00  0.00    -0.356 OA
HETATM   20  C1  UNL     1      16.008   4.245  52.128  1.00  0.00     0.210 C 
ENDBRANCH  16  19
ENDBRANCH  12  13
ENDBRANCH   1  11
BRANCH   3  21
HETATM   21  N1  UNL     1      22.781   5.151  52.725  1.00  0.00    -0.402 N 
HETATM   22  H8  UNL     1      21.854   4.858  53.132  1.00  0.00     0.156 HD
HETATM   23  H9  UNL     1      23.451   5.909  52.431  1.00  0.00     0.156 HD
ENDBRANCH   3  21
BRANCH   8  24
HETATM   24  C15 UNL     1      27.449  -0.015  53.019  1.00  0.00     0.061 C 
BRANCH  24  25
HETATM   25  C16 UNL     1      27.830   0.684  54.306  1.00  0.00     0.076 C 
BRANCH  25  26
HETATM   26  C17 UNL     1      28.717   1.817  53.930  1.00  0.00     0.117 A 
HETATM   27  O2  UNL     1      29.487   2.368  54.779  1.00  0.00    -0.194 OA
HETATM   28  O3  UNL     1      29.453   2.845  53.382  1.00  0.00     0.000 OA
HETATM   29  H18 UNL     1      29.156   3.199  52.475  1.00  0.00     0.000 HD
ENDBRANCH  25  26
ENDBRANCH  24  25
ENDBRANCH   8  24
TORSDOF 7
ENDMDL
