MODEL 1
REMARK VINA RESULT:      -9.2      0.000      0.000
REMARK  6 active torsions:
REMARK  status: ('A' for Active; 'I' for Inactive)
REMARK    1  A    between atoms: O1_1  and  C1_2 
REMARK    2  A    between atoms: C1_2  and  C2_3 
REMARK    3  A    between atoms: C1_2  and  C7_10 
REMARK    4  A    between atoms: C2_3  and  N1_4 
REMARK    5  A    between atoms: C13_19  and  N4_20 
REMARK    6  A    between atoms: N4_20  and  C14_21 
ROOT
HETATM    1  C7  UNL     1      19.574   1.712  50.699  1.00  0.00     0.172 C 
HETATM    2  O3  UNL     1      20.789   1.508  49.955  1.00  0.00    -0.346 OA
HETATM    3  C8  UNL     1      21.232   0.878  51.141  1.00  0.00     0.058 C 
HETATM    4  C9  UNL     1      22.281   0.753  51.942  1.00  0.00     0.050 C 
HETATM    5  C10 UNL     1      22.446  -0.003  53.147  1.00  0.00     0.041 A 
HETATM    6  C11 UNL     1      21.395  -0.501  53.888  1.00  0.00     0.072 A 
HETATM    7  N2  UNL     1      21.718  -1.198  55.017  1.00  0.00    -0.241 NA
HETATM    8  C12 UNL     1      23.008  -1.374  55.363  1.00  0.00     0.236 A 
HETATM    9  N3  UNL     1      23.963  -0.867  54.604  1.00  0.00    -0.224 NA
HETATM   10  C13 UNL     1      23.767  -0.170  53.481  1.00  0.00     0.142 A 
HETATM   11  C20 UNL     1      19.941  -0.416  53.675  1.00  0.00     0.029 C 
HETATM   12  C21 UNL     1      19.384  -0.069  52.503  1.00  0.00    -0.010 C 
HETATM   13  C22 UNL     1      19.886   0.297  51.200  1.00  0.00     0.097 C 
ENDROOT
BRANCH   1  14
HETATM   14  C1  UNL     1      18.384   1.818  49.782  1.00  0.00     0.176 C 
BRANCH  14  15
HETATM   15  O1  UNL     1      18.897   2.078  48.492  1.00  0.00    -0.391 OA
HETATM   16  H1  UNL     1      19.409   1.314  48.129  1.00  0.00     0.210 HD
ENDBRANCH  14  15
BRANCH  14  17
HETATM   17  C2  UNL     1      17.591   3.046  50.157  1.00  0.00     0.306 C 
BRANCH  17  18
HETATM   18  N1  UNL     1      17.033   2.824  51.478  1.00  0.00     0.095 N 
HETATM   19  C3  UNL     1      15.915   1.914  51.422  1.00  0.00     0.298 C 
HETATM   20  C4  UNL     1      14.690   2.675  51.026  1.00  0.00     0.198 C 
HETATM   21  O2  UNL     1      14.249   3.543  52.024  1.00  0.00    -0.388 OA
HETATM   22  C5  UNL     1      15.311   4.013  52.797  1.00  0.00     0.198 C 
HETATM   23  C6  UNL     1      16.580   4.112  51.976  1.00  0.00     0.298 C 
ENDBRANCH  17  18
ENDBRANCH  14  17
ENDBRANCH   1  14
BRANCH  10  24
HETATM   24  N4  UNL     1      24.844   0.352  52.722  1.00  0.00    -0.340 N 
HETATM   25  H16 UNL     1      24.919   0.983  51.930  1.00  0.00     0.167 HD
BRANCH  24  26
HETATM   26  C14 UNL     1      26.207   0.027  52.964  1.00  0.00     0.035 A 
HETATM   27  C15 UNL     1      26.855  -1.181  52.741  1.00  0.00     0.032 A 
HETATM   28  C16 UNL     1      28.163  -1.463  53.000  1.00  0.00     0.046 A 
HETATM   29  C17 UNL     1      28.935  -0.468  53.535  1.00  0.00     0.138 A 
HETATM   30  F1  UNL     1      30.231  -0.754  53.789  1.00  0.00    -0.204 F 
HETATM   31  C18 UNL     1      28.350   0.761  53.782  1.00  0.00     0.074 A 
HETATM   32 CL1  UNL     1      29.460   1.947  54.471  1.00  0.00    -0.081 Cl
HETATM   33  C19 UNL     1      27.026   0.992  53.502  1.00  0.00     0.056 A 
ENDBRANCH  24  26
ENDBRANCH  10  24
TORSDOF 6
ENDMDL
MODEL 2
REMARK VINA RESULT:      -9.1      5.531      9.858
REMARK  6 active torsions:
REMARK  status: ('A' for Active; 'I' for Inactive)
REMARK    1  A    between atoms: O1_1  and  C1_2 
REMARK    2  A    between atoms: C1_2  and  C2_3 
REMARK    3  A    between atoms: C1_2  and  C7_10 
REMARK    4  A    between atoms: C2_3  and  N1_4 
REMARK    5  A    between atoms: C13_19  and  N4_20 
REMARK    6  A    between atoms: N4_20  and  C14_21 
ROOT
HETATM    1  C7  UNL     1      23.516  -0.695  54.869  1.00  0.00     0.172 C 
HETATM    2  O3  UNL     1      22.633  -1.784  55.193  1.00  0.00    -0.346 OA
HETATM    3  C8  UNL     1      21.803  -1.209  54.204  1.00  0.00     0.058 C 
HETATM    4  C9  UNL     1      20.541  -0.915  53.924  1.00  0.00     0.050 C 
HETATM    5  C10 UNL     1      19.965  -0.294  52.769  1.00  0.00     0.041 A 
HETATM    6  C11 UNL     1      20.691   0.427  51.845  1.00  0.00     0.072 A 
HETATM    7  N2  UNL     1      19.994   0.962  50.801  1.00  0.00    -0.241 NA
HETATM    8  C12 UNL     1      18.663   0.778  50.705  1.00  0.00     0.236 A 
HETATM    9  N3  UNL     1      18.033   0.074  51.628  1.00  0.00    -0.224 NA
HETATM   10  C13 UNL     1      18.609  -0.495  52.691  1.00  0.00     0.142 A 
HETATM   11  C20 UNL     1      22.129   0.734  51.778  1.00  0.00     0.029 C 
HETATM   12  C21 UNL     1      23.060   0.078  52.492  1.00  0.00    -0.010 C 
HETATM   13  C22 UNL     1      23.042  -1.005  53.445  1.00  0.00     0.097 C 
ENDROOT
BRANCH   1  14
HETATM   14  C1  UNL     1      24.951  -1.050  55.159  1.00  0.00     0.176 C 
BRANCH  14  15
HETATM   15  O1  UNL     1      24.975  -1.564  56.475  1.00  0.00    -0.391 OA
HETATM   16  H1  UNL     1      24.655  -2.499  56.521  1.00  0.00     0.210 HD
ENDBRANCH  14  15
BRANCH  14  17
HETATM   17  C2  UNL     1      25.765   0.218  55.205  1.00  0.00     0.306 C 
BRANCH  17  18
HETATM   18  N1  UNL     1      26.414   0.372  53.916  1.00  0.00     0.095 N 
HETATM   19  C3  UNL     1      27.662  -0.349  53.874  1.00  0.00     0.298 C 
HETATM   20  C4  UNL     1      28.725   0.485  54.516  1.00  0.00     0.198 C 
HETATM   21  O2  UNL     1      29.064   1.603  53.756  1.00  0.00    -0.388 OA
HETATM   22  C5  UNL     1      27.977   2.063  53.012  1.00  0.00     0.198 C 
HETATM   23  C6  UNL     1      26.672   1.791  53.731  1.00  0.00     0.298 C 
ENDBRANCH  17  18
ENDBRANCH  14  17
ENDBRANCH   1  14
BRANCH  10  24
HETATM   24  N4  UNL     1      17.865  -1.229  53.647  1.00  0.00    -0.340 N 
HETATM   25  H16 UNL     1      17.704  -1.141  54.647  1.00  0.00     0.167 HD
BRANCH  24  26
HETATM   26  C14 UNL     1      17.113  -2.395  53.333  1.00  0.00     0.035 A 
HETATM   27  C15 UNL     1      17.386  -3.711  53.677  1.00  0.00     0.032 A 
HETATM   28  C16 UNL     1      16.649  -4.809  53.344  1.00  0.00     0.046 A 
HETATM   29  C17 UNL     1      15.520  -4.616  52.596  1.00  0.00     0.138 A 
HETATM   30  F1  UNL     1      14.796  -5.708  52.270  1.00  0.00    -0.204 F 
HETATM   31  C18 UNL     1      15.192  -3.326  52.219  1.00  0.00     0.074 A 
HETATM   32 CL1  UNL     1      13.714  -3.225  51.259  1.00  0.00    -0.081 Cl
HETATM   33  C19 UNL     1      15.969  -2.254  52.581  1.00  0.00     0.056 A 
ENDBRANCH  24  26
ENDBRANCH  10  24
TORSDOF 6
ENDMDL
MODEL 3
REMARK VINA RESULT:      -8.9      5.872      9.355
REMARK  6 active torsions:
REMARK  status: ('A' for Active; 'I' for Inactive)
REMARK    1  A    between atoms: O1_1  and  C1_2 
REMARK    2  A    between atoms: C1_2  and  C2_3 
REMARK    3  A    between atoms: C1_2  and  C7_10 
REMARK    4  A    between atoms: C2_3  and  N1_4 
REMARK    5  A    between atoms: C13_19  and  N4_20 
REMARK    6  A    between atoms: N4_20  and  C14_21 
ROOT
HETATM    1  C7  UNL     1      25.460   1.031  51.931  1.00  0.00     0.172 C 
HETATM    2  O3  UNL     1      26.689   1.461  51.316  1.00  0.00    -0.346 OA
HETATM    3  C8  UNL     1      26.000   2.684  51.146  1.00  0.00     0.058 C 
HETATM    4  C9  UNL     1      25.797   3.671  50.283  1.00  0.00     0.050 C 
HETATM    5  C10 UNL     1      24.998   4.854  50.396  1.00  0.00     0.041 A 
HETATM    6  C11 UNL     1      24.005   5.020  51.338  1.00  0.00     0.072 A 
HETATM    7  N2  UNL     1      23.329   6.206  51.311  1.00  0.00    -0.241 NA
HETATM    8  C12 UNL     1      23.638   7.146  50.397  1.00  0.00     0.236 A 
HETATM    9  N3  UNL     1      24.602   6.916  49.524  1.00  0.00    -0.224 NA
HETATM   10  C13 UNL     1      25.330   5.798  49.455  1.00  0.00     0.142 A 
HETATM   11  C20 UNL     1      23.529   4.124  52.403  1.00  0.00     0.029 C 
HETATM   12  C21 UNL     1      24.220   3.057  52.836  1.00  0.00    -0.010 C 
HETATM   13  C22 UNL     1      25.488   2.454  52.500  1.00  0.00     0.097 C 
ENDROOT
BRANCH   1  14
HETATM   14  C1  UNL     1      25.706  -0.066  52.933  1.00  0.00     0.176 C 
BRANCH  14  15
HETATM   15  O1  UNL     1      24.434  -0.488  53.380  1.00  0.00    -0.391 OA
HETATM   16  H1  UNL     1      23.774  -0.539  52.645  1.00  0.00     0.210 HD
ENDBRANCH  14  15
BRANCH  14  17
HETATM   17  C2  UNL     1      26.383   0.526  54.143  1.00  0.00     0.306 C 
BRANCH  17  18
HETATM   18  N1  UNL     1      27.466  -0.363  54.521  1.00  0.00     0.095 N 
HETATM   19  C3  UNL     1      28.581   0.377  55.058  1.00  0.00     0.298 C 
HETATM   20  C4  UNL     1      29.403   0.905  53.926  1.00  0.00     0.198 C 
HETATM   21  O2  UNL     1      30.084  -0.099  53.240  1.00  0.00    -0.388 OA
HETATM   22  C5  UNL     1      29.382  -1.304  53.272  1.00  0.00     0.198 C 
HETATM   23  C6  UNL     1      27.888  -1.063  53.319  1.00  0.00     0.298 C 
ENDBRANCH  17  18
ENDBRANCH  14  17
ENDBRANCH   1  14
BRANCH  10  24
HETATM   24  N4  UNL     1      26.344   5.619  48.482  1.00  0.00    -0.340 N 
HETATM   25  H16 UNL     1      26.439   5.047  47.648  1.00  0.00     0.167 HD
BRANCH  24  26
HETATM   26  C14 UNL     1      27.593   6.297  48.513  1.00  0.00     0.035 A 
HETATM   27  C15 UNL     1      27.830   7.653  48.695  1.00  0.00     0.032 A 
HETATM   28  C16 UNL     1      29.044   8.273  48.704  1.00  0.00     0.046 A 
HETATM   29  C17 UNL     1      30.156   7.498  48.517  1.00  0.00     0.138 A 
HETATM   30  F1  UNL     1      31.356   8.120  48.527  1.00  0.00    -0.204 F 
HETATM   31  C18 UNL     1      29.989   6.138  48.329  1.00  0.00     0.074 A 
HETATM   32 CL1  UNL     1      31.505   5.264  48.101  1.00  0.00    -0.081 Cl
HETATM   33  C19 UNL     1      28.742   5.563  48.329  1.00  0.00     0.056 A 
ENDBRANCH  24  26
ENDBRANCH  10  24
TORSDOF 6
ENDMDL
MODEL 4
REMARK VINA RESULT:      -8.6      7.537     11.494
REMARK  6 active torsions:
REMARK  status: ('A' for Active; 'I' for Inactive)
REMARK    1  A    between atoms: O1_1  and  C1_2 
REMARK    2  A    between atoms: C1_2  and  C2_3 
REMARK    3  A    between atoms: C1_2  and  C7_10 
REMARK    4  A    between atoms: C2_3  and  N1_4 
REMARK    5  A    between atoms: C13_19  and  N4_20 
REMARK    6  A    between atoms: N4_20  and  C14_21 
ROOT
HETATM    1  C7  UNL     1      29.813   6.108  48.497  1.00  0.00     0.172 C 
HETATM    2  O3  UNL     1      29.392   4.833  47.979  1.00  0.00    -0.346 OA
HETATM    3  C8  UNL     1      28.138   5.196  48.522  1.00  0.00     0.058 C 
HETATM    4  C9  UNL     1      27.097   4.716  49.189  1.00  0.00     0.050 C 
HETATM    5  C10 UNL     1      25.895   5.362  49.625  1.00  0.00     0.041 A 
HETATM    6  C11 UNL     1      25.748   6.730  49.709  1.00  0.00     0.072 A 
HETATM    7  N2  UNL     1      24.540   7.189  50.148  1.00  0.00    -0.241 NA
HETATM    8  C12 UNL     1      23.560   6.325  50.476  1.00  0.00     0.236 A 
HETATM    9  N3  UNL     1      23.773   5.026  50.370  1.00  0.00    -0.224 NA
HETATM   10  C13 UNL     1      24.911   4.462  49.953  1.00  0.00     0.142 A 
HETATM   11  C20 UNL     1      26.687   7.820  49.400  1.00  0.00     0.029 C 
HETATM   12  C21 UNL     1      27.801   7.651  48.668  1.00  0.00    -0.010 C 
HETATM   13  C22 UNL     1      28.428   6.536  48.001  1.00  0.00     0.097 C 
ENDROOT
BRANCH   1  14
HETATM   14  C1  UNL     1      30.974   6.660  47.712  1.00  0.00     0.176 C 
BRANCH  14  15
HETATM   15  O1  UNL     1      30.436   7.158  46.503  1.00  0.00    -0.391 OA
HETATM   16  H1  UNL     1      31.106   7.188  45.777  1.00  0.00     0.210 HD
ENDBRANCH  14  15
BRANCH  14  17
HETATM   17  C2  UNL     1      31.876   5.519  47.313  1.00  0.00     0.306 C 
BRANCH  17  18
HETATM   18  N1  UNL     1      33.195   6.069  47.058  1.00  0.00     0.095 N 
HETATM   19  C3  UNL     1      34.153   5.022  46.802  1.00  0.00     0.298 C 
HETATM   20  C4  UNL     1      34.628   4.469  48.108  1.00  0.00     0.198 C 
HETATM   21  O2  UNL     1      35.430   5.366  48.812  1.00  0.00    -0.388 OA
HETATM   22  C5  UNL     1      35.074   6.689  48.543  1.00  0.00     0.198 C 
HETATM   23  C6  UNL     1      33.592   6.803  48.248  1.00  0.00     0.298 C 
ENDBRANCH  17  18
ENDBRANCH  14  17
ENDBRANCH   1  14
BRANCH  10  24
HETATM   24  N4  UNL     1      25.069   3.057  49.875  1.00  0.00    -0.340 N 
HETATM   25  H16 UNL     1      25.187   2.393  49.114  1.00  0.00     0.167 HD
BRANCH  24  26
HETATM   26  C14 UNL     1      25.079   2.201  51.011  1.00  0.00     0.035 A 
HETATM   27  C15 UNL     1      24.009   1.815  51.805  1.00  0.00     0.032 A 
HETATM   28  C16 UNL     1      24.057   1.004  52.899  1.00  0.00     0.046 A 
HETATM   29  C17 UNL     1      25.277   0.508  53.271  1.00  0.00     0.138 A 
HETATM   30  F1  UNL     1      25.318  -0.295  54.356  1.00  0.00    -0.204 F 
HETATM   31  C18 UNL     1      26.386   0.856  52.521  1.00  0.00     0.074 A 
HETATM   32 CL1  UNL     1      27.890   0.147  53.113  1.00  0.00    -0.081 Cl
HETATM   33  C19 UNL     1      26.282   1.678  51.426  1.00  0.00     0.056 A 
ENDBRANCH  24  26
ENDBRANCH  10  24
TORSDOF 6
ENDMDL
MODEL 5
REMARK VINA RESULT:      -8.5      7.598     10.559
REMARK  6 active torsions:
REMARK  status: ('A' for Active; 'I' for Inactive)
REMARK    1  A    between atoms: O1_1  and  C1_2 
REMARK    2  A    between atoms: C1_2  and  C2_3 
REMARK    3  A    between atoms: C1_2  and  C7_10 
REMARK    4  A    between atoms: C2_3  and  N1_4 
REMARK    5  A    between atoms: C13_19  and  N4_20 
REMARK    6  A    between atoms: N4_20  and  C14_21 
ROOT
HETATM    1  C7  UNL     1      29.206   6.038  48.524  1.00  0.00     0.172 C 
HETATM    2  O3  UNL     1      28.797   4.756  48.013  1.00  0.00    -0.346 OA
HETATM    3  C8  UNL     1      27.598   5.029  48.711  1.00  0.00     0.058 C 
HETATM    4  C9  UNL     1      26.671   4.470  49.477  1.00  0.00     0.050 C 
HETATM    5  C10 UNL     1      25.496   5.031  50.073  1.00  0.00     0.041 A 
HETATM    6  C11 UNL     1      25.286   6.385  50.224  1.00  0.00     0.072 A 
HETATM    7  N2  UNL     1      24.115   6.760  50.818  1.00  0.00    -0.241 NA
HETATM    8  C12 UNL     1      23.230   5.831  51.226  1.00  0.00     0.236 A 
HETATM    9  N3  UNL     1      23.499   4.550  51.048  1.00  0.00    -0.224 NA
HETATM   10  C13 UNL     1      24.608   4.066  50.481  1.00  0.00     0.142 A 
HETATM   11  C20 UNL     1      26.121   7.537  49.848  1.00  0.00     0.029 C 
HETATM   12  C21 UNL     1      27.148   7.455  48.985  1.00  0.00    -0.010 C 
HETATM   13  C22 UNL     1      27.751   6.399  48.209  1.00  0.00     0.097 C 
ENDROOT
BRANCH   1  14
HETATM   14  C1  UNL     1      30.234   6.679  47.629  1.00  0.00     0.176 C 
BRANCH  14  15
HETATM   15  O1  UNL     1      31.202   5.687  47.360  1.00  0.00    -0.391 OA
HETATM   16  H1  UNL     1      30.904   5.047  46.667  1.00  0.00     0.210 HD
ENDBRANCH  14  15
BRANCH  14  17
HETATM   17  C2  UNL     1      30.957   7.748  48.410  1.00  0.00     0.306 C 
BRANCH  17  18
HETATM   18  N1  UNL     1      30.249   8.999  48.205  1.00  0.00     0.095 N 
HETATM   19  C3  UNL     1      30.675   9.642  46.986  1.00  0.00     0.298 C 
HETATM   20  C4  UNL     1      31.939  10.394  47.251  1.00  0.00     0.198 C 
HETATM   21  O2  UNL     1      31.741  11.512  48.060  1.00  0.00    -0.388 OA
HETATM   22  C5  UNL     1      30.682  11.318  48.948  1.00  0.00     0.198 C 
HETATM   23  C6  UNL     1      30.558   9.859  49.335  1.00  0.00     0.298 C 
ENDBRANCH  17  18
ENDBRANCH  14  17
ENDBRANCH   1  14
BRANCH  10  24
HETATM   24  N4  UNL     1      24.832   2.675  50.333  1.00  0.00    -0.340 N 
HETATM   25  H16 UNL     1      24.933   2.049  49.540  1.00  0.00     0.167 HD
BRANCH  24  26
HETATM   26  C14 UNL     1      24.961   1.778  51.429  1.00  0.00     0.035 A 
HETATM   27  C15 UNL     1      23.959   1.267  52.243  1.00  0.00     0.032 A 
HETATM   28  C16 UNL     1      24.121   0.419  53.298  1.00  0.00     0.046 A 
HETATM   29  C17 UNL     1      25.393   0.017  53.604  1.00  0.00     0.138 A 
HETATM   30  F1  UNL     1      25.546  -0.823  54.650  1.00  0.00    -0.204 F 
HETATM   31  C18 UNL     1      26.437   0.492  52.831  1.00  0.00     0.074 A 
HETATM   32 CL1  UNL     1      28.019  -0.107  53.336  1.00  0.00    -0.081 Cl
HETATM   33  C19 UNL     1      26.219   1.345  51.778  1.00  0.00     0.056 A 
ENDBRANCH  24  26
ENDBRANCH  10  24
TORSDOF 6
ENDMDL
MODEL 6
REMARK VINA RESULT:      -8.3      5.243      8.907
REMARK  6 active torsions:
REMARK  status: ('A' for Active; 'I' for Inactive)
REMARK    1  A    between atoms: O1_1  and  C1_2 
REMARK    2  A    between atoms: C1_2  and  C2_3 
REMARK    3  A    between atoms: C1_2  and  C7_10 
REMARK    4  A    between atoms: C2_3  and  N1_4 
REMARK    5  A    between atoms: C13_19  and  N4_20 
REMARK    6  A    between atoms: N4_20  and  C14_21 
ROOT
HETATM    1  C7  UNL     1      24.658   0.693  52.821  1.00  0.00     0.172 C 
HETATM    2  O3  UNL     1      25.026   1.860  53.579  1.00  0.00    -0.346 OA
HETATM    3  C8  UNL     1      23.978   2.476  52.855  1.00  0.00     0.058 C 
HETATM    4  C9  UNL     1      23.645   3.594  52.225  1.00  0.00     0.050 C 
HETATM    5  C10 UNL     1      22.437   3.952  51.545  1.00  0.00     0.041 A 
HETATM    6  C11 UNL     1      21.490   3.038  51.133  1.00  0.00     0.072 A 
HETATM    7  N2  UNL     1      20.394   3.539  50.491  1.00  0.00    -0.241 NA
HETATM    8  C12 UNL     1      20.272   4.864  50.284  1.00  0.00     0.236 A 
HETATM    9  N3  UNL     1      21.221   5.681  50.707  1.00  0.00    -0.224 NA
HETATM   10  C13 UNL     1      22.333   5.306  51.345  1.00  0.00     0.142 A 
HETATM   11  C20 UNL     1      21.444   1.573  51.266  1.00  0.00     0.029 C 
HETATM   12  C21 UNL     1      22.224   0.883  52.115  1.00  0.00    -0.010 C 
HETATM   13  C22 UNL     1      23.244   1.226  53.077  1.00  0.00     0.097 C 
ENDROOT
BRANCH   1  14
HETATM   14  C1  UNL     1      25.010  -0.571  53.560  1.00  0.00     0.176 C 
BRANCH  14  15
HETATM   15  O1  UNL     1      24.000  -0.760  54.529  1.00  0.00    -0.391 OA
HETATM   16  H1  UNL     1      23.881  -1.712  54.769  1.00  0.00     0.210 HD
ENDBRANCH  14  15
BRANCH  14  17
HETATM   17  C2  UNL     1      26.280  -0.339  54.340  1.00  0.00     0.306 C 
BRANCH  17  18
HETATM   18  N1  UNL     1      27.382  -0.328  53.395  1.00  0.00     0.095 N 
HETATM   19  C3  UNL     1      27.308  -1.456  52.500  1.00  0.00     0.298 C 
HETATM   20  C4  UNL     1      27.894  -2.653  53.178  1.00  0.00     0.198 C 
HETATM   21  O2  UNL     1      29.275  -2.558  53.337  1.00  0.00    -0.388 OA
HETATM   22  C5  UNL     1      29.683  -1.232  53.484  1.00  0.00     0.198 C 
HETATM   23  C6  UNL     1      28.611  -0.406  54.167  1.00  0.00     0.298 C 
ENDBRANCH  17  18
ENDBRANCH  14  17
ENDBRANCH   1  14
BRANCH  10  24
HETATM   24  N4  UNL     1      23.313   6.241  51.760  1.00  0.00    -0.340 N 
HETATM   25  H16 UNL     1      23.579   6.648  52.652  1.00  0.00     0.167 HD
BRANCH  24  26
HETATM   26  C14 UNL     1      24.221   6.877  50.869  1.00  0.00     0.035 A 
HETATM   27  C15 UNL     1      24.280   8.218  50.515  1.00  0.00     0.032 A 
HETATM   28  C16 UNL     1      25.157   8.792  49.643  1.00  0.00     0.046 A 
HETATM   29  C17 UNL     1      26.083   7.982  49.045  1.00  0.00     0.138 A 
HETATM   30  F1  UNL     1      26.948   8.557  48.182  1.00  0.00    -0.204 F 
HETATM   31  C18 UNL     1      26.077   6.634  49.354  1.00  0.00     0.074 A 
HETATM   32 CL1  UNL     1      27.323   5.710  48.511  1.00  0.00    -0.081 Cl
HETATM   33  C19 UNL     1      25.171   6.106  50.241  1.00  0.00     0.056 A 
ENDBRANCH  24  26
ENDBRANCH  10  24
TORSDOF 6
ENDMDL
MODEL 7
REMARK VINA RESULT:      -8.3      4.540      9.466
REMARK  6 active torsions:
REMARK  status: ('A' for Active; 'I' for Inactive)
REMARK    1  A    between atoms: O1_1  and  C1_2 
REMARK    2  A    between atoms: C1_2  and  C2_3 
REMARK    3  A    between atoms: C1_2  and  C7_10 
REMARK    4  A    between atoms: C2_3  and  N1_4 
REMARK    5  A    between atoms: C13_19  and  N4_20 
REMARK    6  A    between atoms: N4_20  and  C14_21 
ROOT
HETATM    1  C7  UNL     1      26.032   2.569  52.949  1.00  0.00     0.172 C 
HETATM    2  O3  UNL     1      24.957   1.790  53.503  1.00  0.00    -0.346 OA
HETATM    3  C8  UNL     1      24.203   2.357  52.449  1.00  0.00     0.058 C 
HETATM    4  C9  UNL     1      23.020   2.881  52.160  1.00  0.00     0.050 C 
HETATM    5  C10 UNL     1      22.511   3.404  50.928  1.00  0.00     0.041 A 
HETATM    6  C11 UNL     1      23.308   3.762  49.861  1.00  0.00     0.072 A 
HETATM    7  N2  UNL     1      22.669   4.249  48.757  1.00  0.00    -0.241 NA
HETATM    8  C12 UNL     1      21.328   4.364  48.741  1.00  0.00     0.236 A 
HETATM    9  N3  UNL     1      20.628   4.001  49.801  1.00  0.00    -0.224 NA
HETATM   10  C13 UNL     1      21.142   3.512  50.933  1.00  0.00     0.142 A 
HETATM   11  C20 UNL     1      24.769   3.710  49.690  1.00  0.00     0.029 C 
HETATM   12  C21 UNL     1      25.581   2.993  50.484  1.00  0.00    -0.010 C 
HETATM   13  C22 UNL     1      25.396   2.130  51.626  1.00  0.00     0.097 C 
ENDROOT
BRANCH   1  14
HETATM   14  C1  UNL     1      27.370   1.948  53.254  1.00  0.00     0.176 C 
BRANCH  14  15
HETATM   15  O1  UNL     1      28.345   2.824  52.726  1.00  0.00    -0.391 OA
HETATM   16  H1  UNL     1      29.231   2.394  52.640  1.00  0.00     0.210 HD
ENDBRANCH  14  15
BRANCH  14  17
HETATM   17  C2  UNL     1      27.503   0.671  52.464  1.00  0.00     0.306 C 
BRANCH  17  18
HETATM   18  N1  UNL     1      27.541  -0.430  53.409  1.00  0.00     0.095 N 
HETATM   19  C3  UNL     1      28.692  -0.332  54.272  1.00  0.00     0.298 C 
HETATM   20  C4  UNL     1      29.882  -0.894  53.561  1.00  0.00     0.198 C 
HETATM   21  O2  UNL     1      29.812  -2.277  53.404  1.00  0.00    -0.388 OA
HETATM   22  C5  UNL     1      28.490  -2.711  53.294  1.00  0.00     0.198 C 
HETATM   23  C6  UNL     1      27.624  -1.658  52.635  1.00  0.00     0.298 C 
ENDBRANCH  17  18
ENDBRANCH  14  17
ENDBRANCH   1  14
BRANCH  10  24
HETATM   24  N4  UNL     1      20.328   3.152  52.036  1.00  0.00    -0.340 N 
HETATM   25  H16 UNL     1      20.032   3.621  52.887  1.00  0.00     0.167 HD
BRANCH  24  26
HETATM   26  C14 UNL     1      19.700   1.883  52.169  1.00  0.00     0.035 A 
HETATM   27  C15 UNL     1      18.517   1.445  51.590  1.00  0.00     0.032 A 
HETATM   28  C16 UNL     1      17.934   0.224  51.752  1.00  0.00     0.046 A 
HETATM   29  C17 UNL     1      18.564  -0.679  52.566  1.00  0.00     0.138 A 
HETATM   30  F1  UNL     1      17.981  -1.887  52.722  1.00  0.00    -0.204 F 
HETATM   31  C18 UNL     1      19.747  -0.304  53.175  1.00  0.00     0.074 A 
HETATM   32 CL1  UNL     1      20.448  -1.564  54.193  1.00  0.00    -0.081 Cl
HETATM   33  C19 UNL     1      20.292   0.941  52.977  1.00  0.00     0.056 A 
ENDBRANCH  24  26
ENDBRANCH  10  24
TORSDOF 6
ENDMDL
MODEL 8
REMARK VINA RESULT:      -8.2      4.559      5.453
REMARK  6 active torsions:
REMARK  status: ('A' for Active; 'I' for Inactive)
REMARK    1  A    between atoms: O1_1  and  C1_2 
REMARK    2  A    between atoms: C1_2  and  C2_3 
REMARK    3  A    between atoms: C1_2  and  C7_10 
REMARK    4  A    between atoms: C2_3  and  N1_4 
REMARK    5  A    between atoms: C13_19  and  N4_20 
REMARK    6  A    between atoms: N4_20  and  C14_21 
ROOT
HETATM    1  C7  UNL     1      20.806   1.957  49.881  1.00  0.00     0.172 C 
HETATM    2  O3  UNL     1      21.607   1.972  48.685  1.00  0.00    -0.346 OA
HETATM    3  C8  UNL     1      22.692   1.995  49.592  1.00  0.00     0.058 C 
HETATM    4  C9  UNL     1      23.879   2.546  49.804  1.00  0.00     0.050 C 
HETATM    5  C10 UNL     1      24.809   2.364  50.878  1.00  0.00     0.041 A 
HETATM    6  C11 UNL     1      24.477   1.802  52.092  1.00  0.00     0.072 A 
HETATM    7  N2  UNL     1      25.477   1.704  53.015  1.00  0.00    -0.241 NA
HETATM    8  C12 UNL     1      26.717   2.143  52.726  1.00  0.00     0.236 A 
HETATM    9  N3  UNL     1      26.962   2.672  51.540  1.00  0.00    -0.224 NA
HETATM   10  C13 UNL     1      26.066   2.819  50.561  1.00  0.00     0.142 A 
HETATM   11  C20 UNL     1      23.197   1.270  52.589  1.00  0.00     0.029 C 
HETATM   12  C21 UNL     1      22.163   0.965  51.788  1.00  0.00    -0.010 C 
HETATM   13  C22 UNL     1      21.917   1.020  50.367  1.00  0.00     0.097 C 
ENDROOT
BRANCH   1  14
HETATM   14  C1  UNL     1      19.473   1.300  49.638  1.00  0.00     0.176 C 
BRANCH  14  15
HETATM   15  O1  UNL     1      18.753   2.164  48.785  1.00  0.00    -0.391 OA
HETATM   16  H1  UNL     1      17.831   1.848  48.618  1.00  0.00     0.210 HD
ENDBRANCH  14  15
BRANCH  14  17
HETATM   17  C2  UNL     1      18.702   1.275  50.934  1.00  0.00     0.306 C 
BRANCH  17  18
HETATM   18  N1  UNL     1      18.360  -0.108  51.216  1.00  0.00     0.095 N 
HETATM   19  C3  UNL     1      16.954  -0.348  51.003  1.00  0.00     0.298 C 
HETATM   20  C4  UNL     1      16.197   0.093  52.214  1.00  0.00     0.198 C 
HETATM   21  O2  UNL     1      16.420  -0.729  53.317  1.00  0.00    -0.388 OA
HETATM   22  C5  UNL     1      17.699  -1.286  53.288  1.00  0.00     0.198 C 
HETATM   23  C6  UNL     1      18.683  -0.354  52.612  1.00  0.00     0.298 C 
ENDBRANCH  17  18
ENDBRANCH  14  17
ENDBRANCH   1  14
BRANCH  10  24
HETATM   24  N4  UNL     1      26.401   3.405  49.315  1.00  0.00    -0.340 N 
HETATM   25  H16 UNL     1      26.527   3.052  48.371  1.00  0.00     0.167 HD
BRANCH  24  26
HETATM   26  C14 UNL     1      26.673   4.791  49.146  1.00  0.00     0.035 A 
HETATM   27  C15 UNL     1      27.748   5.382  48.497  1.00  0.00     0.032 A 
HETATM   28  C16 UNL     1      27.986   6.718  48.366  1.00  0.00     0.046 A 
HETATM   29  C17 UNL     1      27.086   7.583  48.926  1.00  0.00     0.138 A 
HETATM   30  F1  UNL     1      27.328   8.905  48.793  1.00  0.00    -0.204 F 
HETATM   31  C18 UNL     1      25.992   7.057  49.589  1.00  0.00     0.074 A 
HETATM   32 CL1  UNL     1      24.915   8.285  50.260  1.00  0.00    -0.081 Cl
HETATM   33  C19 UNL     1      25.799   5.702  49.691  1.00  0.00     0.056 A 
ENDBRANCH  24  26
ENDBRANCH  10  24
TORSDOF 6
ENDMDL
MODEL 9
REMARK VINA RESULT:      -8.0      6.346      9.010
REMARK  6 active torsions:
REMARK  status: ('A' for Active; 'I' for Inactive)
REMARK    1  A    between atoms: O1_1  and  C1_2 
REMARK    2  A    between atoms: C1_2  and  C2_3 
REMARK    3  A    between atoms: C1_2  and  C7_10 
REMARK    4  A    between atoms: C2_3  and  N1_4 
REMARK    5  A    between atoms: C13_19  and  N4_20 
REMARK    6  A    between atoms: N4_20  and  C14_21 
ROOT
HETATM    1  C7  UNL     1      24.117   2.423  50.945  1.00  0.00     0.172 C 
HETATM    2  O3  UNL     1      24.622   3.505  51.749  1.00  0.00    -0.346 OA
HETATM    3  C8  UNL     1      24.309   4.293  50.618  1.00  0.00     0.058 C 
HETATM    4  C9  UNL     1      24.757   5.292  49.869  1.00  0.00     0.050 C 
HETATM    5  C10 UNL     1      24.186   5.916  48.713  1.00  0.00     0.041 A 
HETATM    6  C11 UNL     1      23.182   5.352  47.956  1.00  0.00     0.072 A 
HETATM    7  N2  UNL     1      22.748   6.072  46.880  1.00  0.00    -0.241 NA
HETATM    8  C12 UNL     1      23.294   7.270  46.598  1.00  0.00     0.236 A 
HETATM    9  N3  UNL     1      24.254   7.749  47.369  1.00  0.00    -0.224 NA
HETATM   10  C13 UNL     1      24.757   7.136  48.445  1.00  0.00     0.142 A 
HETATM   11  C20 UNL     1      22.468   4.073  48.102  1.00  0.00     0.029 C 
HETATM   12  C21 UNL     1      22.482   3.344  49.230  1.00  0.00    -0.010 C 
HETATM   13  C22 UNL     1      23.089   3.483  50.532  1.00  0.00     0.097 C 
ENDROOT
BRANCH   1  14
HETATM   14  C1  UNL     1      23.579   1.309  51.804  1.00  0.00     0.176 C 
BRANCH  14  15
HETATM   15  O1  UNL     1      22.304   1.727  52.245  1.00  0.00    -0.391 OA
HETATM   16  H1  UNL     1      21.773   2.145  51.522  1.00  0.00     0.210 HD
ENDBRANCH  14  15
BRANCH  14  17
HETATM   17  C2  UNL     1      24.424   1.206  53.049  1.00  0.00     0.306 C 
BRANCH  17  18
HETATM   18  N1  UNL     1      25.071  -0.093  53.036  1.00  0.00     0.095 N 
HETATM   19  C3  UNL     1      25.183  -0.630  54.370  1.00  0.00     0.298 C 
HETATM   20  C4  UNL     1      26.382  -0.033  55.034  1.00  0.00     0.198 C 
HETATM   21  O2  UNL     1      27.581  -0.486  54.488  1.00  0.00    -0.388 OA
HETATM   22  C5  UNL     1      27.442  -0.792  53.134  1.00  0.00     0.198 C 
HETATM   23  C6  UNL     1      26.401   0.094  52.481  1.00  0.00     0.298 C 
ENDBRANCH  17  18
ENDBRANCH  14  17
ENDBRANCH   1  14
BRANCH  10  24
HETATM   24  N4  UNL     1      25.796   7.708  49.220  1.00  0.00    -0.340 N 
HETATM   25  H16 UNL     1      25.830   8.249  50.079  1.00  0.00     0.167 HD
BRANCH  24  26
HETATM   26  C14 UNL     1      27.173   7.624  48.874  1.00  0.00     0.035 A 
HETATM   27  C15 UNL     1      27.827   6.607  48.193  1.00  0.00     0.032 A 
HETATM   28  C16 UNL     1      29.155   6.552  47.891  1.00  0.00     0.046 A 
HETATM   29  C17 UNL     1      29.943   7.596  48.293  1.00  0.00     0.138 A 
HETATM   30  F1  UNL     1      31.258   7.534  47.991  1.00  0.00    -0.204 F 
HETATM   31  C18 UNL     1      29.353   8.642  48.979  1.00  0.00     0.074 A 
HETATM   32 CL1  UNL     1      30.485   9.917  49.434  1.00  0.00    -0.081 Cl
HETATM   33  C19 UNL     1      28.008   8.648  49.257  1.00  0.00     0.056 A 
ENDBRANCH  24  26
ENDBRANCH  10  24
TORSDOF 6
ENDMDL
