MODEL 1
REMARK VINA RESULT:      -8.5      0.000      0.000
REMARK  2 active torsions:
REMARK  status: ('A' for Active; 'I' for Inactive)
REMARK    1  A    between atoms: C7_8  and  N1_9 
REMARK    2  A    between atoms: N1_9  and  C8_10 
ROOT
HETATM    1  C8  UNL     1      23.492   2.479  51.697  1.00  0.00     0.006 C 
HETATM    2  C9  UNL     1      22.576   1.885  50.995  1.00  0.00     0.026 C 
HETATM    3  C10 UNL     1      21.939   1.473  49.796  1.00  0.00     0.021 C 
HETATM    4  C11 UNL     1      20.843   0.760  49.997  1.00  0.00     0.118 C 
HETATM    5  N2  UNL     1      20.488   0.527  51.352  1.00  0.00    -0.254 NA
HETATM    6  C12 UNL     1      19.563   1.180  51.971  1.00  0.00     0.233 C 
HETATM    7  N3  UNL     1      20.089   0.249  52.908  1.00  0.00    -0.235 NA
HETATM    8  C13 UNL     1      20.634   0.601  54.044  1.00  0.00     0.233 C 
HETATM    9  N4  UNL     1      20.787  -0.795  54.175  1.00  0.00    -0.254 NA
HETATM   10  C14 UNL     1      21.894  -1.396  54.015  1.00  0.00     0.118 C 
HETATM   11  C15 UNL     1      23.236  -0.948  53.684  1.00  0.00     0.021 C 
HETATM   12  C16 UNL     1      24.522  -0.896  53.412  1.00  0.00     0.025 C 
HETATM   13  C17 UNL     1      25.719  -0.184  53.078  1.00  0.00     0.030 C 
HETATM   14 CL2  UNL     1      26.985  -1.447  52.979  1.00  0.00    -0.085 Cl
HETATM   15  C18 UNL     1      25.968   1.095  52.866  1.00  0.00    -0.003 C 
HETATM   16  C19 UNL     1      25.731   2.511  52.733  1.00  0.00     0.035 C 
HETATM   17  C20 UNL     1      24.295   2.989  52.807  1.00  0.00     0.060 C 
ENDROOT
BRANCH   1  18
HETATM   18  N1  UNL     1      24.153   2.916  50.483  1.00  0.00    -0.381 N 
HETATM   19  H7  UNL     1      24.502   2.353  49.641  1.00  0.00     0.160 HD
BRANCH  18  20
HETATM   20  C7  UNL     1      24.383   4.364  50.413  1.00  0.00     0.134 C 
HETATM   21  C2  UNL     1      25.544   4.656  49.541  1.00  0.00    -0.056 C 
HETATM   22  C1  UNL     1      26.745   3.775  49.529  1.00  0.00     0.046 C 
HETATM   23  C3  UNL     1      25.583   5.707  48.728  1.00  0.00     0.029 C 
HETATM   24  C4  UNL     1      24.416   6.596  48.714  1.00  0.00     0.045 C 
HETATM   25 CL1  UNL     1      24.556   8.255  48.195  1.00  0.00    -0.083 Cl
HETATM   26  C5  UNL     1      23.279   6.103  49.102  1.00  0.00    -0.004 C 
HETATM   27  C6  UNL     1      23.192   5.113  49.959  1.00  0.00     0.016 C 
ENDBRANCH  18  20
ENDBRANCH   1  18
TORSDOF 2
ENDMDL
MODEL 2
REMARK VINA RESULT:      -8.3      1.895      6.046
REMARK  2 active torsions:
REMARK  status: ('A' for Active; 'I' for Inactive)
REMARK    1  A    between atoms: C7_8  and  N1_9 
REMARK    2  A    between atoms: N1_9  and  C8_10 
ROOT
HETATM    1  C8  UNL     1      24.885   2.164  51.048  1.00  0.00     0.006 C 
HETATM    2  C9  UNL     1      23.943   1.776  51.852  1.00  0.00     0.026 C 
HETATM    3  C10 UNL     1      23.400   1.376  53.101  1.00  0.00     0.021 C 
HETATM    4  C11 UNL     1      22.107   1.102  53.052  1.00  0.00     0.118 C 
HETATM    5  N2  UNL     1      21.483   1.249  51.785  1.00  0.00    -0.254 NA
HETATM    6  C12 UNL     1      21.203   0.259  51.007  1.00  0.00     0.233 C 
HETATM    7  N3  UNL     1      20.766   1.432  50.332  1.00  0.00    -0.235 NA
HETATM    8  C13 UNL     1      21.213   1.794  49.158  1.00  0.00     0.233 C 
HETATM    9  N4  UNL     1      20.318   2.865  49.368  1.00  0.00    -0.254 NA
HETATM   10  C14 UNL     1      20.690   4.035  49.693  1.00  0.00     0.118 C 
HETATM   11  C15 UNL     1      21.988   4.639  49.936  1.00  0.00     0.021 C 
HETATM   12  C16 UNL     1      22.960   5.480  50.216  1.00  0.00     0.025 C 
HETATM   13  C17 UNL     1      24.344   5.803  50.395  1.00  0.00     0.030 C 
HETATM   14 CL2  UNL     1      24.352   7.542  50.823  1.00  0.00    -0.085 Cl
HETATM   15  C18 UNL     1      25.448   5.086  50.300  1.00  0.00    -0.003 C 
HETATM   16  C19 UNL     1      26.299   3.942  50.084  1.00  0.00     0.035 C 
HETATM   17  C20 UNL     1      25.626   2.602  49.867  1.00  0.00     0.060 C 
ENDROOT
BRANCH   1  18
HETATM   18  N1  UNL     1      25.843   2.126  52.137  1.00  0.00    -0.381 N 
HETATM   19  H7  UNL     1      25.899   2.710  53.032  1.00  0.00     0.160 HD
BRANCH  18  20
HETATM   20  C7  UNL     1      26.905   1.127  51.966  1.00  0.00     0.134 C 
HETATM   21  C2  UNL     1      27.942   1.301  53.009  1.00  0.00    -0.056 C 
HETATM   22  C1  UNL     1      28.350   2.655  53.478  1.00  0.00     0.046 C 
HETATM   23  C3  UNL     1      28.563   0.274  53.580  1.00  0.00     0.029 C 
HETATM   24  C4  UNL     1      28.186  -1.074  53.142  1.00  0.00     0.045 C 
HETATM   25 CL1  UNL     1      29.277  -2.421  53.336  1.00  0.00    -0.083 Cl
HETATM   26  C5  UNL     1      27.013  -1.226  52.606  1.00  0.00    -0.004 C 
HETATM   27  C6  UNL     1      26.394  -0.260  51.969  1.00  0.00     0.016 C 
ENDBRANCH  18  20
ENDBRANCH   1  18
TORSDOF 2
ENDMDL
MODEL 3
REMARK VINA RESULT:      -8.0      3.047      5.558
REMARK  2 active torsions:
REMARK  status: ('A' for Active; 'I' for Inactive)
REMARK    1  A    between atoms: C7_8  and  N1_9 
REMARK    2  A    between atoms: N1_9  and  C8_10 
ROOT
HETATM    1  C8  UNL     1      21.232   1.376  52.071  1.00  0.00     0.006 C 
HETATM    2  C9  UNL     1      21.239   1.367  50.773  1.00  0.00     0.026 C 
HETATM    3  C10 UNL     1      21.757   1.046  49.491  1.00  0.00     0.021 C 
HETATM    4  C11 UNL     1      21.016   1.498  48.493  1.00  0.00     0.118 C 
HETATM    5  N2  UNL     1      19.847   2.216  48.857  1.00  0.00    -0.254 NA
HETATM    6  C12 UNL     1      19.761   3.503  48.830  1.00  0.00     0.233 C 
HETATM    7  N3  UNL     1      18.497   3.029  49.277  1.00  0.00    -0.235 NA
HETATM    8  C13 UNL     1      17.975   3.351  50.431  1.00  0.00     0.233 C 
HETATM    9  N4  UNL     1      16.935   2.517  49.970  1.00  0.00    -0.254 NA
HETATM   10  C14 UNL     1      16.745   1.335  50.396  1.00  0.00     0.118 C 
HETATM   11  C15 UNL     1      17.421   0.506  51.378  1.00  0.00     0.021 C 
HETATM   12  C16 UNL     1      17.776  -0.481  52.171  1.00  0.00     0.025 C 
HETATM   13  C17 UNL     1      18.623  -1.063  53.170  1.00  0.00     0.030 C 
HETATM   14 CL2  UNL     1      17.949  -2.700  53.437  1.00  0.00    -0.085 Cl
HETATM   15  C18 UNL     1      19.679  -0.610  53.820  1.00  0.00    -0.003 C 
HETATM   16  C19 UNL     1      20.725   0.294  54.230  1.00  0.00     0.035 C 
HETATM   17  C20 UNL     1      20.862   1.596  53.468  1.00  0.00     0.060 C 
ENDROOT
BRANCH   1  18
HETATM   18  N1  UNL     1      22.470   0.621  52.093  1.00  0.00    -0.381 N 
HETATM   19  H7  UNL     1      22.686  -0.368  51.745  1.00  0.00     0.160 HD
BRANCH  18  20
HETATM   20  C7  UNL     1      23.598   1.338  52.700  1.00  0.00     0.134 C 
HETATM   21  C2  UNL     1      24.509   0.383  53.371  1.00  0.00    -0.056 C 
HETATM   22  C1  UNL     1      23.985  -0.806  54.101  1.00  0.00     0.046 C 
HETATM   23  C3  UNL     1      25.830   0.526  53.363  1.00  0.00     0.029 C 
HETATM   24  C4  UNL     1      26.381   1.686  52.653  1.00  0.00     0.045 C 
HETATM   25 CL1  UNL     1      27.958   2.316  53.048  1.00  0.00    -0.083 Cl
HETATM   26  C5  UNL     1      25.652   2.223  51.722  1.00  0.00    -0.004 C 
HETATM   27  C6  UNL     1      24.340   2.168  51.729  1.00  0.00     0.016 C 
ENDBRANCH  18  20
ENDBRANCH   1  18
TORSDOF 2
ENDMDL
MODEL 4
REMARK VINA RESULT:      -7.7      2.385      3.280
REMARK  2 active torsions:
REMARK  status: ('A' for Active; 'I' for Inactive)
REMARK    1  A    between atoms: C7_8  and  N1_9 
REMARK    2  A    between atoms: N1_9  and  C8_10 
ROOT
HETATM    1  C8  UNL     1      22.611   3.489  50.600  1.00  0.00     0.006 C 
HETATM    2  C9  UNL     1      21.942   3.280  49.507  1.00  0.00     0.026 C 
HETATM    3  C10 UNL     1      21.793   2.977  48.129  1.00  0.00     0.021 C 
HETATM    4  C11 UNL     1      20.533   2.956  47.726  1.00  0.00     0.118 C 
HETATM    5  N2  UNL     1      19.555   3.233  48.717  1.00  0.00    -0.254 NA
HETATM    6  C12 UNL     1      18.963   4.374  48.838  1.00  0.00     0.233 C 
HETATM    7  N3  UNL     1      18.431   3.539  49.859  1.00  0.00    -0.235 NA
HETATM    8  C13 UNL     1      18.511   3.821  51.133  1.00  0.00     0.233 C 
HETATM    9  N4  UNL     1      17.818   2.597  51.245  1.00  0.00    -0.254 NA
HETATM   10  C14 UNL     1      18.367   1.513  51.615  1.00  0.00     0.118 C 
HETATM   11  C15 UNL     1      19.720   1.162  52.011  1.00  0.00     0.021 C 
HETATM   12  C16 UNL     1      20.795   0.517  52.408  1.00  0.00     0.025 C 
HETATM   13  C17 UNL     1      22.186   0.459  52.745  1.00  0.00     0.030 C 
HETATM   14 CL2  UNL     1      22.469  -1.247  53.209  1.00  0.00    -0.085 Cl
HETATM   15  C18 UNL     1      23.142   1.370  52.754  1.00  0.00    -0.003 C 
HETATM   16  C19 UNL     1      23.785   2.652  52.602  1.00  0.00     0.035 C 
HETATM   17  C20 UNL     1      22.972   3.773  51.988  1.00  0.00     0.060 C 
ENDROOT
BRANCH   1  18
HETATM   18  N1  UNL     1      23.857   3.265  49.893  1.00  0.00    -0.381 N 
HETATM   19  H7  UNL     1      24.184   2.429  49.311  1.00  0.00     0.160 HD
BRANCH  18  20
HETATM   20  C7  UNL     1      24.819   4.368  50.011  1.00  0.00     0.134 C 
HETATM   21  C2  UNL     1      26.198   3.867  49.810  1.00  0.00    -0.056 C 
HETATM   22  C1  UNL     1      26.622   2.536  50.328  1.00  0.00     0.046 C 
HETATM   23  C3  UNL     1      27.127   4.565  49.165  1.00  0.00     0.029 C 
HETATM   24  C4  UNL     1      26.744   5.881  48.641  1.00  0.00     0.045 C 
HETATM   25 CL1  UNL     1      27.942   7.109  48.330  1.00  0.00    -0.083 Cl
HETATM   26  C5  UNL     1      25.482   6.095  48.418  1.00  0.00    -0.004 C 
HETATM   27  C6  UNL     1      24.531   5.481  49.082  1.00  0.00     0.016 C 
ENDBRANCH  18  20
ENDBRANCH   1  18
TORSDOF 2
ENDMDL
MODEL 5
REMARK VINA RESULT:      -7.6      2.860      7.150
REMARK  2 active torsions:
REMARK  status: ('A' for Active; 'I' for Inactive)
REMARK    1  A    between atoms: C7_8  and  N1_9 
REMARK    2  A    between atoms: N1_9  and  C8_10 
ROOT
HETATM    1  C8  UNL     1      24.259   3.836  51.497  1.00  0.00     0.006 C 
HETATM    2  C9  UNL     1      25.073   4.237  50.569  1.00  0.00     0.026 C 
HETATM    3  C10 UNL     1      26.123   4.089  49.626  1.00  0.00     0.021 C 
HETATM    4  C11 UNL     1      26.389   5.195  48.952  1.00  0.00     0.118 C 
HETATM    5  N2  UNL     1      25.598   6.329  49.274  1.00  0.00    -0.254 NA
HETATM    6  C12 UNL     1      26.006   7.296  50.025  1.00  0.00     0.233 C 
HETATM    7  N3  UNL     1      24.680   7.627  49.636  1.00  0.00    -0.235 NA
HETATM    8  C13 UNL     1      23.706   7.820  50.488  1.00  0.00     0.233 C 
HETATM    9  N4  UNL     1      22.977   8.044  49.301  1.00  0.00    -0.254 NA
HETATM   10  C14 UNL     1      22.164   7.202  48.809  1.00  0.00     0.118 C 
HETATM   11  C15 UNL     1      21.730   5.877  49.216  1.00  0.00     0.021 C 
HETATM   12  C16 UNL     1      21.136   4.705  49.285  1.00  0.00     0.025 C 
HETATM   13  C17 UNL     1      20.897   3.440  49.913  1.00  0.00     0.030 C 
HETATM   14 CL2  UNL     1      19.687   2.636  48.868  1.00  0.00    -0.085 Cl
HETATM   15  C18 UNL     1      21.386   2.878  51.003  1.00  0.00    -0.003 C 
HETATM   16  C19 UNL     1      22.176   2.714  52.199  1.00  0.00     0.035 C 
HETATM   17  C20 UNL     1      23.204   3.782  52.508  1.00  0.00     0.060 C 
ENDROOT
BRANCH   1  18
HETATM   18  N1  UNL     1      24.843   2.510  51.450  1.00  0.00    -0.381 N 
HETATM   19  H7  UNL     1      24.803   1.760  50.687  1.00  0.00     0.160 HD
BRANCH  18  20
HETATM   20  C7  UNL     1      25.604   2.147  52.653  1.00  0.00     0.134 C 
HETATM   21  C2  UNL     1      25.357   0.730  53.005  1.00  0.00    -0.056 C 
HETATM   22  C1  UNL     1      24.011   0.113  52.839  1.00  0.00     0.046 C 
HETATM   23  C3  UNL     1      26.308  -0.065  53.485  1.00  0.00     0.029 C 
HETATM   24  C4  UNL     1      27.646   0.510  53.661  1.00  0.00     0.045 C 
HETATM   25 CL1  UNL     1      28.781  -0.183  54.789  1.00  0.00    -0.083 Cl
HETATM   26  C5  UNL     1      27.953   1.551  52.947  1.00  0.00    -0.004 C 
HETATM   27  C6  UNL     1      27.053   2.402  52.513  1.00  0.00     0.016 C 
ENDBRANCH  18  20
ENDBRANCH   1  18
TORSDOF 2
ENDMDL
MODEL 6
REMARK VINA RESULT:      -7.5      2.946      6.809
REMARK  2 active torsions:
REMARK  status: ('A' for Active; 'I' for Inactive)
REMARK    1  A    between atoms: C7_8  and  N1_9 
REMARK    2  A    between atoms: N1_9  and  C8_10 
ROOT
HETATM    1  C8  UNL     1      24.593   3.653  50.385  1.00  0.00     0.006 C 
HETATM    2  C9  UNL     1      23.692   4.334  51.024  1.00  0.00     0.026 C 
HETATM    3  C10 UNL     1      23.078   4.892  52.175  1.00  0.00     0.021 C 
HETATM    4  C11 UNL     1      21.982   5.582  51.908  1.00  0.00     0.118 C 
HETATM    5  N2  UNL     1      21.604   5.650  50.541  1.00  0.00    -0.254 NA
HETATM    6  C12 UNL     1      20.666   4.932  50.022  1.00  0.00     0.233 C 
HETATM    7  N3  UNL     1      21.178   5.739  48.969  1.00  0.00    -0.235 NA
HETATM    8  C13 UNL     1      21.702   5.248  47.876  1.00  0.00     0.233 C 
HETATM    9  N4  UNL     1      21.858   6.617  47.573  1.00  0.00    -0.254 NA
HETATM   10  C14 UNL     1      22.970   7.226  47.640  1.00  0.00     0.118 C 
HETATM   11  C15 UNL     1      24.315   6.814  48.000  1.00  0.00     0.021 C 
HETATM   12  C16 UNL     1      25.605   6.788  48.254  1.00  0.00     0.025 C 
HETATM   13  C17 UNL     1      26.806   6.115  48.651  1.00  0.00     0.030 C 
HETATM   14 CL2  UNL     1      28.078   7.373  48.575  1.00  0.00    -0.085 Cl
HETATM   15  C18 UNL     1      27.054   4.870  49.013  1.00  0.00    -0.003 C 
HETATM   16  C19 UNL     1      26.814   3.482  49.321  1.00  0.00     0.035 C 
HETATM   17  C20 UNL     1      25.375   3.007  49.332  1.00  0.00     0.060 C 
ENDROOT
BRANCH   1  18
HETATM   18  N1  UNL     1      25.275   3.363  51.631  1.00  0.00    -0.381 N 
HETATM   19  H7  UNL     1      25.769   4.017  52.320  1.00  0.00     0.160 HD
BRANCH  18  20
HETATM   20  C7  UNL     1      25.288   1.940  51.991  1.00  0.00     0.134 C 
HETATM   21  C2  UNL     1      26.312   1.684  53.030  1.00  0.00    -0.056 C 
HETATM   22  C1  UNL     1      27.621   2.396  53.020  1.00  0.00     0.046 C 
HETATM   23  C3  UNL     1      26.127   0.817  54.020  1.00  0.00     0.029 C 
HETATM   24  C4  UNL     1      24.849   0.098  54.061  1.00  0.00     0.045 C 
HETATM   25 CL1  UNL     1      24.702  -1.430  54.887  1.00  0.00    -0.083 Cl
HETATM   26  C5  UNL     1      23.833   0.642  53.460  1.00  0.00    -0.004 C 
HETATM   27  C6  UNL     1      23.966   1.447  52.432  1.00  0.00     0.016 C 
ENDBRANCH  18  20
ENDBRANCH   1  18
TORSDOF 2
ENDMDL
MODEL 7
REMARK VINA RESULT:      -7.3      3.281      6.679
REMARK  2 active torsions:
REMARK  status: ('A' for Active; 'I' for Inactive)
REMARK    1  A    between atoms: C7_8  and  N1_9 
REMARK    2  A    between atoms: N1_9  and  C8_10 
ROOT
HETATM    1  C8  UNL     1      21.457   2.480  51.380  1.00  0.00     0.006 C 
HETATM    2  C9  UNL     1      22.033   2.837  50.273  1.00  0.00     0.026 C 
HETATM    3  C10 UNL     1      22.976   2.723  49.218  1.00  0.00     0.021 C 
HETATM    4  C11 UNL     1      22.874   3.681  48.312  1.00  0.00     0.118 C 
HETATM    5  N2  UNL     1      21.860   4.649  48.536  1.00  0.00    -0.254 NA
HETATM    6  C12 UNL     1      22.088   5.826  49.013  1.00  0.00     0.233 C 
HETATM    7  N3  UNL     1      20.686   5.752  48.788  1.00  0.00    -0.235 NA
HETATM    8  C13 UNL     1      19.796   5.906  49.734  1.00  0.00     0.233 C 
HETATM    9  N4  UNL     1      18.907   5.687  48.661  1.00  0.00    -0.254 NA
HETATM   10  C14 UNL     1      18.287   4.594  48.477  1.00  0.00     0.118 C 
HETATM   11  C15 UNL     1      18.254   3.331  49.193  1.00  0.00     0.021 C 
HETATM   12  C16 UNL     1      17.991   2.102  49.579  1.00  0.00     0.025 C 
HETATM   13  C17 UNL     1      18.155   0.989  50.467  1.00  0.00     0.030 C 
HETATM   14 CL2  UNL     1      17.082  -0.282  49.804  1.00  0.00    -0.085 Cl
HETATM   15  C18 UNL     1      18.888   0.811  51.550  1.00  0.00    -0.003 C 
HETATM   16  C19 UNL     1      19.821   1.103  52.611  1.00  0.00     0.035 C 
HETATM   17  C20 UNL     1      20.570   2.418  52.540  1.00  0.00     0.060 C 
ENDROOT
BRANCH   1  18
HETATM   18  N1  UNL     1      22.352   1.345  51.492  1.00  0.00    -0.381 N 
HETATM   19  H7  UNL     1      22.500   0.510  50.839  1.00  0.00     0.160 HD
BRANCH  18  20
HETATM   20  C7  UNL     1      23.178   1.351  52.706  1.00  0.00     0.134 C 
HETATM   21  C2  UNL     1      23.440  -0.037  53.152  1.00  0.00    -0.056 C 
HETATM   22  C1  UNL     1      22.399  -1.096  53.042  1.00  0.00     0.046 C 
HETATM   23  C3  UNL     1      24.605  -0.415  53.670  1.00  0.00     0.029 C 
HETATM   24  C4  UNL     1      25.654   0.603  53.793  1.00  0.00     0.045 C 
HETATM   25 CL1  UNL     1      26.946   0.428  54.950  1.00  0.00    -0.083 Cl
HETATM   26  C5  UNL     1      25.583   1.638  53.011  1.00  0.00    -0.004 C 
HETATM   27  C6  UNL     1      24.446   2.089  52.534  1.00  0.00     0.016 C 
ENDBRANCH  18  20
ENDBRANCH   1  18
TORSDOF 2
ENDMDL
MODEL 8
REMARK VINA RESULT:      -7.3      2.598      4.479
REMARK  2 active torsions:
REMARK  status: ('A' for Active; 'I' for Inactive)
REMARK    1  A    between atoms: C7_8  and  N1_9 
REMARK    2  A    between atoms: N1_9  and  C8_10 
ROOT
HETATM    1  C8  UNL     1      22.650   2.520  50.468  1.00  0.00     0.006 C 
HETATM    2  C9  UNL     1      23.154   3.098  51.515  1.00  0.00     0.026 C 
HETATM    3  C10 UNL     1      23.376   4.182  52.405  1.00  0.00     0.021 C 
HETATM    4  C11 UNL     1      24.168   3.878  53.420  1.00  0.00     0.118 C 
HETATM    5  N2  UNL     1      24.656   2.545  53.456  1.00  0.00    -0.254 NA
HETATM    6  C12 UNL     1      25.847   2.211  53.090  1.00  0.00     0.233 C 
HETATM    7  N3  UNL     1      25.206   1.010  53.502  1.00  0.00    -0.235 NA
HETATM    8  C13 UNL     1      25.035  -0.021  52.716  1.00  0.00     0.233 C 
HETATM    9  N4  UNL     1      24.425  -0.551  53.873  1.00  0.00    -0.254 NA
HETATM   10  C14 UNL     1      23.168  -0.655  54.016  1.00  0.00     0.118 C 
HETATM   11  C15 UNL     1      22.034  -0.321  53.171  1.00  0.00     0.021 C 
HETATM   12  C16 UNL     1      20.823  -0.150  52.688  1.00  0.00     0.025 C 
HETATM   13  C17 UNL     1      19.915   0.273  51.665  1.00  0.00     0.030 C 
HETATM   14 CL2  UNL     1      18.289  -0.088  52.323  1.00  0.00    -0.085 Cl
HETATM   15  C18 UNL     1      20.099   0.814  50.475  1.00  0.00    -0.003 C 
HETATM   16  C19 UNL     1      20.792   1.358  49.333  1.00  0.00     0.035 C 
HETATM   17  C20 UNL     1      22.292   1.537  49.447  1.00  0.00     0.060 C 
ENDROOT
BRANCH   1  18
HETATM   18  N1  UNL     1      21.977   3.751  50.099  1.00  0.00    -0.381 N 
HETATM   19  H7  UNL     1      21.235   4.320  50.622  1.00  0.00     0.160 HD
BRANCH  18  20
HETATM   20  C7  UNL     1      22.382   4.287  48.794  1.00  0.00     0.134 C 
HETATM   21  C2  UNL     1      21.330   5.184  48.262  1.00  0.00    -0.056 C 
HETATM   22  C1  UNL     1      19.884   4.883  48.455  1.00  0.00     0.046 C 
HETATM   23  C3  UNL     1      21.609   6.296  47.589  1.00  0.00     0.029 C 
HETATM   24  C4  UNL     1      23.024   6.623  47.380  1.00  0.00     0.045 C 
HETATM   25 CL1  UNL     1      23.523   7.655  46.066  1.00  0.00    -0.083 Cl
HETATM   26  C5  UNL     1      23.887   6.117  48.208  1.00  0.00    -0.004 C 
HETATM   27  C6  UNL     1      23.684   4.985  48.839  1.00  0.00     0.016 C 
ENDBRANCH  18  20
ENDBRANCH   1  18
TORSDOF 2
ENDMDL
MODEL 9
REMARK VINA RESULT:      -7.2      2.869      7.513
REMARK  2 active torsions:
REMARK  status: ('A' for Active; 'I' for Inactive)
REMARK    1  A    between atoms: C7_8  and  N1_9 
REMARK    2  A    between atoms: N1_9  and  C8_10 
ROOT
HETATM    1  C8  UNL     1      23.080   4.282  51.370  1.00  0.00     0.006 C 
HETATM    2  C9  UNL     1      24.055   4.437  50.527  1.00  0.00     0.026 C 
HETATM    3  C10 UNL     1      25.114   3.998  49.690  1.00  0.00     0.021 C 
HETATM    4  C11 UNL     1      25.724   4.981  49.050  1.00  0.00     0.118 C 
HETATM    5  N2  UNL     1      25.232   6.290  49.299  1.00  0.00    -0.254 NA
HETATM    6  C12 UNL     1      25.807   7.131  50.090  1.00  0.00     0.233 C 
HETATM    7  N3  UNL     1      24.657   7.791  49.575  1.00  0.00    -0.235 NA
HETATM    8  C13 UNL     1      23.693   8.250  50.330  1.00  0.00     0.233 C 
HETATM    9  N4  UNL     1      23.164   8.632  49.080  1.00  0.00    -0.254 NA
HETATM   10  C14 UNL     1      22.208   8.022  48.508  1.00  0.00     0.118 C 
HETATM   11  C15 UNL     1      21.405   6.866  48.865  1.00  0.00     0.021 C 
HETATM   12  C16 UNL     1      20.520   5.893  48.870  1.00  0.00     0.025 C 
HETATM   13  C17 UNL     1      19.899   4.749  49.467  1.00  0.00     0.030 C 
HETATM   14 CL2  UNL     1      18.623   4.268  48.306  1.00  0.00    -0.085 Cl
HETATM   15  C18 UNL     1      20.117   4.101  50.597  1.00  0.00    -0.003 C 
HETATM   16  C19 UNL     1      20.719   3.761  51.862  1.00  0.00     0.035 C 
HETATM   17  C20 UNL     1      21.958   4.529  52.274  1.00  0.00     0.060 C 
ENDROOT
BRANCH   1  18
HETATM   18  N1  UNL     1      23.297   2.848  51.374  1.00  0.00    -0.381 N 
HETATM   19  H7  UNL     1      23.228   2.134  50.580  1.00  0.00     0.160 HD
BRANCH  18  20
HETATM   20  C7  UNL     1      23.662   2.301  52.687  1.00  0.00     0.134 C 
HETATM   21  C2  UNL     1      23.348   0.855  52.743  1.00  0.00    -0.056 C 
HETATM   22  C1  UNL     1      22.129   0.301  52.089  1.00  0.00     0.046 C 
HETATM   23  C3  UNL     1      24.124  -0.023  53.371  1.00  0.00     0.029 C 
HETATM   24  C4  UNL     1      25.333   0.488  54.026  1.00  0.00     0.045 C 
HETATM   25 CL1  UNL     1      26.084  -0.384  55.336  1.00  0.00    -0.083 Cl
HETATM   26  C5  UNL     1      25.821   1.612  53.595  1.00  0.00    -0.004 C 
HETATM   27  C6  UNL     1      25.079   2.538  53.033  1.00  0.00     0.016 C 
ENDBRANCH  18  20
ENDBRANCH   1  18
TORSDOF 2
ENDMDL
