MODEL 1
REMARK VINA RESULT:      -7.6      0.000      0.000
REMARK  5 active torsions:
REMARK  status: ('A' for Active; 'I' for Inactive)
REMARK    1  A    between atoms: N1_1  and  C1_2 
REMARK    2  A    between atoms: C1_2  and  C2_3 
REMARK    3  A    between atoms: C3_4  and  C4_5 
REMARK    4  A    between atoms: C10_13  and  N3_14 
REMARK    5  A    between atoms: N3_14  and  S1_15 
ROOT
HETATM    1  C4  UNL     1      25.419   2.778  50.762  1.00  0.00     0.010 C 
HETATM    2  C5  UNL     1      24.346   2.744  51.533  1.00  0.00    -0.017 C 
HETATM    3  C6  UNL     1      23.363   3.825  51.801  1.00  0.00     0.217 C 
HETATM    4  O1  UNL     1      22.197   3.042  52.075  1.00  0.00    -0.329 OA
HETATM    5  C7  UNL     1      22.581   1.812  52.620  1.00  0.00     0.177 A 
HETATM    6  N2  UNL     1      21.994   0.834  53.347  1.00  0.00    -0.236 NA
HETATM    7  C8  UNL     1      22.658  -0.266  53.730  1.00  0.00     0.122 A 
HETATM    8  C9  UNL     1      23.973  -0.515  53.435  1.00  0.00     0.052 A 
HETATM    9  C10 UNL     1      24.594   0.470  52.694  1.00  0.00     0.079 A 
HETATM   10  C16 UNL     1      23.884   1.600  52.309  1.00  0.00     0.054 A 
ENDROOT
BRANCH   9  11
HETATM   11  N3  UNL     1      25.979   0.255  52.356  1.00  0.00    -0.235 NA
BRANCH  11  12
HETATM   12  S1  UNL     1      26.947   0.165  53.585  1.00  0.00    -0.142 SA
HETATM   13  C11 UNL     1      27.787  -1.195  53.551  1.00  0.00     0.043 C 
HETATM   14  C12 UNL     1      29.225  -1.091  53.270  1.00  0.00     0.003 C 
HETATM   15  C13 UNL     1      29.937  -0.043  53.581  1.00  0.00    -0.025 C 
HETATM   16  C14 UNL     1      29.324   1.141  54.254  1.00  0.00     0.037 C 
HETATM   17  C15 UNL     1      28.040   1.541  53.559  1.00  0.00     0.081 C 
HETATM   18  H12 UNL     1      26.192   0.216  54.734  1.00  0.00     0.108 HD
ENDBRANCH  11  12
ENDBRANCH   9  11
BRANCH   1  19
HETATM   19  C3  UNL     1      25.730   4.015  50.055  1.00  0.00    -0.002 C 
HETATM   20  C2  UNL     1      26.842   4.114  49.359  1.00  0.00     0.003 C 
BRANCH  20  21
HETATM   21  C1  UNL     1      27.379   5.226  48.572  1.00  0.00     0.294 C 
BRANCH  21  22
HETATM   22  N1  UNL     1      27.339   6.503  49.255  1.00  0.00     0.081 N 
HETATM   23  H1  UNL     1      28.264   6.982  49.277  1.00  0.00     0.313 HD
HETATM   24  H2  UNL     1      26.651   7.162  48.827  1.00  0.00     0.313 HD
ENDBRANCH  21  22
ENDBRANCH  20  21
ENDBRANCH   1  19
TORSDOF 5
ENDMDL
MODEL 2
REMARK VINA RESULT:      -7.3      1.751      5.157
REMARK  5 active torsions:
REMARK  status: ('A' for Active; 'I' for Inactive)
REMARK    1  A    between atoms: N1_1  and  C1_2 
REMARK    2  A    between atoms: C1_2  and  C2_3 
REMARK    3  A    between atoms: C3_4  and  C4_5 
REMARK    4  A    between atoms: C10_13  and  N3_14 
REMARK    5  A    between atoms: N3_14  and  S1_15 
ROOT
HETATM    1  C4  UNL     1      23.125   1.230  53.032  1.00  0.00     0.010 C 
HETATM    2  C5  UNL     1      23.098   1.561  51.752  1.00  0.00    -0.017 C 
HETATM    3  C6  UNL     1      22.066   1.237  50.734  1.00  0.00     0.217 C 
HETATM    4  O1  UNL     1      22.220   2.357  49.856  1.00  0.00    -0.329 OA
HETATM    5  C7  UNL     1      23.544   2.806  49.904  1.00  0.00     0.177 A 
HETATM    6  N2  UNL     1      24.355   3.556  49.124  1.00  0.00    -0.236 NA
HETATM    7  C8  UNL     1      25.627   3.816  49.461  1.00  0.00     0.122 A 
HETATM    8  C9  UNL     1      26.230   3.363  50.605  1.00  0.00     0.052 A 
HETATM    9  C10 UNL     1      25.421   2.595  51.417  1.00  0.00     0.079 A 
HETATM   10  C16 UNL     1      24.108   2.339  51.046  1.00  0.00     0.054 A 
ENDROOT
BRANCH   9  11
HETATM   11  N3  UNL     1      26.009   2.094  52.634  1.00  0.00    -0.235 NA
BRANCH  11  12
HETATM   12  S1  UNL     1      27.380   1.359  52.446  1.00  0.00    -0.142 SA
HETATM   13  C11 UNL     1      28.497   1.981  53.406  1.00  0.00     0.043 C 
HETATM   14  C12 UNL     1      28.962   1.150  54.525  1.00  0.00     0.003 C 
HETATM   15  C13 UNL     1      28.970  -0.154  54.487  1.00  0.00    -0.025 C 
HETATM   16  C14 UNL     1      28.498  -0.900  53.282  1.00  0.00     0.037 C 
HETATM   17  C15 UNL     1      27.172  -0.349  52.803  1.00  0.00     0.081 C 
HETATM   18  H12 UNL     1      27.767   1.497  51.133  1.00  0.00     0.108 HD
ENDBRANCH  11  12
ENDBRANCH   9  11
BRANCH   1  19
HETATM   19  C3  UNL     1      22.023   0.443  53.572  1.00  0.00    -0.002 C 
HETATM   20  C2  UNL     1      22.212  -0.817  53.899  1.00  0.00     0.003 C 
BRANCH  20  21
HETATM   21  C1  UNL     1      21.286  -1.808  54.452  1.00  0.00     0.294 C 
BRANCH  21  22
HETATM   22  N1  UNL     1      19.896  -1.563  54.122  1.00  0.00     0.081 N 
HETATM   23  H1  UNL     1      19.774  -1.089  53.203  1.00  0.00     0.313 HD
HETATM   24  H2  UNL     1      19.331  -2.441  54.104  1.00  0.00     0.313 HD
ENDBRANCH  21  22
ENDBRANCH  20  21
ENDBRANCH   1  19
TORSDOF 5
ENDMDL
MODEL 3
REMARK VINA RESULT:      -7.2      2.442      5.938
REMARK  5 active torsions:
REMARK  status: ('A' for Active; 'I' for Inactive)
REMARK    1  A    between atoms: N1_1  and  C1_2 
REMARK    2  A    between atoms: C1_2  and  C2_3 
REMARK    3  A    between atoms: C3_4  and  C4_5 
REMARK    4  A    between atoms: C10_13  and  N3_14 
REMARK    5  A    between atoms: N3_14  and  S1_15 
ROOT
HETATM    1  C4  UNL     1      25.823   0.858  52.167  1.00  0.00     0.010 C 
HETATM    2  C5  UNL     1      25.698   1.993  51.501  1.00  0.00    -0.017 C 
HETATM    3  C6  UNL     1      26.763   2.834  50.896  1.00  0.00     0.217 C 
HETATM    4  O1  UNL     1      26.028   3.439  49.827  1.00  0.00    -0.329 OA
HETATM    5  C7  UNL     1      24.682   3.551  50.194  1.00  0.00     0.177 A 
HETATM    6  N2  UNL     1      23.614   4.279  49.798  1.00  0.00    -0.236 NA
HETATM    7  C8  UNL     1      22.410   4.150  50.373  1.00  0.00     0.122 A 
HETATM    8  C9  UNL     1      22.135   3.286  51.401  1.00  0.00     0.052 A 
HETATM    9  C10 UNL     1      23.211   2.532  51.823  1.00  0.00     0.079 A 
HETATM   10  C16 UNL     1      24.448   2.684  51.211  1.00  0.00     0.054 A 
ENDROOT
BRANCH   9  11
HETATM   11  N3  UNL     1      22.973   1.607  52.904  1.00  0.00    -0.235 NA
BRANCH  11  12
HETATM   12  S1  UNL     1      22.062   0.387  52.535  1.00  0.00    -0.142 SA
HETATM   13  C11 UNL     1      22.658  -0.971  53.130  1.00  0.00     0.043 C 
HETATM   14  C12 UNL     1      21.922  -1.605  54.232  1.00  0.00     0.003 C 
HETATM   15  C13 UNL     1      20.632  -1.487  54.386  1.00  0.00    -0.025 C 
HETATM   16  C14 UNL     1      19.806  -0.686  53.434  1.00  0.00     0.037 C 
HETATM   17  C15 UNL     1      20.448   0.660  53.176  1.00  0.00     0.081 C 
HETATM   18  H12 UNL     1      21.989   0.302  51.164  1.00  0.00     0.108 HD
ENDBRANCH  11  12
ENDBRANCH   9  11
BRANCH   1  19
HETATM   19  C3  UNL     1      27.159   0.309  52.364  1.00  0.00    -0.002 C 
HETATM   20  C2  UNL     1      27.308  -0.892  52.881  1.00  0.00     0.003 C 
BRANCH  20  21
HETATM   21  C1  UNL     1      28.520  -1.659  53.176  1.00  0.00     0.294 C 
BRANCH  21  22
HETATM   22  N1  UNL     1      28.348  -3.094  53.073  1.00  0.00     0.081 N 
HETATM   23  H1  UNL     1      29.200  -3.582  52.727  1.00  0.00     0.313 HD
HETATM   24  H2  UNL     1      28.081  -3.529  53.983  1.00  0.00     0.313 HD
ENDBRANCH  21  22
ENDBRANCH  20  21
ENDBRANCH   1  19
TORSDOF 5
ENDMDL
MODEL 4
REMARK VINA RESULT:      -7.1      2.802      5.901
REMARK  5 active torsions:
REMARK  status: ('A' for Active; 'I' for Inactive)
REMARK    1  A    between atoms: N1_1  and  C1_2 
REMARK    2  A    between atoms: C1_2  and  C2_3 
REMARK    3  A    between atoms: C3_4  and  C4_5 
REMARK    4  A    between atoms: C10_13  and  N3_14 
REMARK    5  A    between atoms: N3_14  and  S1_15 
ROOT
HETATM    1  C4  UNL     1      21.608   0.078  52.364  1.00  0.00     0.010 C 
HETATM    2  C5  UNL     1      22.202  -0.222  53.507  1.00  0.00    -0.017 C 
HETATM    3  C6  UNL     1      21.582  -0.629  54.794  1.00  0.00     0.217 C 
HETATM    4  O1  UNL     1      22.639  -1.425  55.340  1.00  0.00    -0.329 OA
HETATM    5  C7  UNL     1      23.868  -0.952  54.869  1.00  0.00     0.177 A 
HETATM    6  N2  UNL     1      25.165  -1.048  55.241  1.00  0.00    -0.236 NA
HETATM    7  C8  UNL     1      26.150  -0.454  54.552  1.00  0.00     0.122 A 
HETATM    8  C9  UNL     1      25.957   0.297  53.422  1.00  0.00     0.052 A 
HETATM    9  C10 UNL     1      24.641   0.409  53.023  1.00  0.00     0.079 A 
HETATM   10  C16 UNL     1      23.639  -0.215  53.754  1.00  0.00     0.054 A 
ENDROOT
BRANCH   9  11
HETATM   11  N3  UNL     1      24.384   1.189  51.838  1.00  0.00    -0.235 NA
BRANCH  11  12
HETATM   12  S1  UNL     1      25.095   2.586  51.806  1.00  0.00    -0.142 SA
HETATM   13  C11 UNL     1      26.421   2.530  50.914  1.00  0.00     0.043 C 
HETATM   14  C12 UNL     1      26.404   3.253  49.635  1.00  0.00     0.003 C 
HETATM   15  C13 UNL     1      25.677   4.317  49.429  1.00  0.00    -0.025 C 
HETATM   16  C14 UNL     1      24.800   4.879  50.500  1.00  0.00     0.037 C 
HETATM   17  C15 UNL     1      23.985   3.781  51.150  1.00  0.00     0.081 C 
HETATM   18  H12 UNL     1      25.417   2.935  53.096  1.00  0.00     0.108 HD
ENDBRANCH  11  12
ENDBRANCH   9  11
BRANCH   1  19
HETATM   19  C3  UNL     1      20.152   0.017  52.299  1.00  0.00    -0.002 C 
HETATM   20  C2  UNL     1      19.525   0.413  51.212  1.00  0.00     0.003 C 
BRANCH  20  21
HETATM   21  C1  UNL     1      18.095   0.453  50.898  1.00  0.00     0.294 C 
BRANCH  21  22
HETATM   22  N1  UNL     1      17.807   0.581  49.484  1.00  0.00     0.081 N 
HETATM   23  H1  UNL     1      18.535   1.118  48.967  1.00  0.00     0.313 HD
HETATM   24  H2  UNL     1      17.705  -0.346  49.014  1.00  0.00     0.313 HD
ENDBRANCH  21  22
ENDBRANCH  20  21
ENDBRANCH   1  19
TORSDOF 5
ENDMDL
MODEL 5
REMARK VINA RESULT:      -7.1      3.210      5.837
REMARK  5 active torsions:
REMARK  status: ('A' for Active; 'I' for Inactive)
REMARK    1  A    between atoms: N1_1  and  C1_2 
REMARK    2  A    between atoms: C1_2  and  C2_3 
REMARK    3  A    between atoms: C3_4  and  C4_5 
REMARK    4  A    between atoms: C10_13  and  N3_14 
REMARK    5  A    between atoms: N3_14  and  S1_15 
ROOT
HETATM    1  C4  UNL     1      23.888   0.374  53.046  1.00  0.00     0.010 C 
HETATM    2  C5  UNL     1      22.831  -0.295  53.474  1.00  0.00    -0.017 C 
HETATM    3  C6  UNL     1      22.747  -1.293  54.570  1.00  0.00     0.217 C 
HETATM    4  O1  UNL     1      21.385  -1.111  54.972  1.00  0.00    -0.329 OA
HETATM    5  C7  UNL     1      20.629  -0.693  53.871  1.00  0.00     0.177 A 
HETATM    6  N2  UNL     1      19.321  -0.672  53.531  1.00  0.00    -0.236 NA
HETATM    7  C8  UNL     1      18.898  -0.187  52.354  1.00  0.00     0.122 A 
HETATM    8  C9  UNL     1      19.725   0.328  51.391  1.00  0.00     0.052 A 
HETATM    9  C10 UNL     1      21.066   0.317  51.716  1.00  0.00     0.079 A 
HETATM   10  C16 UNL     1      21.478  -0.191  52.940  1.00  0.00     0.054 A 
ENDROOT
BRANCH   9  11
HETATM   11  N3  UNL     1      21.978   0.848  50.734  1.00  0.00    -0.235 NA
BRANCH  11  12
HETATM   12  S1  UNL     1      21.884   2.398  50.522  1.00  0.00    -0.142 SA
HETATM   13  C11 UNL     1      21.850   3.164  51.925  1.00  0.00     0.043 C 
HETATM   14  C12 UNL     1      23.033   3.955  52.289  1.00  0.00     0.003 C 
HETATM   15  C13 UNL     1      23.816   4.512  51.405  1.00  0.00    -0.025 C 
HETATM   16  C14 UNL     1      23.555   4.378  49.941  1.00  0.00     0.037 C 
HETATM   17  C15 UNL     1      23.269   2.935  49.582  1.00  0.00     0.081 C 
HETATM   18  H12 UNL     1      20.734   2.668  49.818  1.00  0.00     0.108 HD
ENDBRANCH  11  12
ENDBRANCH   9  11
BRANCH   1  19
HETATM   19  C3  UNL     1      25.171   0.142  53.702  1.00  0.00    -0.002 C 
HETATM   20  C2  UNL     1      26.201  -0.280  53.001  1.00  0.00     0.003 C 
BRANCH  20  21
HETATM   21  C1  UNL     1      27.574  -0.584  53.413  1.00  0.00     0.294 C 
BRANCH  21  22
HETATM   22  N1  UNL     1      27.833  -0.342  54.817  1.00  0.00     0.081 N 
HETATM   23  H1  UNL     1      28.736  -0.750  55.140  1.00  0.00     0.313 HD
HETATM   24  H2  UNL     1      27.844   0.676  55.051  1.00  0.00     0.313 HD
ENDBRANCH  21  22
ENDBRANCH  20  21
ENDBRANCH   1  19
TORSDOF 5
ENDMDL
MODEL 6
REMARK VINA RESULT:      -7.1      2.770      5.383
REMARK  5 active torsions:
REMARK  status: ('A' for Active; 'I' for Inactive)
REMARK    1  A    between atoms: N1_1  and  C1_2 
REMARK    2  A    between atoms: C1_2  and  C2_3 
REMARK    3  A    between atoms: C3_4  and  C4_5 
REMARK    4  A    between atoms: C10_13  and  N3_14 
REMARK    5  A    between atoms: N3_14  and  S1_15 
ROOT
HETATM    1  C4  UNL     1      25.307   1.832  51.891  1.00  0.00     0.010 C 
HETATM    2  C5  UNL     1      25.548   0.735  52.587  1.00  0.00    -0.017 C 
HETATM    3  C6  UNL     1      26.780  -0.094  52.611  1.00  0.00     0.217 C 
HETATM    4  O1  UNL     1      26.696  -0.630  53.936  1.00  0.00    -0.329 OA
HETATM    5  C7  UNL     1      25.351  -0.734  54.310  1.00  0.00     0.177 A 
HETATM    6  N2  UNL     1      24.640  -1.420  55.232  1.00  0.00    -0.236 NA
HETATM    7  C8  UNL     1      23.309  -1.297  55.342  1.00  0.00     0.122 A 
HETATM    8  C9  UNL     1      22.542  -0.481  54.552  1.00  0.00     0.052 A 
HETATM    9  C10 UNL     1      23.247   0.230  53.602  1.00  0.00     0.079 A 
HETATM   10  C16 UNL     1      24.625   0.084  53.508  1.00  0.00     0.054 A 
ENDROOT
BRANCH   9  11
HETATM   11  N3  UNL     1      22.485   1.103  52.745  1.00  0.00    -0.235 NA
BRANCH  11  12
HETATM   12  S1  UNL     1      21.819   0.397  51.515  1.00  0.00    -0.142 SA
HETATM   13  C11 UNL     1      20.242   0.248  51.729  1.00  0.00     0.043 C 
HETATM   14  C12 UNL     1      19.367   1.073  50.885  1.00  0.00     0.003 C 
HETATM   15  C13 UNL     1      19.698   1.466  49.687  1.00  0.00    -0.025 C 
HETATM   16  C14 UNL     1      21.013   1.097  49.083  1.00  0.00     0.037 C 
HETATM   17  C15 UNL     1      22.137   1.342  50.067  1.00  0.00     0.081 C 
HETATM   18  H12 UNL     1      22.389  -0.846  51.371  1.00  0.00     0.108 HD
ENDBRANCH  11  12
ENDBRANCH   9  11
BRANCH   1  19
HETATM   19  C3  UNL     1      26.353   2.345  51.013  1.00  0.00    -0.002 C 
HETATM   20  C2  UNL     1      26.120   3.394  50.254  1.00  0.00     0.003 C 
BRANCH  20  21
HETATM   21  C1  UNL     1      26.986   4.093  49.302  1.00  0.00     0.294 C 
BRANCH  21  22
HETATM   22  N1  UNL     1      26.992   5.533  49.460  1.00  0.00     0.081 N 
HETATM   23  H1  UNL     1      27.134   6.040  48.561  1.00  0.00     0.313 HD
HETATM   24  H2  UNL     1      26.109   5.890  49.889  1.00  0.00     0.313 HD
ENDBRANCH  21  22
ENDBRANCH  20  21
ENDBRANCH   1  19
TORSDOF 5
ENDMDL
MODEL 7
REMARK VINA RESULT:      -6.8      3.019      6.801
REMARK  5 active torsions:
REMARK  status: ('A' for Active; 'I' for Inactive)
REMARK    1  A    between atoms: N1_1  and  C1_2 
REMARK    2  A    between atoms: C1_2  and  C2_3 
REMARK    3  A    between atoms: C3_4  and  C4_5 
REMARK    4  A    between atoms: C10_13  and  N3_14 
REMARK    5  A    between atoms: N3_14  and  S1_15 
ROOT
HETATM    1  C4  UNL     1      21.438   0.261  52.746  1.00  0.00     0.010 C 
HETATM    2  C5  UNL     1      22.326  -0.065  53.670  1.00  0.00    -0.017 C 
HETATM    3  C6  UNL     1      22.089  -0.469  55.079  1.00  0.00     0.217 C 
HETATM    4  O1  UNL     1      23.235  -1.298  55.299  1.00  0.00    -0.329 OA
HETATM    5  C7  UNL     1      24.291  -0.852  54.496  1.00  0.00     0.177 A 
HETATM    6  N2  UNL     1      25.636  -0.986  54.482  1.00  0.00    -0.236 NA
HETATM    7  C8  UNL     1      26.400  -0.412  53.540  1.00  0.00     0.122 A 
HETATM    8  C9  UNL     1      25.912   0.355  52.515  1.00  0.00     0.052 A 
HETATM    9  C10 UNL     1      24.541   0.506  52.509  1.00  0.00     0.079 A 
HETATM   10  C16 UNL     1      23.772  -0.098  53.495  1.00  0.00     0.054 A 
ENDROOT
BRANCH   9  11
HETATM   11  N3  UNL     1      23.978   1.305  51.449  1.00  0.00    -0.235 NA
BRANCH  11  12
HETATM   12  S1  UNL     1      24.383   2.818  51.481  1.00  0.00    -0.142 SA
HETATM   13  C11 UNL     1      23.862   3.576  50.174  1.00  0.00     0.043 C 
HETATM   14  C12 UNL     1      22.775   4.549  50.349  1.00  0.00     0.003 C 
HETATM   15  C13 UNL     1      22.591   5.220  51.453  1.00  0.00    -0.025 C 
HETATM   16  C14 UNL     1      23.489   5.038  52.632  1.00  0.00     0.037 C 
HETATM   17  C15 UNL     1      23.699   3.566  52.917  1.00  0.00     0.081 C 
HETATM   18  H12 UNL     1      25.755   2.896  51.548  1.00  0.00     0.108 HD
ENDBRANCH  11  12
ENDBRANCH   9  11
BRANCH   1  19
HETATM   19  C3  UNL     1      20.024   0.239  53.099  1.00  0.00    -0.002 C 
HETATM   20  C2  UNL     1      19.319  -0.859  52.928  1.00  0.00     0.003 C 
BRANCH  20  21
HETATM   21  C1  UNL     1      17.907  -1.138  53.198  1.00  0.00     0.294 C 
BRANCH  21  22
HETATM   22  N1  UNL     1      17.682  -2.353  53.954  1.00  0.00     0.081 N 
HETATM   23  H1  UNL     1      16.967  -2.975  53.521  1.00  0.00     0.313 HD
HETATM   24  H2  UNL     1      18.555  -2.912  54.078  1.00  0.00     0.313 HD
ENDBRANCH  21  22
ENDBRANCH  20  21
ENDBRANCH   1  19
TORSDOF 5
ENDMDL
MODEL 8
REMARK VINA RESULT:      -6.7      2.639      5.238
REMARK  5 active torsions:
REMARK  status: ('A' for Active; 'I' for Inactive)
REMARK    1  A    between atoms: N1_1  and  C1_2 
REMARK    2  A    between atoms: C1_2  and  C2_3 
REMARK    3  A    between atoms: C3_4  and  C4_5 
REMARK    4  A    between atoms: C10_13  and  N3_14 
REMARK    5  A    between atoms: N3_14  and  S1_15 
ROOT
HETATM    1  C4  UNL     1      25.274   2.710  50.588  1.00  0.00     0.010 C 
HETATM    2  C5  UNL     1      25.370   1.670  51.398  1.00  0.00    -0.017 C 
HETATM    3  C6  UNL     1      26.576   0.876  51.746  1.00  0.00     0.217 C 
HETATM    4  O1  UNL     1      26.213   0.430  53.057  1.00  0.00    -0.329 OA
HETATM    5  C7  UNL     1      24.820   0.318  53.140  1.00  0.00     0.177 A 
HETATM    6  N2  UNL     1      23.933  -0.322  53.935  1.00  0.00    -0.236 NA
HETATM    7  C8  UNL     1      22.609  -0.225  53.747  1.00  0.00     0.122 A 
HETATM    8  C9  UNL     1      22.023   0.515  52.754  1.00  0.00     0.052 A 
HETATM    9  C10 UNL     1      22.909   1.177  51.929  1.00  0.00     0.079 A 
HETATM   10  C16 UNL     1      24.276   1.060  52.144  1.00  0.00     0.054 A 
ENDROOT
BRANCH   9  11
HETATM   11  N3  UNL     1      22.342   1.970  50.867  1.00  0.00    -0.235 NA
BRANCH  11  12
HETATM   12  S1  UNL     1      21.451   3.167  51.345  1.00  0.00    -0.142 SA
HETATM   13  C11 UNL     1      22.296   4.181  52.248  1.00  0.00     0.043 C 
HETATM   14  C12 UNL     1      22.597   5.501  51.676  1.00  0.00     0.003 C 
HETATM   15  C13 UNL     1      21.826   6.091  50.805  1.00  0.00    -0.025 C 
HETATM   16  C14 UNL     1      20.565   5.452  50.323  1.00  0.00     0.037 C 
HETATM   17  C15 UNL     1      20.814   4.008  49.940  1.00  0.00     0.081 C 
HETATM   18  H12 UNL     1      20.402   2.659  52.075  1.00  0.00     0.108 HD
ENDBRANCH  11  12
ENDBRANCH   9  11
BRANCH   1  19
HETATM   19  C3  UNL     1      26.480   3.188  49.921  1.00  0.00    -0.002 C 
HETATM   20  C2  UNL     1      26.492   4.375  49.354  1.00  0.00     0.003 C 
BRANCH  20  21
HETATM   21  C1  UNL     1      27.557   5.076  48.633  1.00  0.00     0.294 C 
BRANCH  21  22
HETATM   22  N1  UNL     1      27.733   6.455  49.039  1.00  0.00     0.081 N 
HETATM   23  H1  UNL     1      27.732   7.119  48.236  1.00  0.00     0.313 HD
HETATM   24  H2  UNL     1      26.998   6.769  49.711  1.00  0.00     0.313 HD
ENDBRANCH  21  22
ENDBRANCH  20  21
ENDBRANCH   1  19
TORSDOF 5
ENDMDL
MODEL 9
REMARK VINA RESULT:      -6.6      2.639      3.973
REMARK  5 active torsions:
REMARK  status: ('A' for Active; 'I' for Inactive)
REMARK    1  A    between atoms: N1_1  and  C1_2 
REMARK    2  A    between atoms: C1_2  and  C2_3 
REMARK    3  A    between atoms: C3_4  and  C4_5 
REMARK    4  A    between atoms: C10_13  and  N3_14 
REMARK    5  A    between atoms: N3_14  and  S1_15 
ROOT
HETATM    1  C4  UNL     1      27.781   4.844  48.781  1.00  0.00     0.010 C 
HETATM    2  C5  UNL     1      26.539   5.284  48.888  1.00  0.00    -0.017 C 
HETATM    3  C6  UNL     1      25.982   6.594  48.469  1.00  0.00     0.217 C 
HETATM    4  O1  UNL     1      24.626   6.218  48.206  1.00  0.00    -0.329 OA
HETATM    5  C7  UNL     1      24.275   5.142  49.028  1.00  0.00     0.177 A 
HETATM    6  N2  UNL     1      23.129   4.579  49.472  1.00  0.00    -0.236 NA
HETATM    7  C8  UNL     1      23.126   3.511  50.284  1.00  0.00     0.122 A 
HETATM    8  C9  UNL     1      24.258   2.888  50.741  1.00  0.00     0.052 A 
HETATM    9  C10 UNL     1      25.441   3.445  50.300  1.00  0.00     0.079 A 
HETATM   10  C16 UNL     1      25.417   4.551  49.461  1.00  0.00     0.054 A 
ENDROOT
BRANCH   9  11
HETATM   11  N3  UNL     1      26.661   2.825  50.754  1.00  0.00    -0.235 NA
BRANCH  11  12
HETATM   12  S1  UNL     1      26.575   2.168  52.174  1.00  0.00    -0.142 SA
HETATM   13  C11 UNL     1      26.159   0.628  52.065  1.00  0.00     0.043 C 
HETATM   14  C12 UNL     1      27.183  -0.372  52.396  1.00  0.00     0.003 C 
HETATM   15  C13 UNL     1      28.148  -0.147  53.245  1.00  0.00    -0.025 C 
HETATM   16  C14 UNL     1      28.275   1.163  53.949  1.00  0.00     0.037 C 
HETATM   17  C15 UNL     1      28.136   2.308  52.969  1.00  0.00     0.081 C 
HETATM   18  H12 UNL     1      25.636   2.852  52.909  1.00  0.00     0.108 HD
ENDBRANCH  11  12
ENDBRANCH   9  11
BRANCH   1  19
HETATM   19  C3  UNL     1      28.780   5.718  48.178  1.00  0.00    -0.002 C 
HETATM   20  C2  UNL     1      30.017   5.296  48.024  1.00  0.00     0.003 C 
BRANCH  20  21
HETATM   21  C1  UNL     1      31.190   5.967  47.457  1.00  0.00     0.294 C 
BRANCH  21  22
HETATM   22  N1  UNL     1      32.320   6.038  48.360  1.00  0.00     0.081 N 
HETATM   23  H1  UNL     1      32.297   5.306  49.100  1.00  0.00     0.313 HD
HETATM   24  H2  UNL     1      33.234   5.954  47.860  1.00  0.00     0.313 HD
ENDBRANCH  21  22
ENDBRANCH  20  21
ENDBRANCH   1  19
TORSDOF 5
ENDMDL
