MODEL 1
REMARK VINA RESULT:      -7.8      0.000      0.000
REMARK  5 active torsions:
REMARK  status: ('A' for Active; 'I' for Inactive)
REMARK    1  A    between atoms: N1_5  and  C4_6 
REMARK    2  A    between atoms: C4_6  and  C5_7 
REMARK    3  A    between atoms: C5_7  and  C6_8 
REMARK    4  A    between atoms: C6_8  and  N2_9 
REMARK    5  A    between atoms: C16_22  and  C17_23 
ROOT
HETATM    1  C1  UNL     1      21.579   7.022  50.884  1.00  0.00     0.030 C 
HETATM    2  C2  UNL     1      21.639   5.756  50.957  1.00  0.00     0.034 C 
HETATM    3  C3  UNL     1      22.531   4.842  51.706  1.00  0.00     0.254 C 
HETATM    4  O1  UNL     1      23.413   5.278  52.443  1.00  0.00    -0.267 OA
HETATM    5  N1  UNL     1      22.100   3.485  51.353  1.00  0.00    -0.337 N 
HETATM    6  C11 UNL     1      21.673   3.181  49.969  1.00  0.00     0.163 C 
HETATM    7  C12 UNL     1      20.236   3.614  50.008  1.00  0.00     0.015 C 
HETATM    8  C13 UNL     1      20.637   4.909  50.203  1.00  0.00    -0.006 C 
HETATM    9  C14 UNL     1      20.309   5.841  48.982  1.00  0.00     0.126 C 
HETATM   10  N3  UNL     1      20.623   5.440  47.655  1.00  0.00    -0.250 N 
HETATM   11  C15 UNL     1      21.461   4.168  47.675  1.00  0.00     0.397 A 
HETATM   12  N4  UNL     1      22.204   2.943  47.575  1.00  0.00     0.370 N 
HETATM   13  C16 UNL     1      22.355   3.712  48.788  1.00  0.00     0.313 A 
ENDROOT
BRANCH   5  14
HETATM   14  C4  UNL     1      22.169   2.526  52.441  1.00  0.00     0.128 C 
BRANCH  14  15
HETATM   15  C5  UNL     1      23.262   1.500  52.226  1.00  0.00     0.050 C 
BRANCH  15  16
HETATM   16  C6  UNL     1      24.460   1.989  53.018  1.00  0.00     0.274 C 
BRANCH  16  17
HETATM   17  N2  UNL     1      25.616   1.146  52.817  1.00  0.00     0.092 N 
HETATM   18  C7  UNL     1      26.623   1.477  53.803  1.00  0.00     0.298 C 
HETATM   19  C8  UNL     1      26.749   0.360  54.826  1.00  0.00     0.198 C 
HETATM   20  O2  UNL     1      27.157  -0.817  54.223  1.00  0.00    -0.388 OA
HETATM   21  C9  UNL     1      26.481  -1.070  53.040  1.00  0.00     0.198 C 
HETATM   22  C10 UNL     1      25.201  -0.240  52.940  1.00  0.00     0.298 C 
ENDBRANCH  16  17
ENDBRANCH  15  16
ENDBRANCH  14  15
ENDBRANCH   5  14
BRANCH  13  23
HETATM   23  C17 UNL     1      23.717   4.216  48.944  1.00  0.00    -0.007 A 
HETATM   24  C18 UNL     1      24.288   5.459  48.754  1.00  0.00     0.010 A 
HETATM   25  C19 UNL     1      25.629   5.687  48.973  1.00  0.00     0.004 A 
HETATM   26  C20 UNL     1      26.469   4.679  49.393  1.00  0.00     0.042 A 
HETATM   27  C21 UNL     1      25.934   3.424  49.593  1.00  0.00     0.117 A 
HETATM   28  F1  UNL     1      26.792   2.462  50.006  1.00  0.00    -0.206 F 
HETATM   29  C22 UNL     1      24.572   3.190  49.371  1.00  0.00     0.052 A 
ENDBRANCH  13  23
TORSDOF 5
ENDMDL
MODEL 2
REMARK VINA RESULT:      -7.6      1.527      1.986
REMARK  5 active torsions:
REMARK  status: ('A' for Active; 'I' for Inactive)
REMARK    1  A    between atoms: N1_5  and  C4_6 
REMARK    2  A    between atoms: C4_6  and  C5_7 
REMARK    3  A    between atoms: C5_7  and  C6_8 
REMARK    4  A    between atoms: C6_8  and  N2_9 
REMARK    5  A    between atoms: C16_22  and  C17_23 
ROOT
HETATM    1  C1  UNL     1      20.207   4.604  51.172  1.00  0.00     0.030 C 
HETATM    2  C2  UNL     1      20.960   3.582  51.139  1.00  0.00     0.034 C 
HETATM    3  C3  UNL     1      22.251   3.273  51.795  1.00  0.00     0.254 C 
HETATM    4  O1  UNL     1      22.788   4.081  52.551  1.00  0.00    -0.267 OA
HETATM    5  N1  UNL     1      22.620   1.930  51.337  1.00  0.00    -0.337 N 
HETATM    6  C11 UNL     1      22.350   1.523  49.940  1.00  0.00     0.163 C 
HETATM    7  C12 UNL     1      20.918   1.084  50.038  1.00  0.00     0.015 C 
HETATM    8  C13 UNL     1      20.549   2.369  50.333  1.00  0.00    -0.006 C 
HETATM    9  C14 UNL     1      19.690   3.033  49.199  1.00  0.00     0.126 C 
HETATM   10  N3  UNL     1      20.093   2.955  47.839  1.00  0.00    -0.250 N 
HETATM   11  C15 UNL     1      21.493   2.362  47.739  1.00  0.00     0.397 A 
HETATM   12  N4  UNL     1      22.780   1.763  47.526  1.00  0.00     0.370 N 
HETATM   13  C16 UNL     1      22.555   2.413  48.796  1.00  0.00     0.313 A 
ENDROOT
BRANCH   5  14
HETATM   14  C4  UNL     1      23.271   1.107  52.341  1.00  0.00     0.128 C 
BRANCH  14  15
HETATM   15  C5  UNL     1      24.780   1.139  52.211  1.00  0.00     0.050 C 
BRANCH  15  16
HETATM   16  C6  UNL     1      25.322   0.385  53.411  1.00  0.00     0.274 C 
BRANCH  16  17
HETATM   17  N2  UNL     1      26.757   0.235  53.347  1.00  0.00     0.092 N 
HETATM   18  C7  UNL     1      27.316   1.327  52.580  1.00  0.00     0.298 C 
HETATM   19  C8  UNL     1      28.070   2.283  53.491  1.00  0.00     0.198 C 
HETATM   20  O2  UNL     1      29.134   1.644  54.103  1.00  0.00    -0.388 OA
HETATM   21  C9  UNL     1      28.795   0.390  54.586  1.00  0.00     0.198 C 
HETATM   22  C10 UNL     1      27.279   0.228  54.703  1.00  0.00     0.298 C 
ENDBRANCH  16  17
ENDBRANCH  15  16
ENDBRANCH  14  15
ENDBRANCH   5  14
BRANCH  13  23
HETATM   23  C17 UNL     1      23.419   3.578  48.971  1.00  0.00    -0.007 A 
HETATM   24  C18 UNL     1      23.199   4.936  48.868  1.00  0.00     0.010 A 
HETATM   25  C19 UNL     1      24.201   5.857  49.084  1.00  0.00     0.004 A 
HETATM   26  C20 UNL     1      25.479   5.460  49.416  1.00  0.00     0.042 A 
HETATM   27  C21 UNL     1      25.736   4.110  49.528  1.00  0.00     0.117 A 
HETATM   28  F1  UNL     1      27.003   3.764  49.854  1.00  0.00    -0.206 F 
HETATM   29  C22 UNL     1      24.719   3.175  49.307  1.00  0.00     0.052 A 
ENDBRANCH  13  23
TORSDOF 5
ENDMDL
MODEL 3
REMARK VINA RESULT:      -7.1      1.842      2.601
REMARK  5 active torsions:
REMARK  status: ('A' for Active; 'I' for Inactive)
REMARK    1  A    between atoms: N1_5  and  C4_6 
REMARK    2  A    between atoms: C4_6  and  C5_7 
REMARK    3  A    between atoms: C5_7  and  C6_8 
REMARK    4  A    between atoms: C6_8  and  N2_9 
REMARK    5  A    between atoms: C16_22  and  C17_23 
ROOT
HETATM    1  C1  UNL     1      19.883   3.822  51.933  1.00  0.00     0.030 C 
HETATM    2  C2  UNL     1      21.043   3.360  51.711  1.00  0.00     0.034 C 
HETATM    3  C3  UNL     1      22.398   3.927  51.905  1.00  0.00     0.254 C 
HETATM    4  O1  UNL     1      22.553   5.051  52.378  1.00  0.00    -0.267 OA
HETATM    5  N1  UNL     1      23.332   2.898  51.435  1.00  0.00    -0.337 N 
HETATM    6  C11 UNL     1      23.002   2.086  50.244  1.00  0.00     0.163 C 
HETATM    7  C12 UNL     1      22.146   1.013  50.853  1.00  0.00     0.015 C 
HETATM    8  C13 UNL     1      21.204   1.954  51.174  1.00  0.00    -0.006 C 
HETATM    9  C14 UNL     1      19.871   1.784  50.362  1.00  0.00     0.126 C 
HETATM   10  N3  UNL     1      19.894   1.596  48.953  1.00  0.00    -0.250 N 
HETATM   11  C15 UNL     1      21.307   1.802  48.419  1.00  0.00     0.397 A 
HETATM   12  N4  UNL     1      22.605   1.917  47.818  1.00  0.00     0.370 N 
HETATM   13  C16 UNL     1      22.377   2.645  49.044  1.00  0.00     0.313 A 
ENDROOT
BRANCH   5  14
HETATM   14  C4  UNL     1      24.558   2.799  52.206  1.00  0.00     0.128 C 
BRANCH  14  15
HETATM   15  C5  UNL     1      25.648   2.068  51.450  1.00  0.00     0.050 C 
BRANCH  15  16
HETATM   16  C6  UNL     1      26.908   2.210  52.284  1.00  0.00     0.274 C 
BRANCH  16  17
HETATM   17  N2  UNL     1      27.369   0.934  52.780  1.00  0.00     0.092 N 
HETATM   18  C7  UNL     1      27.045   0.825  54.186  1.00  0.00     0.298 C 
HETATM   19  C8  UNL     1      25.929  -0.187  54.395  1.00  0.00     0.198 C 
HETATM   20  O2  UNL     1      26.325  -1.447  53.981  1.00  0.00    -0.388 OA
HETATM   21  C9  UNL     1      26.984  -1.424  52.763  1.00  0.00     0.198 C 
HETATM   22  C10 UNL     1      26.725  -0.118  52.012  1.00  0.00     0.298 C 
ENDBRANCH  16  17
ENDBRANCH  15  16
ENDBRANCH  14  15
ENDBRANCH   5  14
BRANCH  13  23
HETATM   23  C17 UNL     1      22.444   4.090  48.838  1.00  0.00    -0.007 A 
HETATM   24  C18 UNL     1      21.481   5.077  48.774  1.00  0.00     0.010 A 
HETATM   25  C19 UNL     1      21.804   6.400  48.565  1.00  0.00     0.004 A 
HETATM   26  C20 UNL     1      23.113   6.801  48.408  1.00  0.00     0.042 A 
HETATM   27  C21 UNL     1      24.103   5.842  48.466  1.00  0.00     0.117 A 
HETATM   28  F1  UNL     1      25.374   6.279  48.306  1.00  0.00    -0.206 F 
HETATM   29  C22 UNL     1      23.775   4.499  48.678  1.00  0.00     0.052 A 
ENDBRANCH  13  23
TORSDOF 5
ENDMDL
MODEL 4
REMARK VINA RESULT:      -7.0      2.173      3.989
REMARK  5 active torsions:
REMARK  status: ('A' for Active; 'I' for Inactive)
REMARK    1  A    between atoms: N1_5  and  C4_6 
REMARK    2  A    between atoms: C4_6  and  C5_7 
REMARK    3  A    between atoms: C5_7  and  C6_8 
REMARK    4  A    between atoms: C6_8  and  N2_9 
REMARK    5  A    between atoms: C16_22  and  C17_23 
ROOT
HETATM    1  C1  UNL     1      21.980   3.269  47.027  1.00  0.00     0.030 C 
HETATM    2  C2  UNL     1      22.594   3.411  48.129  1.00  0.00     0.034 C 
HETATM    3  C3  UNL     1      22.776   2.513  49.292  1.00  0.00     0.254 C 
HETATM    4  O1  UNL     1      22.297   1.381  49.301  1.00  0.00    -0.267 OA
HETATM    5  N1  UNL     1      23.574   3.272  50.262  1.00  0.00    -0.337 N 
HETATM    6  C11 UNL     1      23.341   4.723  50.438  1.00  0.00     0.163 C 
HETATM    7  C12 UNL     1      24.176   5.288  49.327  1.00  0.00     0.015 C 
HETATM    8  C13 UNL     1      23.351   4.691  48.410  1.00  0.00    -0.006 C 
HETATM    9  C14 UNL     1      22.522   5.726  47.569  1.00  0.00     0.126 C 
HETATM   10  N3  UNL     1      21.834   6.795  48.203  1.00  0.00    -0.250 N 
HETATM   11  C15 UNL     1      21.867   6.618  49.717  1.00  0.00     0.397 A 
HETATM   12  N4  UNL     1      21.886   6.580  51.152  1.00  0.00     0.370 N 
HETATM   13  C16 UNL     1      22.004   5.321  50.454  1.00  0.00     0.313 A 
ENDROOT
BRANCH   5  14
HETATM   14  C4  UNL     1      24.536   2.479  51.006  1.00  0.00     0.128 C 
BRANCH  14  15
HETATM   15  C5  UNL     1      24.041   2.144  52.397  1.00  0.00     0.050 C 
BRANCH  15  16
HETATM   16  C6  UNL     1      24.508   0.728  52.681  1.00  0.00     0.274 C 
BRANCH  16  17
HETATM   17  N2  UNL     1      25.946   0.650  52.792  1.00  0.00     0.092 N 
HETATM   18  C7  UNL     1      26.358   1.213  54.059  1.00  0.00     0.298 C 
HETATM   19  C8  UNL     1      26.837   0.115  54.996  1.00  0.00     0.198 C 
HETATM   20  O2  UNL     1      27.944  -0.529  54.471  1.00  0.00    -0.388 OA
HETATM   21  C9  UNL     1      27.802  -0.817  53.123  1.00  0.00     0.198 C 
HETATM   22  C10 UNL     1      26.339  -0.745  52.688  1.00  0.00     0.298 C 
ENDBRANCH  16  17
ENDBRANCH  15  16
ENDBRANCH  14  15
ENDBRANCH   5  14
BRANCH  13  23
HETATM   23  C17 UNL     1      20.859   4.450  50.710  1.00  0.00    -0.007 A 
HETATM   24  C18 UNL     1      19.685   4.213  50.023  1.00  0.00     0.010 A 
HETATM   25  C19 UNL     1      18.739   3.323  50.481  1.00  0.00     0.004 A 
HETATM   26  C20 UNL     1      18.920   2.624  51.655  1.00  0.00     0.042 A 
HETATM   27  C21 UNL     1      20.082   2.835  52.368  1.00  0.00     0.117 A 
HETATM   28  F1  UNL     1      20.221   2.129  53.515  1.00  0.00    -0.206 F 
HETATM   29  C22 UNL     1      21.044   3.738  51.904  1.00  0.00     0.052 A 
ENDBRANCH  13  23
TORSDOF 5
ENDMDL
MODEL 5
REMARK VINA RESULT:      -6.8      3.059      5.969
REMARK  5 active torsions:
REMARK  status: ('A' for Active; 'I' for Inactive)
REMARK    1  A    between atoms: N1_5  and  C4_6 
REMARK    2  A    between atoms: C4_6  and  C5_7 
REMARK    3  A    between atoms: C5_7  and  C6_8 
REMARK    4  A    between atoms: C6_8  and  N2_9 
REMARK    5  A    between atoms: C16_22  and  C17_23 
ROOT
HETATM    1  C1  UNL     1      22.734   2.419  48.005  1.00  0.00     0.030 C 
HETATM    2  C2  UNL     1      23.150   3.374  48.730  1.00  0.00     0.034 C 
HETATM    3  C3  UNL     1      24.456   3.641  49.374  1.00  0.00     0.254 C 
HETATM    4  O1  UNL     1      25.400   2.864  49.241  1.00  0.00    -0.267 OA
HETATM    5  N1  UNL     1      24.294   4.907  50.096  1.00  0.00    -0.337 N 
HETATM    6  C11 UNL     1      23.020   5.209  50.785  1.00  0.00     0.163 C 
HETATM    7  C12 UNL     1      22.204   5.763  49.654  1.00  0.00     0.015 C 
HETATM    8  C13 UNL     1      22.236   4.540  49.038  1.00  0.00    -0.006 C 
HETATM    9  C14 UNL     1      20.828   3.846  48.984  1.00  0.00     0.126 C 
HETATM   10  N3  UNL     1      20.006   3.774  50.141  1.00  0.00    -0.250 N 
HETATM   11  C15 UNL     1      20.780   4.248  51.366  1.00  0.00     0.397 A 
HETATM   12  N4  UNL     1      21.394   4.727  52.572  1.00  0.00     0.370 N 
HETATM   13  C16 UNL     1      22.267   4.210  51.544  1.00  0.00     0.313 A 
ENDROOT
BRANCH   5  14
HETATM   14  C4  UNL     1      25.467   5.764  50.085  1.00  0.00     0.128 C 
BRANCH  14  15
HETATM   15  C5  UNL     1      25.847   6.189  48.682  1.00  0.00     0.050 C 
BRANCH  15  16
HETATM   16  C6  UNL     1      27.315   5.838  48.518  1.00  0.00     0.274 C 
BRANCH  16  17
HETATM   17  N2  UNL     1      28.037   6.870  47.811  1.00  0.00     0.092 N 
HETATM   18  C7  UNL     1      27.613   8.166  48.296  1.00  0.00     0.298 C 
HETATM   19  C8  UNL     1      28.716   8.810  49.120  1.00  0.00     0.198 C 
HETATM   20  O2  UNL     1      29.844   9.026  48.348  1.00  0.00    -0.388 OA
HETATM   21  C9  UNL     1      30.158   7.939  47.548  1.00  0.00     0.198 C 
HETATM   22  C10 UNL     1      29.459   6.669  48.034  1.00  0.00     0.298 C 
ENDBRANCH  16  17
ENDBRANCH  15  16
ENDBRANCH  14  15
ENDBRANCH   5  14
BRANCH  13  23
HETATM   23  C17 UNL     1      22.964   3.003  51.982  1.00  0.00    -0.007 A 
HETATM   24  C18 UNL     1      22.764   1.659  51.738  1.00  0.00     0.010 A 
HETATM   25  C19 UNL     1      23.577   0.689  52.280  1.00  0.00     0.004 A 
HETATM   26  C20 UNL     1      24.636   1.017  53.098  1.00  0.00     0.042 A 
HETATM   27  C21 UNL     1      24.868   2.350  53.364  1.00  0.00     0.117 A 
HETATM   28  F1  UNL     1      25.917   2.629  54.172  1.00  0.00    -0.206 F 
HETATM   29  C22 UNL     1      24.042   3.336  52.815  1.00  0.00     0.052 A 
ENDBRANCH  13  23
TORSDOF 5
ENDMDL
MODEL 6
REMARK VINA RESULT:      -6.7      7.391     10.038
REMARK  5 active torsions:
REMARK  status: ('A' for Active; 'I' for Inactive)
REMARK    1  A    between atoms: N1_5  and  C4_6 
REMARK    2  A    between atoms: C4_6  and  C5_7 
REMARK    3  A    between atoms: C5_7  and  C6_8 
REMARK    4  A    between atoms: C6_8  and  N2_9 
REMARK    5  A    between atoms: C16_22  and  C17_23 
ROOT
HETATM    1  C1  UNL     1      28.414  11.078  45.736  1.00  0.00     0.030 C 
HETATM    2  C2  UNL     1      29.355  10.232  45.835  1.00  0.00     0.034 C 
HETATM    3  C3  UNL     1      29.486   8.828  45.382  1.00  0.00     0.254 C 
HETATM    4  O1  UNL     1      28.576   8.271  44.771  1.00  0.00    -0.267 OA
HETATM    5  N1  UNL     1      30.816   8.390  45.819  1.00  0.00    -0.337 N 
HETATM    6  C11 UNL     1      31.347   8.829  47.128  1.00  0.00     0.163 C 
HETATM    7  C12 UNL     1      31.919  10.171  46.773  1.00  0.00     0.015 C 
HETATM    8  C13 UNL     1      30.659  10.629  46.493  1.00  0.00    -0.006 C 
HETATM    9  C14 UNL     1      30.168  11.723  47.507  1.00  0.00     0.126 C 
HETATM   10  N3  UNL     1      30.304  11.531  48.908  1.00  0.00    -0.250 N 
HETATM   11  C15 UNL     1      30.759  10.107  49.203  1.00  0.00     0.397 A 
HETATM   12  N4  UNL     1      31.241   8.811  49.590  1.00  0.00     0.370 N 
HETATM   13  C16 UNL     1      30.527   8.905  48.338  1.00  0.00     0.313 A 
ENDROOT
BRANCH   5  14
HETATM   14  C4  UNL     1      31.495   7.503  44.891  1.00  0.00     0.128 C 
BRANCH  14  15
HETATM   15  C5  UNL     1      32.756   6.915  45.487  1.00  0.00     0.050 C 
BRANCH  15  16
HETATM   16  C6  UNL     1      32.340   5.618  46.157  1.00  0.00     0.274 C 
BRANCH  16  17
HETATM   17  N2  UNL     1      32.895   5.498  47.485  1.00  0.00     0.092 N 
HETATM   18  C7  UNL     1      33.176   4.105  47.761  1.00  0.00     0.298 C 
HETATM   19  C8  UNL     1      34.676   3.861  47.775  1.00  0.00     0.198 C 
HETATM   20  O2  UNL     1      35.284   4.593  48.779  1.00  0.00    -0.388 OA
HETATM   21  C9  UNL     1      34.821   5.897  48.842  1.00  0.00     0.198 C 
HETATM   22  C10 UNL     1      34.106   6.298  47.552  1.00  0.00     0.298 C 
ENDBRANCH  16  17
ENDBRANCH  15  16
ENDBRANCH  14  15
ENDBRANCH   5  14
BRANCH  13  23
HETATM   23  C17 UNL     1      29.272   8.158  48.372  1.00  0.00    -0.007 A 
HETATM   24  C18 UNL     1      27.951   8.541  48.492  1.00  0.00     0.010 A 
HETATM   25  C19 UNL     1      26.923   7.625  48.498  1.00  0.00     0.004 A 
HETATM   26  C20 UNL     1      27.167   6.273  48.386  1.00  0.00     0.042 A 
HETATM   27  C21 UNL     1      28.474   5.853  48.264  1.00  0.00     0.117 A 
HETATM   28  F1  UNL     1      28.670   4.518  48.157  1.00  0.00    -0.206 F 
HETATM   29  C22 UNL     1      29.519   6.782  48.258  1.00  0.00     0.052 A 
ENDBRANCH  13  23
TORSDOF 5
ENDMDL
MODEL 7
REMARK VINA RESULT:      -6.7      7.122      9.912
REMARK  5 active torsions:
REMARK  status: ('A' for Active; 'I' for Inactive)
REMARK    1  A    between atoms: N1_5  and  C4_6 
REMARK    2  A    between atoms: C4_6  and  C5_7 
REMARK    3  A    between atoms: C5_7  and  C6_8 
REMARK    4  A    between atoms: C6_8  and  N2_9 
REMARK    5  A    between atoms: C16_22  and  C17_23 
ROOT
HETATM    1  C1  UNL     1      34.450   7.911  48.739  1.00  0.00     0.030 C 
HETATM    2  C2  UNL     1      33.301   7.701  48.243  1.00  0.00     0.034 C 
HETATM    3  C3  UNL     1      32.188   6.811  48.647  1.00  0.00     0.254 C 
HETATM    4  O1  UNL     1      32.274   6.100  49.646  1.00  0.00    -0.267 OA
HETATM    5  N1  UNL     1      31.132   7.014  47.648  1.00  0.00    -0.337 N 
HETATM    6  C11 UNL     1      31.487   7.206  46.225  1.00  0.00     0.163 C 
HETATM    7  C12 UNL     1      31.780   8.678  46.196  1.00  0.00     0.015 C 
HETATM    8  C13 UNL     1      32.854   8.475  47.022  1.00  0.00    -0.006 C 
HETATM    9  C14 UNL     1      34.229   8.749  46.315  1.00  0.00     0.126 C 
HETATM   10  N3  UNL     1      34.508   8.208  45.031  1.00  0.00    -0.250 N 
HETATM   11  C15 UNL     1      33.416   7.226  44.625  1.00  0.00     0.397 A 
HETATM   12  N4  UNL     1      32.417   6.327  44.119  1.00  0.00     0.370 N 
HETATM   13  C16 UNL     1      32.539   6.442  45.553  1.00  0.00     0.313 A 
ENDROOT
BRANCH   5  14
HETATM   14  C4  UNL     1      29.782   6.973  48.180  1.00  0.00     0.128 C 
BRANCH  14  15
HETATM   15  C5  UNL     1      29.226   5.565  48.212  1.00  0.00     0.050 C 
BRANCH  15  16
HETATM   16  C6  UNL     1      27.717   5.706  48.134  1.00  0.00     0.274 C 
BRANCH  16  17
HETATM   17  N2  UNL     1      27.076   5.297  49.362  1.00  0.00     0.092 N 
HETATM   18  C7  UNL     1      25.822   6.005  49.504  1.00  0.00     0.298 C 
HETATM   19  C8  UNL     1      24.652   5.057  49.294  1.00  0.00     0.198 C 
HETATM   20  O2  UNL     1      24.651   4.057  50.251  1.00  0.00    -0.388 OA
HETATM   21  C9  UNL     1      25.912   3.523  50.462  1.00  0.00     0.198 C 
HETATM   22  C10 UNL     1      26.862   3.861  49.313  1.00  0.00     0.298 C 
ENDBRANCH  16  17
ENDBRANCH  15  16
ENDBRANCH  14  15
ENDBRANCH   5  14
BRANCH  13  23
HETATM   23  C17 UNL     1      32.980   5.189  46.162  1.00  0.00    -0.007 A 
HETATM   24  C18 UNL     1      34.144   4.810  46.800  1.00  0.00     0.010 A 
HETATM   25  C19 UNL     1      34.324   3.539  47.299  1.00  0.00     0.004 A 
HETATM   26  C20 UNL     1      33.343   2.578  47.182  1.00  0.00     0.042 A 
HETATM   27  C21 UNL     1      32.165   2.920  46.550  1.00  0.00     0.117 A 
HETATM   28  F1  UNL     1      31.229   1.947  46.456  1.00  0.00    -0.206 F 
HETATM   29  C22 UNL     1      31.982   4.211  46.043  1.00  0.00     0.052 A 
ENDBRANCH  13  23
TORSDOF 5
ENDMDL
MODEL 8
REMARK VINA RESULT:      -6.6      2.644      3.969
REMARK  5 active torsions:
REMARK  status: ('A' for Active; 'I' for Inactive)
REMARK    1  A    between atoms: N1_5  and  C4_6 
REMARK    2  A    between atoms: C4_6  and  C5_7 
REMARK    3  A    between atoms: C5_7  and  C6_8 
REMARK    4  A    between atoms: C6_8  and  N2_9 
REMARK    5  A    between atoms: C16_22  and  C17_23 
ROOT
HETATM    1  C1  UNL     1      25.552   6.002  49.290  1.00  0.00     0.030 C 
HETATM    2  C2  UNL     1      24.990   5.259  50.152  1.00  0.00     0.034 C 
HETATM    3  C3  UNL     1      24.988   3.792  50.356  1.00  0.00     0.254 C 
HETATM    4  O1  UNL     1      25.631   3.048  49.618  1.00  0.00    -0.267 OA
HETATM    5  N1  UNL     1      24.127   3.552  51.519  1.00  0.00    -0.337 N 
HETATM    6  C11 UNL     1      22.900   4.357  51.711  1.00  0.00     0.163 C 
HETATM    7  C12 UNL     1      23.456   5.574  52.389  1.00  0.00     0.015 C 
HETATM    8  C13 UNL     1      24.160   5.880  51.255  1.00  0.00    -0.006 C 
HETATM    9  C14 UNL     1      23.646   7.186  50.551  1.00  0.00     0.126 C 
HETATM   10  N3  UNL     1      22.259   7.392  50.320  1.00  0.00    -0.250 N 
HETATM   11  C15 UNL     1      21.478   6.126  50.648  1.00  0.00     0.397 A 
HETATM   12  N4  UNL     1      20.639   5.009  50.980  1.00  0.00     0.370 N 
HETATM   13  C16 UNL     1      22.006   4.724  50.611  1.00  0.00     0.313 A 
ENDROOT
BRANCH   5  14
HETATM   14  C4  UNL     1      24.571   2.477  52.388  1.00  0.00     0.128 C 
BRANCH  14  15
HETATM   15  C5  UNL     1      24.060   1.127  51.930  1.00  0.00     0.050 C 
BRANCH  15  16
HETATM   16  C6  UNL     1      22.623   1.036  52.409  1.00  0.00     0.274 C 
BRANCH  16  17
HETATM   17  N2  UNL     1      22.538   0.530  53.759  1.00  0.00     0.092 N 
HETATM   18  C7  UNL     1      21.154   0.251  54.078  1.00  0.00     0.298 C 
HETATM   19  C8  UNL     1      20.920  -1.249  54.152  1.00  0.00     0.198 C 
HETATM   20  O2  UNL     1      21.680  -1.816  55.161  1.00  0.00    -0.388 OA
HETATM   21  C9  UNL     1      22.982  -1.343  55.175  1.00  0.00     0.198 C 
HETATM   22  C10 UNL     1      23.348  -0.673  53.850  1.00  0.00     0.298 C 
ENDBRANCH  16  17
ENDBRANCH  15  16
ENDBRANCH  14  15
ENDBRANCH   5  14
BRANCH  13  23
HETATM   23  C17 UNL     1      22.085   3.957  49.370  1.00  0.00    -0.007 A 
HETATM   24  C18 UNL     1      22.125   2.604  49.100  1.00  0.00     0.010 A 
HETATM   25  C19 UNL     1      22.201   2.118  47.813  1.00  0.00     0.004 A 
HETATM   26  C20 UNL     1      22.242   2.967  46.728  1.00  0.00     0.042 A 
HETATM   27  C21 UNL     1      22.203   4.326  46.959  1.00  0.00     0.117 A 
HETATM   28  F1  UNL     1      22.246   5.124  45.866  1.00  0.00    -0.206 F 
HETATM   29  C22 UNL     1      22.127   4.820  48.265  1.00  0.00     0.052 A 
ENDBRANCH  13  23
TORSDOF 5
ENDMDL
MODEL 9
REMARK VINA RESULT:      -6.4      3.018      4.802
REMARK  5 active torsions:
REMARK  status: ('A' for Active; 'I' for Inactive)
REMARK    1  A    between atoms: N1_5  and  C4_6 
REMARK    2  A    between atoms: C4_6  and  C5_7 
REMARK    3  A    between atoms: C5_7  and  C6_8 
REMARK    4  A    between atoms: C6_8  and  N2_9 
REMARK    5  A    between atoms: C16_22  and  C17_23 
ROOT
HETATM    1  C1  UNL     1      21.925   3.861  46.428  1.00  0.00     0.030 C 
HETATM    2  C2  UNL     1      22.166   3.722  47.666  1.00  0.00     0.034 C 
HETATM    3  C3  UNL     1      21.706   2.733  48.667  1.00  0.00     0.254 C 
HETATM    4  O1  UNL     1      20.952   1.814  48.352  1.00  0.00    -0.267 OA
HETATM    5  N1  UNL     1      22.329   3.128  49.935  1.00  0.00    -0.337 N 
HETATM    6  C11 UNL     1      22.468   4.561  50.277  1.00  0.00     0.163 C 
HETATM    7  C12 UNL     1      23.739   4.907  49.557  1.00  0.00     0.015 C 
HETATM    8  C13 UNL     1      23.120   4.671  48.359  1.00  0.00    -0.006 C 
HETATM    9  C14 UNL     1      22.931   5.973  47.502  1.00  0.00     0.126 C 
HETATM   10  N3  UNL     1      22.404   7.158  48.083  1.00  0.00    -0.250 N 
HETATM   11  C15 UNL     1      21.899   6.872  49.492  1.00  0.00     0.397 A 
HETATM   12  N4  UNL     1      21.445   6.729  50.847  1.00  0.00     0.370 N 
HETATM   13  C16 UNL     1      21.423   5.550  50.012  1.00  0.00     0.313 A 
ENDROOT
BRANCH   5  14
HETATM   14  C4  UNL     1      22.738   2.019  50.779  1.00  0.00     0.128 C 
BRANCH  14  15
HETATM   15  C5  UNL     1      22.521   2.314  52.249  1.00  0.00     0.050 C 
BRANCH  15  16
HETATM   16  C6  UNL     1      23.328   1.278  53.009  1.00  0.00     0.274 C 
BRANCH  16  17
HETATM   17  N2  UNL     1      22.636   0.013  53.093  1.00  0.00     0.092 N 
HETATM   18  C7  UNL     1      23.470  -0.941  53.792  1.00  0.00     0.298 C 
HETATM   19  C8  UNL     1      22.899  -1.233  55.170  1.00  0.00     0.198 C 
HETATM   20  O2  UNL     1      21.642  -1.804  55.070  1.00  0.00    -0.388 OA
HETATM   21  C9  UNL     1      20.840  -1.166  54.138  1.00  0.00     0.198 C 
HETATM   22  C10 UNL     1      21.381   0.222  53.793  1.00  0.00     0.298 C 
ENDBRANCH  16  17
ENDBRANCH  15  16
ENDBRANCH  14  15
ENDBRANCH   5  14
BRANCH  13  23
HETATM   23  C17 UNL     1      20.060   5.073  49.784  1.00  0.00    -0.007 A 
HETATM   24  C18 UNL     1      19.201   5.160  48.708  1.00  0.00     0.010 A 
HETATM   25  C19 UNL     1      17.935   4.617  48.738  1.00  0.00     0.004 A 
HETATM   26  C20 UNL     1      17.465   3.959  49.854  1.00  0.00     0.042 A 
HETATM   27  C21 UNL     1      18.296   3.852  50.949  1.00  0.00     0.117 A 
HETATM   28  F1  UNL     1      17.795   3.199  52.024  1.00  0.00    -0.206 F 
HETATM   29  C22 UNL     1      19.581   4.404  50.919  1.00  0.00     0.052 A 
ENDBRANCH  13  23
TORSDOF 5
ENDMDL
