MODEL 1
REMARK VINA RESULT:      -8.4      0.000      0.000
REMARK  6 active torsions:
REMARK  status: ('A' for Active; 'I' for Inactive)
REMARK    1  A    between atoms: C2_2  and  C3_3 
REMARK       I    between atoms: C3_3  and  N1_5 
REMARK    2  A    between atoms: N1_5  and  C4_6 
REMARK    3  A    between atoms: C8_10  and  O2_11 
REMARK    4  A    between atoms: O2_11  and  C9_12 
REMARK    5  A    between atoms: C12_17  and  N4_18 
REMARK    6  A    between atoms: N4_18  and  C13_19 
ROOT
HETATM    1  C9  UNL     1      23.066   2.993  50.917  1.00  0.00     0.218 A 
HETATM    2  N2  UNL     1      22.121   2.573  50.068  1.00  0.00    -0.145 NA
HETATM    3  N3  UNL     1      22.351   3.008  48.844  1.00  0.00    -0.281 N 
HETATM    4  C10 UNL     1      21.541   2.751  47.660  1.00  0.00     0.179 C 
HETATM    5  C11 UNL     1      23.470   3.723  48.923  1.00  0.00     0.146 A 
HETATM    6  C12 UNL     1      23.981   3.759  50.203  1.00  0.00     0.121 A 
ENDROOT
BRANCH   1   7
HETATM    7  O2  UNL     1      23.146   2.730  52.281  1.00  0.00    -0.289 OA
BRANCH   7   8
HETATM    8  C8  UNL     1      23.746   1.559  52.722  1.00  0.00     0.080 A 
HETATM    9  C7  UNL     1      22.907   0.625  53.342  1.00  0.00     0.037 A 
HETATM   10  C6  UNL     1      23.456  -0.551  53.796  1.00  0.00     0.005 A 
HETATM   11  C5  UNL     1      24.789  -0.858  53.672  1.00  0.00     0.029 A 
HETATM   12  C4  UNL     1      25.625   0.070  53.056  1.00  0.00     0.037 A 
HETATM   13  C18 UNL     1      25.085   1.253  52.597  1.00  0.00     0.066 A 
BRANCH  12  14
HETATM   14  N1  UNL     1      27.043  -0.050  52.825  1.00  0.00    -0.324 N 
HETATM   15  C3  UNL     1      27.795   0.316  53.979  1.00  0.00     0.244 C 
HETATM   16  O1  UNL     1      27.185   0.690  55.038  1.00  0.00    -0.268 OA
HETATM   17  H4  UNL     1      27.487  -0.366  51.924  1.00  0.00     0.169 HD
BRANCH  15  18
HETATM   18  C2  UNL     1      29.249   0.263  53.950  1.00  0.00     0.064 C 
HETATM   19  C1  UNL     1      29.942  -0.777  53.574  1.00  0.00     0.017 C 
ENDBRANCH  15  18
ENDBRANCH  12  14
ENDBRANCH   7   8
ENDBRANCH   1   7
BRANCH   6  20
HETATM   20  N4  UNL     1      25.144   4.405  50.703  1.00  0.00    -0.182 N 
HETATM   21  H12 UNL     1      25.244   4.497  51.736  1.00  0.00     0.184 HD
BRANCH  20  22
HETATM   22  C13 UNL     1      26.124   4.897  49.798  1.00  0.00     0.725 A 
HETATM   23  N5  UNL     1      27.188   4.264  49.359  1.00  0.00    -0.073 NA
HETATM   24  C14 UNL     1      27.898   5.100  48.470  1.00  0.00     0.278 A 
HETATM   25  N6  UNL     1      29.191   5.590  48.865  1.00  0.00    -0.371 N 
HETATM   26  C17 UNL     1      27.135   6.411  48.518  1.00  0.00     0.099 A 
HETATM   27  C15 UNL     1      29.256   6.652  47.867  1.00  0.00     0.087 C 
HETATM   28  H14 UNL     1      30.045   5.571  49.463  1.00  0.00     0.161 HD
HETATM   29  C16 UNL     1      28.033   7.180  47.622  1.00  0.00     0.048 C 
HETATM   30  N7  UNL     1      26.106   6.221  49.269  1.00  0.00    -0.064 NA
ENDBRANCH  20  22
ENDBRANCH   6  20
TORSDOF 6
ENDMDL
MODEL 2
REMARK VINA RESULT:      -8.3      2.042      6.366
REMARK  6 active torsions:
REMARK  status: ('A' for Active; 'I' for Inactive)
REMARK    1  A    between atoms: C2_2  and  C3_3 
REMARK       I    between atoms: C3_3  and  N1_5 
REMARK    2  A    between atoms: N1_5  and  C4_6 
REMARK    3  A    between atoms: C8_10  and  O2_11 
REMARK    4  A    between atoms: O2_11  and  C9_12 
REMARK    5  A    between atoms: C12_17  and  N4_18 
REMARK    6  A    between atoms: N4_18  and  C13_19 
ROOT
HETATM    1  C9  UNL     1      22.666   1.342  53.008  1.00  0.00     0.218 A 
HETATM    2  N2  UNL     1      21.780   0.464  53.492  1.00  0.00    -0.145 NA
HETATM    3  N3  UNL     1      22.381  -0.611  53.964  1.00  0.00    -0.281 N 
HETATM    4  C10 UNL     1      21.742  -1.773  54.569  1.00  0.00     0.179 C 
HETATM    5  C11 UNL     1      23.681  -0.406  53.774  1.00  0.00     0.146 A 
HETATM    6  C12 UNL     1      23.939   0.808  53.173  1.00  0.00     0.121 A 
ENDROOT
BRANCH   1   7
HETATM    7  O2  UNL     1      22.395   2.579  52.432  1.00  0.00    -0.289 OA
BRANCH   7   8
HETATM    8  C8  UNL     1      22.670   2.789  51.088  1.00  0.00     0.080 A 
HETATM    9  C7  UNL     1      22.050   1.921  50.182  1.00  0.00     0.037 A 
HETATM   10  C6  UNL     1      22.292   2.090  48.839  1.00  0.00     0.005 A 
HETATM   11  C5  UNL     1      23.114   3.070  48.340  1.00  0.00     0.029 A 
HETATM   12  C4  UNL     1      23.733   3.934  49.239  1.00  0.00     0.037 A 
HETATM   13  C18 UNL     1      23.496   3.774  50.589  1.00  0.00     0.066 A 
BRANCH  12  14
HETATM   14  N1  UNL     1      24.627   5.023  48.931  1.00  0.00    -0.324 N 
HETATM   15  C3  UNL     1      25.991   4.635  49.067  1.00  0.00     0.244 C 
HETATM   16  O1  UNL     1      26.276   3.442  49.425  1.00  0.00    -0.268 OA
HETATM   17  H4  UNL     1      24.329   5.991  48.641  1.00  0.00     0.169 HD
BRANCH  15  18
HETATM   18  C2  UNL     1      27.053   5.595  48.800  1.00  0.00     0.064 C 
HETATM   19  C1  UNL     1      28.252   5.275  48.399  1.00  0.00     0.017 C 
ENDBRANCH  15  18
ENDBRANCH  12  14
ENDBRANCH   7   8
ENDBRANCH   1   7
BRANCH   6  20
HETATM   20  N4  UNL     1      25.179   1.397  52.802  1.00  0.00    -0.182 N 
HETATM   21  H12 UNL     1      25.153   2.267  52.230  1.00  0.00     0.184 HD
BRANCH  20  22
HETATM   22  C13 UNL     1      26.399   0.796  53.215  1.00  0.00     0.725 A 
HETATM   23  N5  UNL     1      27.219   1.225  54.147  1.00  0.00    -0.073 NA
HETATM   24  C14 UNL     1      28.313   0.338  54.255  1.00  0.00     0.278 A 
HETATM   25  N6  UNL     1      29.616   0.795  53.855  1.00  0.00    -0.371 N 
HETATM   26  C17 UNL     1      28.075  -0.667  53.143  1.00  0.00     0.099 A 
HETATM   27  C15 UNL     1      30.215  -0.531  53.762  1.00  0.00     0.087 C 
HETATM   28  H14 UNL     1      30.300   1.544  53.615  1.00  0.00     0.161 HD
HETATM   29  C16 UNL     1      29.318  -1.453  53.336  1.00  0.00     0.048 C 
HETATM   30  N7  UNL     1      26.941  -0.373  52.605  1.00  0.00    -0.064 NA
ENDBRANCH  20  22
ENDBRANCH   6  20
TORSDOF 6
ENDMDL
MODEL 3
REMARK VINA RESULT:      -8.2      2.180      6.619
REMARK  6 active torsions:
REMARK  status: ('A' for Active; 'I' for Inactive)
REMARK    1  A    between atoms: C2_2  and  C3_3 
REMARK       I    between atoms: C3_3  and  N1_5 
REMARK    2  A    between atoms: N1_5  and  C4_6 
REMARK    3  A    between atoms: C8_10  and  O2_11 
REMARK    4  A    between atoms: O2_11  and  C9_12 
REMARK    5  A    between atoms: C12_17  and  N4_18 
REMARK    6  A    between atoms: N4_18  and  C13_19 
ROOT
HETATM    1  C9  UNL     1      23.085   0.710  52.162  1.00  0.00     0.218 A 
HETATM    2  N2  UNL     1      22.090  -0.144  52.428  1.00  0.00    -0.145 NA
HETATM    3  N3  UNL     1      22.251  -0.713  53.608  1.00  0.00    -0.281 N 
HETATM    4  C10 UNL     1      21.370  -1.692  54.232  1.00  0.00     0.179 C 
HETATM    5  C11 UNL     1      23.377  -0.203  54.099  1.00  0.00     0.146 A 
HETATM    6  C12 UNL     1      23.962   0.704  53.241  1.00  0.00     0.121 A 
ENDROOT
BRANCH   1   7
HETATM    7  O2  UNL     1      23.244   1.483  51.016  1.00  0.00    -0.289 OA
BRANCH   7   8
HETATM    8  C8  UNL     1      23.369   2.860  51.126  1.00  0.00     0.080 A 
HETATM    9  C7  UNL     1      22.302   3.537  51.728  1.00  0.00     0.037 A 
HETATM   10  C6  UNL     1      22.381   4.904  51.859  1.00  0.00     0.005 A 
HETATM   11  C5  UNL     1      23.457   5.641  51.428  1.00  0.00     0.029 A 
HETATM   12  C4  UNL     1      24.519   4.970  50.829  1.00  0.00     0.037 A 
HETATM   13  C18 UNL     1      24.451   3.599  50.692  1.00  0.00     0.066 A 
BRANCH  12  14
HETATM   14  N1  UNL     1      25.734   5.546  50.310  1.00  0.00    -0.324 N 
HETATM   15  C3  UNL     1      25.567   6.006  48.971  1.00  0.00     0.244 C 
HETATM   16  O1  UNL     1      24.434   5.875  48.396  1.00  0.00    -0.268 OA
HETATM   17  H4  UNL     1      26.643   5.625  50.837  1.00  0.00     0.169 HD
BRANCH  15  18
HETATM   18  C2  UNL     1      26.682   6.622  48.266  1.00  0.00     0.064 C 
HETATM   19  C1  UNL     1      27.919   6.218  48.348  1.00  0.00     0.017 C 
ENDBRANCH  15  18
ENDBRANCH  12  14
ENDBRANCH   7   8
ENDBRANCH   1   7
BRANCH   6  20
HETATM   20  N4  UNL     1      25.156   1.461  53.388  1.00  0.00    -0.182 N 
HETATM   21  H12 UNL     1      25.087   2.498  53.324  1.00  0.00     0.184 HD
BRANCH  20  22
HETATM   22  C13 UNL     1      26.391   0.795  53.617  1.00  0.00     0.725 A 
HETATM   23  N5  UNL     1      27.340   1.149  54.454  1.00  0.00    -0.073 NA
HETATM   24  C14 UNL     1      28.398   0.217  54.385  1.00  0.00     0.278 A 
HETATM   25  N6  UNL     1      29.659   0.642  53.841  1.00  0.00    -0.371 N 
HETATM   26  C17 UNL     1      27.979  -0.726  53.272  1.00  0.00     0.099 A 
HETATM   27  C15 UNL     1      30.183  -0.701  53.618  1.00  0.00     0.087 C 
HETATM   28  H14 UNL     1      30.341   1.374  53.547  1.00  0.00     0.161 HD
HETATM   29  C16 UNL     1      29.201  -1.567  53.272  1.00  0.00     0.048 C 
HETATM   30  N7  UNL     1      26.801  -0.365  52.895  1.00  0.00    -0.064 NA
ENDBRANCH  20  22
ENDBRANCH   6  20
TORSDOF 6
ENDMDL
MODEL 4
REMARK VINA RESULT:      -8.2      1.718      2.024
REMARK  6 active torsions:
REMARK  status: ('A' for Active; 'I' for Inactive)
REMARK    1  A    between atoms: C2_2  and  C3_3 
REMARK       I    between atoms: C3_3  and  N1_5 
REMARK    2  A    between atoms: N1_5  and  C4_6 
REMARK    3  A    between atoms: C8_10  and  O2_11 
REMARK    4  A    between atoms: O2_11  and  C9_12 
REMARK    5  A    between atoms: C12_17  and  N4_18 
REMARK    6  A    between atoms: N4_18  and  C13_19 
ROOT
HETATM    1  C9  UNL     1      22.558   2.345  51.554  1.00  0.00     0.218 A 
HETATM    2  N2  UNL     1      21.225   2.268  51.468  1.00  0.00    -0.145 NA
HETATM    3  N3  UNL     1      20.662   3.436  51.715  1.00  0.00    -0.281 N 
HETATM    4  C10 UNL     1      19.236   3.734  51.711  1.00  0.00     0.179 C 
HETATM    5  C11 UNL     1      21.667   4.271  51.964  1.00  0.00     0.146 A 
HETATM    6  C12 UNL     1      22.897   3.653  51.881  1.00  0.00     0.121 A 
ENDROOT
BRANCH   1   7
HETATM    7  O2  UNL     1      23.473   1.315  51.360  1.00  0.00    -0.289 OA
BRANCH   7   8
HETATM    8  C8  UNL     1      23.946   0.598  52.450  1.00  0.00     0.080 A 
HETATM    9  C7  UNL     1      22.980  -0.005  53.265  1.00  0.00     0.037 A 
HETATM   10  C6  UNL     1      23.401  -0.727  54.357  1.00  0.00     0.005 A 
HETATM   11  C5  UNL     1      24.724  -0.887  54.690  1.00  0.00     0.029 A 
HETATM   12  C4  UNL     1      25.685  -0.288  53.881  1.00  0.00     0.037 A 
HETATM   13  C18 UNL     1      25.275   0.438  52.783  1.00  0.00     0.066 A 
BRANCH  12  14
HETATM   14  N1  UNL     1      27.117  -0.329  54.048  1.00  0.00    -0.324 N 
HETATM   15  C3  UNL     1      27.709  -1.352  53.252  1.00  0.00     0.244 C 
HETATM   16  O1  UNL     1      26.967  -2.087  52.516  1.00  0.00    -0.268 OA
HETATM   17  H4  UNL     1      27.674   0.308  54.676  1.00  0.00     0.169 HD
BRANCH  15  18
HETATM   18  C2  UNL     1      29.149  -1.557  53.280  1.00  0.00     0.064 C 
HETATM   19  C1  UNL     1      30.020  -0.629  53.568  1.00  0.00     0.017 C 
ENDBRANCH  15  18
ENDBRANCH  12  14
ENDBRANCH   7   8
ENDBRANCH   1   7
BRANCH   6  20
HETATM   20  N4  UNL     1      24.200   4.187  52.074  1.00  0.00    -0.182 N 
HETATM   21  H12 UNL     1      24.556   4.262  53.050  1.00  0.00     0.184 HD
BRANCH  20  22
HETATM   22  C13 UNL     1      24.970   4.595  50.951  1.00  0.00     0.725 A 
HETATM   23  N5  UNL     1      25.833   3.871  50.275  1.00  0.00    -0.073 NA
HETATM   24  C14 UNL     1      26.378   4.647  49.228  1.00  0.00     0.278 A 
HETATM   25  N6  UNL     1      27.767   5.012  49.290  1.00  0.00    -0.371 N 
HETATM   26  C17 UNL     1      25.773   6.022  49.443  1.00  0.00     0.099 A 
HETATM   27  C15 UNL     1      27.684   6.072  48.292  1.00  0.00     0.087 C 
HETATM   28  H14 UNL     1      28.736   4.908  49.661  1.00  0.00     0.161 HD
HETATM   29  C16 UNL     1      26.492   6.713  48.344  1.00  0.00     0.048 C 
HETATM   30  N7  UNL     1      24.945   5.920  50.425  1.00  0.00    -0.064 NA
ENDBRANCH  20  22
ENDBRANCH   6  20
TORSDOF 6
ENDMDL
MODEL 5
REMARK VINA RESULT:      -8.2      2.549      7.231
REMARK  6 active torsions:
REMARK  status: ('A' for Active; 'I' for Inactive)
REMARK    1  A    between atoms: C2_2  and  C3_3 
REMARK       I    between atoms: C3_3  and  N1_5 
REMARK    2  A    between atoms: N1_5  and  C4_6 
REMARK    3  A    between atoms: C8_10  and  O2_11 
REMARK    4  A    between atoms: O2_11  and  C9_12 
REMARK    5  A    between atoms: C12_17  and  N4_18 
REMARK    6  A    between atoms: N4_18  and  C13_19 
ROOT
HETATM    1  C9  UNL     1      24.871   2.488  51.155  1.00  0.00     0.218 A 
HETATM    2  N2  UNL     1      23.660   2.141  50.706  1.00  0.00    -0.145 NA
HETATM    3  N3  UNL     1      22.831   1.903  51.705  1.00  0.00    -0.281 N 
HETATM    4  C10 UNL     1      21.433   1.504  51.601  1.00  0.00     0.179 C 
HETATM    5  C11 UNL     1      23.538   2.104  52.813  1.00  0.00     0.146 A 
HETATM    6  C12 UNL     1      24.839   2.477  52.545  1.00  0.00     0.121 A 
ENDROOT
BRANCH   1   7
HETATM    7  O2  UNL     1      25.990   2.808  50.392  1.00  0.00    -0.289 OA
BRANCH   7   8
HETATM    8  C8  UNL     1      26.143   4.097  49.900  1.00  0.00     0.080 A 
HETATM    9  C7  UNL     1      27.218   4.308  49.029  1.00  0.00     0.037 A 
HETATM   10  C6  UNL     1      27.409   5.569  48.516  1.00  0.00     0.005 A 
HETATM   11  C5  UNL     1      26.598   6.635  48.815  1.00  0.00     0.029 A 
HETATM   12  C4  UNL     1      25.529   6.428  49.681  1.00  0.00     0.037 A 
HETATM   13  C18 UNL     1      25.326   5.167  50.202  1.00  0.00     0.066 A 
BRANCH  12  14
HETATM   14  N1  UNL     1      24.562   7.401  50.125  1.00  0.00    -0.324 N 
HETATM   15  C3  UNL     1      23.455   7.488  49.231  1.00  0.00     0.244 C 
HETATM   16  O1  UNL     1      23.425   6.746  48.191  1.00  0.00    -0.268 OA
HETATM   17  H4  UNL     1      24.644   7.986  50.998  1.00  0.00     0.169 HD
BRANCH  15  18
HETATM   18  C2  UNL     1      22.368   8.416  49.503  1.00  0.00     0.064 C 
HETATM   19  C1  UNL     1      21.218   8.074  50.016  1.00  0.00     0.017 C 
ENDBRANCH  15  18
ENDBRANCH  12  14
ENDBRANCH   7   8
ENDBRANCH   1   7
BRANCH   6  20
HETATM   20  N4  UNL     1      25.903   2.780  53.438  1.00  0.00    -0.182 N 
HETATM   21  H12 UNL     1      25.888   3.706  53.915  1.00  0.00     0.184 HD
BRANCH  20  22
HETATM   22  C13 UNL     1      26.938   1.830  53.653  1.00  0.00     0.725 A 
HETATM   23  N5  UNL     1      28.070   2.022  54.292  1.00  0.00    -0.073 NA
HETATM   24  C14 UNL     1      28.819   0.825  54.289  1.00  0.00     0.278 A 
HETATM   25  N6  UNL     1      30.041   0.776  53.533  1.00  0.00    -0.371 N 
HETATM   26  C17 UNL     1      27.990  -0.119  53.438  1.00  0.00     0.099 A 
HETATM   27  C15 UNL     1      30.149  -0.678  53.522  1.00  0.00     0.087 C 
HETATM   28  H14 UNL     1      30.834   1.224  53.026  1.00  0.00     0.161 HD
HETATM   29  C16 UNL     1      28.929  -1.267  53.466  1.00  0.00     0.048 C 
HETATM   30  N7  UNL     1      26.904   0.503  53.132  1.00  0.00    -0.064 NA
ENDBRANCH  20  22
ENDBRANCH   6  20
TORSDOF 6
ENDMDL
MODEL 6
REMARK VINA RESULT:      -8.0      3.073      6.385
REMARK  6 active torsions:
REMARK  status: ('A' for Active; 'I' for Inactive)
REMARK    1  A    between atoms: C2_2  and  C3_3 
REMARK       I    between atoms: C3_3  and  N1_5 
REMARK    2  A    between atoms: N1_5  and  C4_6 
REMARK    3  A    between atoms: C8_10  and  O2_11 
REMARK    4  A    between atoms: O2_11  and  C9_12 
REMARK    5  A    between atoms: C12_17  and  N4_18 
REMARK    6  A    between atoms: N4_18  and  C13_19 
ROOT
HETATM    1  C9  UNL     1      22.972   2.428  51.680  1.00  0.00     0.218 A 
HETATM    2  N2  UNL     1      22.311   2.254  50.530  1.00  0.00    -0.145 NA
HETATM    3  N3  UNL     1      23.064   2.572  49.494  1.00  0.00    -0.281 N 
HETATM    4  C10 UNL     1      22.684   2.509  48.088  1.00  0.00     0.179 C 
HETATM    5  C11 UNL     1      24.230   2.956  50.004  1.00  0.00     0.146 A 
HETATM    6  C12 UNL     1      24.248   2.892  51.381  1.00  0.00     0.121 A 
ENDROOT
BRANCH   1   7
HETATM    7  O2  UNL     1      22.495   2.196  52.966  1.00  0.00    -0.289 OA
BRANCH   7   8
HETATM    8  C8  UNL     1      22.070   0.924  53.324  1.00  0.00     0.080 A 
HETATM    9  C7  UNL     1      23.071  -0.034  53.526  1.00  0.00     0.037 A 
HETATM   10  C6  UNL     1      22.698  -1.308  53.883  1.00  0.00     0.005 A 
HETATM   11  C5  UNL     1      21.390  -1.691  54.052  1.00  0.00     0.029 A 
HETATM   12  C4  UNL     1      20.394  -0.741  53.852  1.00  0.00     0.037 A 
HETATM   13  C18 UNL     1      20.756   0.542  53.494  1.00  0.00     0.066 A 
BRANCH  12  14
HETATM   14  N1  UNL     1      18.969  -0.928  53.975  1.00  0.00    -0.324 N 
HETATM   15  C3  UNL     1      18.310  -0.779  52.721  1.00  0.00     0.244 C 
HETATM   16  O1  UNL     1      18.994  -0.512  51.676  1.00  0.00    -0.268 OA
HETATM   17  H4  UNL     1      18.461  -1.148  54.872  1.00  0.00     0.169 HD
BRANCH  15  18
HETATM   18  C2  UNL     1      16.865  -0.932  52.633  1.00  0.00     0.064 C 
HETATM   19  C1  UNL     1      16.152  -0.612  51.589  1.00  0.00     0.017 C 
ENDBRANCH  15  18
ENDBRANCH  12  14
ENDBRANCH   7   8
ENDBRANCH   1   7
BRANCH   6  20
HETATM   20  N4  UNL     1      25.289   3.211  52.296  1.00  0.00    -0.182 N 
HETATM   21  H12 UNL     1      25.454   4.216  52.513  1.00  0.00     0.184 HD
BRANCH  20  22
HETATM   22  C13 UNL     1      26.061   2.170  52.879  1.00  0.00     0.725 A 
HETATM   23  N5  UNL     1      26.327   1.999  54.155  1.00  0.00    -0.073 NA
HETATM   24  C14 UNL     1      27.119   0.842  54.317  1.00  0.00     0.278 A 
HETATM   25  N6  UNL     1      28.481   0.991  54.753  1.00  0.00    -0.371 N 
HETATM   26  C17 UNL     1      27.386   0.382  52.896  1.00  0.00     0.099 A 
HETATM   27  C15 UNL     1      28.910  -0.344  54.356  1.00  0.00     0.087 C 
HETATM   28  H14 UNL     1      29.261   1.535  55.181  1.00  0.00     0.161 HD
HETATM   29  C16 UNL     1      28.272  -0.759  53.234  1.00  0.00     0.048 C 
HETATM   30  N7  UNL     1      26.722   1.163  52.116  1.00  0.00    -0.064 NA
ENDBRANCH  20  22
ENDBRANCH   6  20
TORSDOF 6
ENDMDL
MODEL 7
REMARK VINA RESULT:      -8.0      2.545      6.913
REMARK  6 active torsions:
REMARK  status: ('A' for Active; 'I' for Inactive)
REMARK    1  A    between atoms: C2_2  and  C3_3 
REMARK       I    between atoms: C3_3  and  N1_5 
REMARK    2  A    between atoms: N1_5  and  C4_6 
REMARK    3  A    between atoms: C8_10  and  O2_11 
REMARK    4  A    between atoms: O2_11  and  C9_12 
REMARK    5  A    between atoms: C12_17  and  N4_18 
REMARK    6  A    between atoms: N4_18  and  C13_19 
ROOT
HETATM    1  C9  UNL     1      23.469   1.208  52.923  1.00  0.00     0.218 A 
HETATM    2  N2  UNL     1      22.340   1.315  52.214  1.00  0.00    -0.145 NA
HETATM    3  N3  UNL     1      21.595   0.233  52.337  1.00  0.00    -0.281 N 
HETATM    4  C10 UNL     1      20.300  -0.009  51.712  1.00  0.00     0.179 C 
HETATM    5  C11 UNL     1      22.272  -0.577  53.145  1.00  0.00     0.146 A 
HETATM    6  C12 UNL     1      23.468  -0.030  53.557  1.00  0.00     0.121 A 
ENDROOT
BRANCH   1   7
HETATM    7  O2  UNL     1      24.488   2.150  53.028  1.00  0.00    -0.289 OA
BRANCH   7   8
HETATM    8  C8  UNL     1      24.899   2.849  51.902  1.00  0.00     0.080 A 
HETATM    9  C7  UNL     1      26.092   2.424  51.306  1.00  0.00     0.037 A 
HETATM   10  C6  UNL     1      26.539   3.086  50.186  1.00  0.00     0.005 A 
HETATM   11  C5  UNL     1      25.873   4.146  49.621  1.00  0.00     0.029 A 
HETATM   12  C4  UNL     1      24.687   4.570  50.213  1.00  0.00     0.037 A 
HETATM   13  C18 UNL     1      24.228   3.913  51.336  1.00  0.00     0.066 A 
BRANCH  12  14
HETATM   14  N1  UNL     1      23.836   5.654  49.787  1.00  0.00    -0.324 N 
HETATM   15  C3  UNL     1      24.394   6.922  50.120  1.00  0.00     0.244 C 
HETATM   16  O1  UNL     1      25.519   6.977  50.724  1.00  0.00    -0.268 OA
HETATM   17  H4  UNL     1      22.914   5.543  49.290  1.00  0.00     0.169 HD
BRANCH  15  18
HETATM   18  C2  UNL     1      23.687   8.145  49.774  1.00  0.00     0.064 C 
HETATM   19  C1  UNL     1      22.388   8.252  49.705  1.00  0.00     0.017 C 
ENDBRANCH  15  18
ENDBRANCH  12  14
ENDBRANCH   7   8
ENDBRANCH   1   7
BRANCH   6  20
HETATM   20  N4  UNL     1      24.470  -0.565  54.412  1.00  0.00    -0.182 N 
HETATM   21  H12 UNL     1      24.168  -0.962  55.326  1.00  0.00     0.184 HD
BRANCH  20  22
HETATM   22  C13 UNL     1      25.831  -0.546  54.004  1.00  0.00     0.725 A 
HETATM   23  N5  UNL     1      26.410  -1.343  53.135  1.00  0.00    -0.073 NA
HETATM   24  C14 UNL     1      27.771  -0.989  53.007  1.00  0.00     0.278 A 
HETATM   25  N6  UNL     1      28.772  -1.903  53.486  1.00  0.00    -0.371 N 
HETATM   26  C17 UNL     1      27.958   0.110  54.037  1.00  0.00     0.099 A 
HETATM   27  C15 UNL     1      29.859  -0.932  53.509  1.00  0.00     0.087 C 
HETATM   28  H14 UNL     1      29.090  -2.844  53.803  1.00  0.00     0.161 HD
HETATM   29  C16 UNL     1      29.415   0.306  53.836  1.00  0.00     0.048 C 
HETATM   30  N7  UNL     1      26.800   0.346  54.551  1.00  0.00    -0.064 NA
ENDBRANCH  20  22
ENDBRANCH   6  20
TORSDOF 6
ENDMDL
MODEL 8
REMARK VINA RESULT:      -7.9      2.535      6.785
REMARK  6 active torsions:
REMARK  status: ('A' for Active; 'I' for Inactive)
REMARK    1  A    between atoms: C2_2  and  C3_3 
REMARK       I    between atoms: C3_3  and  N1_5 
REMARK    2  A    between atoms: N1_5  and  C4_6 
REMARK    3  A    between atoms: C8_10  and  O2_11 
REMARK    4  A    between atoms: O2_11  and  C9_12 
REMARK    5  A    between atoms: C12_17  and  N4_18 
REMARK    6  A    between atoms: N4_18  and  C13_19 
ROOT
HETATM    1  C9  UNL     1      23.699   2.564  50.950  1.00  0.00     0.218 A 
HETATM    2  N2  UNL     1      22.578   1.837  50.885  1.00  0.00    -0.145 NA
HETATM    3  N3  UNL     1      22.439   1.076  51.954  1.00  0.00    -0.281 N 
HETATM    4  C10 UNL     1      21.345   0.156  52.232  1.00  0.00     0.179 C 
HETATM    5  C11 UNL     1      23.501   1.330  52.713  1.00  0.00     0.146 A 
HETATM    6  C12 UNL     1      24.344   2.261  52.144  1.00  0.00     0.121 A 
ENDROOT
BRANCH   1   7
HETATM    7  O2  UNL     1      24.169   3.472  50.005  1.00  0.00    -0.289 OA
BRANCH   7   8
HETATM    8  C8  UNL     1      24.065   4.834  50.248  1.00  0.00     0.080 A 
HETATM    9  C7  UNL     1      22.770   5.364  50.283  1.00  0.00     0.037 A 
HETATM   10  C6  UNL     1      22.617   6.710  50.520  1.00  0.00     0.005 A 
HETATM   11  C5  UNL     1      23.673   7.563  50.726  1.00  0.00     0.029 A 
HETATM   12  C4  UNL     1      24.962   7.039  50.691  1.00  0.00     0.037 A 
HETATM   13  C18 UNL     1      25.127   5.690  50.453  1.00  0.00     0.066 A 
BRANCH  12  14
HETATM   14  N1  UNL     1      26.201   7.751  50.878  1.00  0.00    -0.324 N 
HETATM   15  C3  UNL     1      26.640   8.367  49.671  1.00  0.00     0.244 C 
HETATM   16  O1  UNL     1      25.944   8.239  48.607  1.00  0.00    -0.268 OA
HETATM   17  H4  UNL     1      26.731   7.820  51.786  1.00  0.00     0.169 HD
BRANCH  15  18
HETATM   18  C2  UNL     1      27.875   9.137  49.651  1.00  0.00     0.064 C 
HETATM   19  C1  UNL     1      28.933   8.816  48.958  1.00  0.00     0.017 C 
ENDBRANCH  15  18
ENDBRANCH  12  14
ENDBRANCH   7   8
ENDBRANCH   1   7
BRANCH   6  20
HETATM   20  N4  UNL     1      25.569   2.799  52.627  1.00  0.00    -0.182 N 
HETATM   21  H12 UNL     1      25.672   3.835  52.644  1.00  0.00     0.184 HD
BRANCH  20  22
HETATM   22  C13 UNL     1      26.600   1.925  53.066  1.00  0.00     0.725 A 
HETATM   23  N5  UNL     1      27.561   2.197  53.920  1.00  0.00    -0.073 NA
HETATM   24  C14 UNL     1      28.374   1.056  54.091  1.00  0.00     0.278 A 
HETATM   25  N6  UNL     1      29.726   1.091  53.603  1.00  0.00    -0.371 N 
HETATM   26  C17 UNL     1      27.804   0.053  53.105  1.00  0.00     0.099 A 
HETATM   27  C15 UNL     1      29.932  -0.352  53.639  1.00  0.00     0.087 C 
HETATM   28  H14 UNL     1      30.574   1.592  53.262  1.00  0.00     0.161 HD
HETATM   29  C16 UNL     1      28.794  -1.026  53.345  1.00  0.00     0.048 C 
HETATM   30  N7  UNL     1      26.764   0.597  52.572  1.00  0.00    -0.064 NA
ENDBRANCH  20  22
ENDBRANCH   6  20
TORSDOF 6
ENDMDL
MODEL 9
REMARK VINA RESULT:      -7.9      3.203      7.058
REMARK  6 active torsions:
REMARK  status: ('A' for Active; 'I' for Inactive)
REMARK    1  A    between atoms: C2_2  and  C3_3 
REMARK       I    between atoms: C3_3  and  N1_5 
REMARK    2  A    between atoms: N1_5  and  C4_6 
REMARK    3  A    between atoms: C8_10  and  O2_11 
REMARK    4  A    between atoms: O2_11  and  C9_12 
REMARK    5  A    between atoms: C12_17  and  N4_18 
REMARK    6  A    between atoms: N4_18  and  C13_19 
ROOT
HETATM    1  C9  UNL     1      22.539   1.225  51.721  1.00  0.00     0.218 A 
HETATM    2  N2  UNL     1      23.443   1.782  50.907  1.00  0.00    -0.145 NA
HETATM    3  N3  UNL     1      23.163   3.052  50.681  1.00  0.00    -0.281 N 
HETATM    4  C10 UNL     1      23.921   3.977  49.849  1.00  0.00     0.179 C 
HETATM    5  C11 UNL     1      22.053   3.301  51.371  1.00  0.00     0.146 A 
HETATM    6  C12 UNL     1      21.599   2.192  52.053  1.00  0.00     0.121 A 
ENDROOT
BRANCH   1   7
HETATM    7  O2  UNL     1      22.515  -0.092  52.172  1.00  0.00    -0.289 OA
BRANCH   7   8
HETATM    8  C8  UNL     1      23.295  -0.462  53.258  1.00  0.00     0.080 A 
HETATM    9  C7  UNL     1      22.610  -0.809  54.428  1.00  0.00     0.037 A 
HETATM   10  C6  UNL     1      23.342  -1.184  55.531  1.00  0.00     0.005 A 
HETATM   11  C5  UNL     1      24.714  -1.236  55.543  1.00  0.00     0.029 A 
HETATM   12  C4  UNL     1      25.397  -0.890  54.381  1.00  0.00     0.037 A 
HETATM   13  C18 UNL     1      24.674  -0.513  53.268  1.00  0.00     0.066 A 
BRANCH  12  14
HETATM   14  N1  UNL     1      26.824  -0.875  54.178  1.00  0.00    -0.324 N 
HETATM   15  C3  UNL     1      27.401   0.359  54.596  1.00  0.00     0.244 C 
HETATM   16  O1  UNL     1      26.651   1.275  55.078  1.00  0.00    -0.268 OA
HETATM   17  H4  UNL     1      27.389  -1.667  53.772  1.00  0.00     0.169 HD
BRANCH  15  18
HETATM   18  C2  UNL     1      28.835   0.574  54.473  1.00  0.00     0.064 C 
HETATM   19  C1  UNL     1      29.613  -0.087  53.662  1.00  0.00     0.017 C 
ENDBRANCH  15  18
ENDBRANCH  12  14
ENDBRANCH   7   8
ENDBRANCH   1   7
BRANCH   6  20
HETATM   20  N4  UNL     1      20.462   2.041  52.894  1.00  0.00    -0.182 N 
HETATM   21  H12 UNL     1      20.317   2.745  53.648  1.00  0.00     0.184 HD
BRANCH  20  22
HETATM   22  C13 UNL     1      19.569   0.955  52.687  1.00  0.00     0.725 A 
HETATM   23  N5  UNL     1      18.711   0.810  51.702  1.00  0.00    -0.073 NA
HETATM   24  C14 UNL     1      18.019  -0.411  51.859  1.00  0.00     0.278 A 
HETATM   25  N6  UNL     1      16.616  -0.375  52.170  1.00  0.00    -0.371 N 
HETATM   26  C17 UNL     1      18.530  -0.950  53.182  1.00  0.00     0.099 A 
HETATM   27  C15 UNL     1      16.529  -1.760  52.616  1.00  0.00     0.087 C 
HETATM   28  H14 UNL     1      15.694   0.108  52.233  1.00  0.00     0.161 HD
HETATM   29  C16 UNL     1      17.668  -2.156  53.235  1.00  0.00     0.048 C 
HETATM   30  N7  UNL     1      19.445  -0.141  53.591  1.00  0.00    -0.064 NA
ENDBRANCH  20  22
ENDBRANCH   6  20
TORSDOF 6
ENDMDL
