MODEL 1
REMARK VINA RESULT:      -7.2      0.000      0.000
REMARK  6 active torsions:
REMARK  status: ('A' for Active; 'I' for Inactive)
REMARK    1  A    between atoms: C8_10  and  N3_11 
REMARK    2  A    between atoms: C12_16  and  S1_17 
REMARK    3  A    between atoms: S1_17  and  C13_18 
REMARK    4  A    between atoms: C13_18  and  S2_19 
REMARK    5  A    between atoms: S2_19  and  C14_20 
REMARK    6  A    between atoms: C15_21  and  N4_22 
ROOT
HETATM    1  C1  UNL     1      22.002  -1.169  54.840  1.00  0.00     0.044 C 
HETATM    2  C2  UNL     1      23.057  -0.477  54.056  1.00  0.00    -0.077 A 
HETATM    3  C3  UNL     1      24.350  -0.754  54.108  1.00  0.00     0.035 A 
HETATM    4  C4  UNL     1      25.127   0.100  53.220  1.00  0.00     0.065 A 
HETATM    5  N1  UNL     1      26.418   0.253  52.886  1.00  0.00    -0.259 NA
HETATM    6  C5  UNL     1      26.837   1.168  51.996  1.00  0.00     0.142 A 
HETATM    7  C6  UNL     1      25.882   1.999  51.394  1.00  0.00     0.089 A 
HETATM    8  C7  UNL     1      26.420   2.950  50.457  1.00  0.00     0.103 C 
HETATM    9  N2  UNL     1      26.869   3.712  49.713  1.00  0.00    -0.191 NA
HETATM   10  C8  UNL     1      24.519   1.883  51.707  1.00  0.00     0.063 A 
HETATM   11  C16 UNL     1      24.194   0.917  52.628  1.00  0.00     0.003 A 
HETATM   12  C17 UNL     1      22.814   0.650  53.086  1.00  0.00     0.077 A 
ENDROOT
BRANCH  10  13
HETATM   13  N3  UNL     1      23.762   2.830  50.971  1.00  0.00    -0.357 N 
HETATM   14  C9  UNL     1      23.465   4.148  51.493  1.00  0.00     0.153 C 
HETATM   15  C10 UNL     1      22.902   4.832  50.272  1.00  0.00     0.015 C 
HETATM   16  C11 UNL     1      22.811   3.939  49.263  1.00  0.00     0.042 C 
HETATM   17 CL1  UNL     1      22.223   4.191  47.619  1.00  0.00    -0.086 Cl
HETATM   18  C12 UNL     1      23.283   2.542  49.642  1.00  0.00     0.192 C 
BRANCH  18  19
HETATM   19  S1  UNL     1      21.843   1.496  49.533  1.00  0.00    -0.128 SA
BRANCH  19  20
HETATM   20  C13 UNL     1      20.509   1.905  50.659  1.00  0.00     0.154 C 
BRANCH  20  21
HETATM   21  S2  UNL     1      19.263   0.647  50.871  1.00  0.00    -0.130 SA
BRANCH  21  22
HETATM   22  C14 UNL     1      19.210  -0.019  52.525  1.00  0.00     0.062 C 
HETATM   23  C15 UNL     1      18.138  -0.799  52.675  1.00  0.00     0.087 C 
BRANCH  23  24
HETATM   24  N4  UNL     1      17.759  -1.503  53.855  1.00  0.00    -0.407 N 
HETATM   25  H14 UNL     1      16.920  -1.276  54.460  1.00  0.00     0.155 HD
HETATM   26  H15 UNL     1      17.885  -2.256  54.570  1.00  0.00     0.155 HD
ENDBRANCH  23  24
ENDBRANCH  21  22
ENDBRANCH  20  21
ENDBRANCH  19  20
ENDBRANCH  18  19
ENDBRANCH  10  13
TORSDOF 6
ENDMDL
MODEL 2
REMARK VINA RESULT:      -7.0      2.433      5.709
REMARK  6 active torsions:
REMARK  status: ('A' for Active; 'I' for Inactive)
REMARK    1  A    between atoms: C8_10  and  N3_11 
REMARK    2  A    between atoms: C12_16  and  S1_17 
REMARK    3  A    between atoms: S1_17  and  C13_18 
REMARK    4  A    between atoms: C13_18  and  S2_19 
REMARK    5  A    between atoms: S2_19  and  C14_20 
REMARK    6  A    between atoms: C15_21  and  N4_22 
ROOT
HETATM    1  C1  UNL     1      26.347   1.432  52.301  1.00  0.00     0.044 C 
HETATM    2  C2  UNL     1      25.037   0.856  52.699  1.00  0.00    -0.077 A 
HETATM    3  C3  UNL     1      24.863  -0.067  53.632  1.00  0.00     0.035 A 
HETATM    4  C4  UNL     1      23.460  -0.424  53.789  1.00  0.00     0.065 A 
HETATM    5  N1  UNL     1      22.740  -1.264  54.550  1.00  0.00    -0.259 NA
HETATM    6  C5  UNL     1      21.403  -1.369  54.455  1.00  0.00     0.142 A 
HETATM    7  C6  UNL     1      20.736  -0.567  53.520  1.00  0.00     0.089 A 
HETATM    8  C7  UNL     1      19.308  -0.745  53.487  1.00  0.00     0.103 C 
HETATM    9  N2  UNL     1      18.163  -0.907  53.467  1.00  0.00    -0.191 NA
HETATM   10  C8  UNL     1      21.439   0.328  52.698  1.00  0.00     0.063 A 
HETATM   11  C16 UNL     1      22.801   0.360  52.873  1.00  0.00     0.003 A 
HETATM   12  C17 UNL     1      23.709   1.232  52.097  1.00  0.00     0.077 A 
ENDROOT
BRANCH  10  13
HETATM   13  N3  UNL     1      20.544   1.019  51.843  1.00  0.00    -0.357 N 
HETATM   14  C9  UNL     1      20.187   0.511  50.534  1.00  0.00     0.153 C 
HETATM   15  C10 UNL     1      19.049   1.427  50.159  1.00  0.00     0.015 C 
HETATM   16  C11 UNL     1      18.904   2.372  51.113  1.00  0.00     0.042 C 
HETATM   17 CL1  UNL     1      17.736   3.692  51.188  1.00  0.00    -0.086 Cl
HETATM   18  C12 UNL     1      19.908   2.246  52.251  1.00  0.00     0.192 C 
BRANCH  18  19
HETATM   19  S1  UNL     1      20.913   3.718  52.177  1.00  0.00    -0.128 SA
BRANCH  19  20
HETATM   20  C13 UNL     1      21.185   4.380  50.533  1.00  0.00     0.154 C 
BRANCH  20  21
HETATM   21  S2  UNL     1      22.818   4.132  49.861  1.00  0.00    -0.130 SA
BRANCH  21  22
HETATM   22  C14 UNL     1      24.107   4.859  50.857  1.00  0.00     0.062 C 
HETATM   23  C15 UNL     1      23.786   6.110  51.188  1.00  0.00     0.087 C 
BRANCH  23  24
HETATM   24  N4  UNL     1      24.566   7.007  51.975  1.00  0.00    -0.407 N 
HETATM   25  H14 UNL     1      25.031   7.889  51.617  1.00  0.00     0.155 HD
HETATM   26  H15 UNL     1      25.001   7.319  52.873  1.00  0.00     0.155 HD
ENDBRANCH  23  24
ENDBRANCH  21  22
ENDBRANCH  20  21
ENDBRANCH  19  20
ENDBRANCH  18  19
ENDBRANCH  10  13
TORSDOF 6
ENDMDL
MODEL 3
REMARK VINA RESULT:      -6.8      2.449      5.527
REMARK  6 active torsions:
REMARK  status: ('A' for Active; 'I' for Inactive)
REMARK    1  A    between atoms: C8_10  and  N3_11 
REMARK    2  A    between atoms: C12_16  and  S1_17 
REMARK    3  A    between atoms: S1_17  and  C13_18 
REMARK    4  A    between atoms: C13_18  and  S2_19 
REMARK    5  A    between atoms: S2_19  and  C14_20 
REMARK    6  A    between atoms: C15_21  and  N4_22 
ROOT
HETATM    1  C1  UNL     1      26.772   4.069  49.333  1.00  0.00     0.044 C 
HETATM    2  C2  UNL     1      26.033   3.159  50.246  1.00  0.00    -0.077 A 
HETATM    3  C3  UNL     1      26.576   2.468  51.236  1.00  0.00     0.035 A 
HETATM    4  C4  UNL     1      25.588   1.668  51.947  1.00  0.00     0.065 A 
HETATM    5  N1  UNL     1      25.578   0.815  52.984  1.00  0.00    -0.259 NA
HETATM    6  C5  UNL     1      24.459   0.213  53.421  1.00  0.00     0.142 A 
HETATM    7  C6  UNL     1      23.253   0.487  52.761  1.00  0.00     0.089 A 
HETATM    8  C7  UNL     1      22.108  -0.203  53.294  1.00  0.00     0.103 C 
HETATM    9  N2  UNL     1      21.199  -0.771  53.730  1.00  0.00    -0.191 NA
HETATM   10  C8  UNL     1      23.206   1.369  51.671  1.00  0.00     0.063 A 
HETATM   11  C16 UNL     1      24.404   1.933  51.304  1.00  0.00     0.003 A 
HETATM   12  C17 UNL     1      24.554   2.881  50.178  1.00  0.00     0.077 A 
ENDROOT
BRANCH  10  13
HETATM   13  N3  UNL     1      21.880   1.478  51.181  1.00  0.00    -0.357 N 
HETATM   14  C9  UNL     1      21.433   0.752  50.010  1.00  0.00     0.153 C 
HETATM   15  C10 UNL     1      19.944   0.983  50.067  1.00  0.00     0.015 C 
HETATM   16  C11 UNL     1      19.661   1.824  51.085  1.00  0.00     0.042 C 
HETATM   17 CL1  UNL     1      18.091   2.434  51.607  1.00  0.00    -0.086 Cl
HETATM   18  C12 UNL     1      20.893   2.287  51.851  1.00  0.00     0.192 C 
BRANCH  18  19
HETATM   19  S1  UNL     1      21.001   4.046  51.580  1.00  0.00    -0.128 SA
BRANCH  19  20
HETATM   20  C13 UNL     1      21.283   4.547  49.882  1.00  0.00     0.154 C 
BRANCH  20  21
HETATM   21  S2  UNL     1      21.368   6.305  49.599  1.00  0.00    -0.130 SA
BRANCH  21  22
HETATM   22  C14 UNL     1      22.326   7.171  50.830  1.00  0.00     0.062 C 
HETATM   23  C15 UNL     1      23.509   6.580  50.995  1.00  0.00     0.087 C 
BRANCH  23  24
HETATM   24  N4  UNL     1      24.543   6.983  51.890  1.00  0.00    -0.407 N 
HETATM   25  H14 UNL     1      24.430   7.680  52.680  1.00  0.00     0.155 HD
HETATM   26  H15 UNL     1      25.523   6.955  52.253  1.00  0.00     0.155 HD
ENDBRANCH  23  24
ENDBRANCH  21  22
ENDBRANCH  20  21
ENDBRANCH  19  20
ENDBRANCH  18  19
ENDBRANCH  10  13
TORSDOF 6
ENDMDL
MODEL 4
REMARK VINA RESULT:      -6.7      1.923      2.097
REMARK  6 active torsions:
REMARK  status: ('A' for Active; 'I' for Inactive)
REMARK    1  A    between atoms: C8_10  and  N3_11 
REMARK    2  A    between atoms: C12_16  and  S1_17 
REMARK    3  A    between atoms: S1_17  and  C13_18 
REMARK    4  A    between atoms: C13_18  and  S2_19 
REMARK    5  A    between atoms: S2_19  and  C14_20 
REMARK    6  A    between atoms: C15_21  and  N4_22 
ROOT
HETATM    1  C1  UNL     1      21.614  -0.940  54.562  1.00  0.00     0.044 C 
HETATM    2  C2  UNL     1      22.739  -0.298  53.835  1.00  0.00    -0.077 A 
HETATM    3  C3  UNL     1      24.008  -0.666  53.916  1.00  0.00     0.035 A 
HETATM    4  C4  UNL     1      24.869   0.161  53.082  1.00  0.00     0.065 A 
HETATM    5  N1  UNL     1      26.178   0.235  52.793  1.00  0.00    -0.259 NA
HETATM    6  C5  UNL     1      26.687   1.147  51.948  1.00  0.00     0.142 A 
HETATM    7  C6  UNL     1      25.811   2.061  51.346  1.00  0.00     0.089 A 
HETATM    8  C7  UNL     1      26.443   3.001  50.459  1.00  0.00     0.103 C 
HETATM    9  N2  UNL     1      26.967   3.755  49.755  1.00  0.00    -0.191 NA
HETATM   10  C8  UNL     1      24.434   2.029  51.613  1.00  0.00     0.063 A 
HETATM   11  C16 UNL     1      24.014   1.058  52.490  1.00  0.00     0.003 A 
HETATM   12  C17 UNL     1      22.605   0.873  52.897  1.00  0.00     0.077 A 
ENDROOT
BRANCH  10  13
HETATM   13  N3  UNL     1      23.767   3.049  50.887  1.00  0.00    -0.357 N 
HETATM   14  C9  UNL     1      23.493   4.349  51.465  1.00  0.00     0.153 C 
HETATM   15  C10 UNL     1      23.040   5.124  50.253  1.00  0.00     0.015 C 
HETATM   16  C11 UNL     1      22.978   4.294  49.190  1.00  0.00     0.042 C 
HETATM   17 CL1  UNL     1      22.510   4.662  47.530  1.00  0.00    -0.086 Cl
HETATM   18  C12 UNL     1      23.365   2.858  49.517  1.00  0.00     0.192 C 
BRANCH  18  19
HETATM   19  S1  UNL     1      21.891   1.887  49.257  1.00  0.00    -0.128 SA
BRANCH  19  20
HETATM   20  C13 UNL     1      20.346   2.727  49.602  1.00  0.00     0.154 C 
BRANCH  20  21
HETATM   21  S2  UNL     1      19.847   2.755  51.313  1.00  0.00    -0.130 SA
BRANCH  21  22
HETATM   22  C14 UNL     1      18.304   3.608  51.583  1.00  0.00     0.062 C 
HETATM   23  C15 UNL     1      17.793   4.017  50.421  1.00  0.00     0.087 C 
BRANCH  23  24
HETATM   24  N4  UNL     1      16.574   4.733  50.235  1.00  0.00    -0.407 N 
HETATM   25  H14 UNL     1      16.057   4.832  49.315  1.00  0.00     0.155 HD
HETATM   26  H15 UNL     1      15.774   5.312  50.577  1.00  0.00     0.155 HD
ENDBRANCH  23  24
ENDBRANCH  21  22
ENDBRANCH  20  21
ENDBRANCH  19  20
ENDBRANCH  18  19
ENDBRANCH  10  13
TORSDOF 6
ENDMDL
MODEL 5
REMARK VINA RESULT:      -6.6      2.808      5.284
REMARK  6 active torsions:
REMARK  status: ('A' for Active; 'I' for Inactive)
REMARK    1  A    between atoms: C8_10  and  N3_11 
REMARK    2  A    between atoms: C12_16  and  S1_17 
REMARK    3  A    between atoms: S1_17  and  C13_18 
REMARK    4  A    between atoms: C13_18  and  S2_19 
REMARK    5  A    between atoms: S2_19  and  C14_20 
REMARK    6  A    between atoms: C15_21  and  N4_22 
ROOT
HETATM    1  C1  UNL     1      21.809  -0.943  54.476  1.00  0.00     0.044 C 
HETATM    2  C2  UNL     1      22.904  -0.246  53.753  1.00  0.00    -0.077 A 
HETATM    3  C3  UNL     1      24.197  -0.473  53.925  1.00  0.00     0.035 A 
HETATM    4  C4  UNL     1      25.017   0.371  53.068  1.00  0.00     0.065 A 
HETATM    5  N1  UNL     1      26.327   0.558  52.837  1.00  0.00    -0.259 NA
HETATM    6  C5  UNL     1      26.789   1.450  51.945  1.00  0.00     0.142 A 
HETATM    7  C6  UNL     1      25.862   2.219  51.229  1.00  0.00     0.089 A 
HETATM    8  C7  UNL     1      26.446   3.149  50.298  1.00  0.00     0.103 C 
HETATM    9  N2  UNL     1      26.931   3.896  49.561  1.00  0.00    -0.191 NA
HETATM   10  C8  UNL     1      24.482   2.066  51.431  1.00  0.00     0.063 A 
HETATM   11  C16 UNL     1      24.112   1.128  52.364  1.00  0.00     0.003 A 
HETATM   12  C17 UNL     1      22.708   0.829  52.716  1.00  0.00     0.077 A 
ENDROOT
BRANCH  10  13
HETATM   13  N3  UNL     1      23.759   2.953  50.592  1.00  0.00    -0.357 N 
HETATM   14  C9  UNL     1      23.675   2.755  49.160  1.00  0.00     0.153 C 
HETATM   15  C10 UNL     1      22.616   3.761  48.783  1.00  0.00     0.015 C 
HETATM   16  C11 UNL     1      22.272   4.477  49.875  1.00  0.00     0.042 C 
HETATM   17 CL1  UNL     1      21.091   5.780  50.012  1.00  0.00    -0.086 Cl
HETATM   18  C12 UNL     1      23.036   4.077  51.130  1.00  0.00     0.192 C 
BRANCH  18  19
HETATM   19  S1  UNL     1      24.012   5.501  51.579  1.00  0.00    -0.128 SA
BRANCH  19  20
HETATM   20  C13 UNL     1      23.958   6.866  50.419  1.00  0.00     0.154 C 
BRANCH  20  21
HETATM   21  S2  UNL     1      25.068   6.744  49.029  1.00  0.00    -0.130 SA
BRANCH  21  22
HETATM   22  C14 UNL     1      26.650   7.514  49.321  1.00  0.00     0.062 C 
HETATM   23  C15 UNL     1      26.542   8.449  50.265  1.00  0.00     0.087 C 
BRANCH  23  24
HETATM   24  N4  UNL     1      27.590   9.276  50.766  1.00  0.00    -0.407 N 
HETATM   25  H14 UNL     1      28.487   9.504  50.251  1.00  0.00     0.155 HD
HETATM   26  H15 UNL     1      28.026   9.886  51.494  1.00  0.00     0.155 HD
ENDBRANCH  23  24
ENDBRANCH  21  22
ENDBRANCH  20  21
ENDBRANCH  19  20
ENDBRANCH  18  19
ENDBRANCH  10  13
TORSDOF 6
ENDMDL
MODEL 6
REMARK VINA RESULT:      -6.6      2.320      5.580
REMARK  6 active torsions:
REMARK  status: ('A' for Active; 'I' for Inactive)
REMARK    1  A    between atoms: C8_10  and  N3_11 
REMARK    2  A    between atoms: C12_16  and  S1_17 
REMARK    3  A    between atoms: S1_17  and  C13_18 
REMARK    4  A    between atoms: C13_18  and  S2_19 
REMARK    5  A    between atoms: S2_19  and  C14_20 
REMARK    6  A    between atoms: C15_21  and  N4_22 
ROOT
HETATM    1  C1  UNL     1      23.186  -1.392  55.191  1.00  0.00     0.044 C 
HETATM    2  C2  UNL     1      22.047  -1.005  54.318  1.00  0.00    -0.077 A 
HETATM    3  C3  UNL     1      20.789  -1.371  54.501  1.00  0.00     0.035 A 
HETATM    4  C4  UNL     1      19.909  -0.828  53.474  1.00  0.00     0.065 A 
HETATM    5  N1  UNL     1      18.600  -0.874  53.179  1.00  0.00    -0.259 NA
HETATM    6  C5  UNL     1      18.070  -0.241  52.119  1.00  0.00     0.142 A 
HETATM    7  C6  UNL     1      18.924   0.497  51.287  1.00  0.00     0.089 A 
HETATM    8  C7  UNL     1      18.272   1.140  50.177  1.00  0.00     0.103 C 
HETATM    9  N2  UNL     1      17.734   1.643  49.286  1.00  0.00    -0.191 NA
HETATM   10  C8  UNL     1      20.301   0.577  51.549  1.00  0.00     0.063 A 
HETATM   11  C16 UNL     1      20.742  -0.105  52.656  1.00  0.00     0.003 A 
HETATM   12  C17 UNL     1      22.156  -0.142  53.088  1.00  0.00     0.077 A 
ENDROOT
BRANCH  10  13
HETATM   13  N3  UNL     1      20.942   1.377  50.569  1.00  0.00    -0.357 N 
HETATM   14  C9  UNL     1      21.485   0.810  49.351  1.00  0.00     0.153 C 
HETATM   15  C10 UNL     1      21.796   2.053  48.557  1.00  0.00     0.015 C 
HETATM   16  C11 UNL     1      21.550   3.142  49.317  1.00  0.00     0.042 C 
HETATM   17 CL1  UNL     1      21.738   4.845  48.898  1.00  0.00    -0.086 Cl
HETATM   18  C12 UNL     1      21.051   2.806  50.716  1.00  0.00     0.192 C 
BRANCH  18  19
HETATM   19  S1  UNL     1      22.312   3.390  51.834  1.00  0.00    -0.128 SA
BRANCH  19  20
HETATM   20  C13 UNL     1      23.922   2.625  51.643  1.00  0.00     0.154 C 
BRANCH  20  21
HETATM   21  S2  UNL     1      24.891   2.481  53.133  1.00  0.00    -0.130 SA
BRANCH  21  22
HETATM   22  C14 UNL     1      25.960   1.053  53.143  1.00  0.00     0.062 C 
HETATM   23  C15 UNL     1      26.199   0.663  54.395  1.00  0.00     0.087 C 
BRANCH  23  24
HETATM   24  N4  UNL     1      27.008  -0.438  54.802  1.00  0.00    -0.407 N 
HETATM   25  H14 UNL     1      27.618  -1.020  54.160  1.00  0.00     0.155 HD
HETATM   26  H15 UNL     1      27.391  -1.096  55.519  1.00  0.00     0.155 HD
ENDBRANCH  23  24
ENDBRANCH  21  22
ENDBRANCH  20  21
ENDBRANCH  19  20
ENDBRANCH  18  19
ENDBRANCH  10  13
TORSDOF 6
ENDMDL
MODEL 7
REMARK VINA RESULT:      -6.2      2.228      3.120
REMARK  6 active torsions:
REMARK  status: ('A' for Active; 'I' for Inactive)
REMARK    1  A    between atoms: C8_10  and  N3_11 
REMARK    2  A    between atoms: C12_16  and  S1_17 
REMARK    3  A    between atoms: S1_17  and  C13_18 
REMARK    4  A    between atoms: C13_18  and  S2_19 
REMARK    5  A    between atoms: S2_19  and  C14_20 
REMARK    6  A    between atoms: C15_21  and  N4_22 
ROOT
HETATM    1  C1  UNL     1      18.175  -1.407  53.452  1.00  0.00     0.044 C 
HETATM    2  C2  UNL     1      19.581  -0.932  53.368  1.00  0.00    -0.077 A 
HETATM    3  C3  UNL     1      20.610  -1.487  53.988  1.00  0.00     0.035 A 
HETATM    4  C4  UNL     1      21.857  -0.790  53.704  1.00  0.00     0.065 A 
HETATM    5  N1  UNL     1      23.149  -0.909  54.048  1.00  0.00    -0.259 NA
HETATM    6  C5  UNL     1      24.102  -0.074  53.602  1.00  0.00     0.142 A 
HETATM    7  C6  UNL     1      23.727   0.968  52.743  1.00  0.00     0.089 A 
HETATM    8  C7  UNL     1      24.812   1.813  52.317  1.00  0.00     0.103 C 
HETATM    9  N2  UNL     1      25.692   2.487  51.990  1.00  0.00    -0.191 NA
HETATM   10  C8  UNL     1      22.391   1.140  52.351  1.00  0.00     0.063 A 
HETATM   11  C16 UNL     1      21.494   0.233  52.862  1.00  0.00     0.003 A 
HETATM   12  C17 UNL     1      20.045   0.257  52.568  1.00  0.00     0.077 A 
ENDROOT
BRANCH  10  13
HETATM   13  N3  UNL     1      22.271   2.257  51.485  1.00  0.00    -0.357 N 
HETATM   14  C9  UNL     1      21.816   3.549  51.957  1.00  0.00     0.153 C 
HETATM   15  C10 UNL     1      22.117   4.423  50.766  1.00  0.00     0.015 C 
HETATM   16  C11 UNL     1      22.570   3.655  49.752  1.00  0.00     0.042 C 
HETATM   17 CL1  UNL     1      23.069   4.149  48.133  1.00  0.00    -0.086 Cl
HETATM   18  C12 UNL     1      22.637   2.173  50.094  1.00  0.00     0.192 C 
BRANCH  18  19
HETATM   19  S1  UNL     1      21.462   1.373  49.016  1.00  0.00    -0.128 SA
BRANCH  19  20
HETATM   20  C13 UNL     1      20.068   2.382  48.514  1.00  0.00     0.154 C 
BRANCH  20  21
HETATM   21  S2  UNL     1      18.607   2.241  49.527  1.00  0.00    -0.130 SA
BRANCH  21  22
HETATM   22  C14 UNL     1      18.102   3.791  50.254  1.00  0.00     0.062 C 
HETATM   23  C15 UNL     1      16.991   3.624  50.972  1.00  0.00     0.087 C 
BRANCH  23  24
HETATM   24  N4  UNL     1      16.291   4.631  51.698  1.00  0.00    -0.407 N 
HETATM   25  H14 UNL     1      15.238   4.746  51.723  1.00  0.00     0.155 HD
HETATM   26  H15 UNL     1      16.248   5.462  52.331  1.00  0.00     0.155 HD
ENDBRANCH  23  24
ENDBRANCH  21  22
ENDBRANCH  20  21
ENDBRANCH  19  20
ENDBRANCH  18  19
ENDBRANCH  10  13
TORSDOF 6
ENDMDL
MODEL 8
REMARK VINA RESULT:      -6.2      8.343     11.332
REMARK  6 active torsions:
REMARK  status: ('A' for Active; 'I' for Inactive)
REMARK    1  A    between atoms: C8_10  and  N3_11 
REMARK    2  A    between atoms: C12_16  and  S1_17 
REMARK    3  A    between atoms: S1_17  and  C13_18 
REMARK    4  A    between atoms: C13_18  and  S2_19 
REMARK    5  A    between atoms: S2_19  and  C14_20 
REMARK    6  A    between atoms: C15_21  and  N4_22 
ROOT
HETATM    1  C1  UNL     1      26.529   4.885  48.853  1.00  0.00     0.044 C 
HETATM    2  C2  UNL     1      27.225   6.197  48.795  1.00  0.00    -0.077 A 
HETATM    3  C3  UNL     1      26.704   7.353  49.175  1.00  0.00     0.035 A 
HETATM    4  C4  UNL     1      27.638   8.456  48.994  1.00  0.00     0.065 A 
HETATM    5  N1  UNL     1      27.641   9.783  49.201  1.00  0.00    -0.259 NA
HETATM    6  C5  UNL     1      28.701  10.561  48.921  1.00  0.00     0.142 A 
HETATM    7  C6  UNL     1      29.849   9.958  48.389  1.00  0.00     0.089 A 
HETATM    8  C7  UNL     1      30.932  10.867  48.119  1.00  0.00     0.103 C 
HETATM    9  N2  UNL     1      31.790  11.611  47.901  1.00  0.00    -0.191 NA
HETATM   10  C8  UNL     1      29.899   8.576  48.152  1.00  0.00     0.063 A 
HETATM   11  C16 UNL     1      28.765   7.870  48.472  1.00  0.00     0.003 A 
HETATM   12  C17 UNL     1      28.628   6.410  48.288  1.00  0.00     0.077 A 
ENDROOT
BRANCH  10  13
HETATM   13  N3  UNL     1      31.161   8.214  47.614  1.00  0.00    -0.357 N 
HETATM   14  C9  UNL     1      31.415   8.213  46.188  1.00  0.00     0.153 C 
HETATM   15  C10 UNL     1      32.912   8.033  46.153  1.00  0.00     0.015 C 
HETATM   16  C11 UNL     1      33.369   7.848  47.411  1.00  0.00     0.042 C 
HETATM   17 CL1  UNL     1      35.027   7.587  47.954  1.00  0.00    -0.086 Cl
HETATM   18  C12 UNL     1      32.271   7.867  48.465  1.00  0.00     0.192 C 
BRANCH  18  19
HETATM   19  S1  UNL     1      32.243   6.229  49.169  1.00  0.00    -0.128 SA
BRANCH  19  20
HETATM   20  C13 UNL     1      31.993   4.894  47.998  1.00  0.00     0.154 C 
BRANCH  20  21
HETATM   21  S2  UNL     1      33.447   3.949  47.582  1.00  0.00    -0.130 SA
BRANCH  21  22
HETATM   22  C14 UNL     1      33.224   2.190  47.781  1.00  0.00     0.062 C 
HETATM   23  C15 UNL     1      32.405   1.719  46.840  1.00  0.00     0.087 C 
BRANCH  23  24
HETATM   24  N4  UNL     1      31.990   0.365  46.676  1.00  0.00    -0.407 N 
HETATM   25  H14 UNL     1      30.992   0.018  46.749  1.00  0.00     0.155 HD
HETATM   26  H15 UNL     1      32.172  -0.648  46.488  1.00  0.00     0.155 HD
ENDBRANCH  23  24
ENDBRANCH  21  22
ENDBRANCH  20  21
ENDBRANCH  19  20
ENDBRANCH  18  19
ENDBRANCH  10  13
TORSDOF 6
ENDMDL
MODEL 9
REMARK VINA RESULT:      -6.2      2.727      4.206
REMARK  6 active torsions:
REMARK  status: ('A' for Active; 'I' for Inactive)
REMARK    1  A    between atoms: C8_10  and  N3_11 
REMARK    2  A    between atoms: C12_16  and  S1_17 
REMARK    3  A    between atoms: S1_17  and  C13_18 
REMARK    4  A    between atoms: C13_18  and  S2_19 
REMARK    5  A    between atoms: S2_19  and  C14_20 
REMARK    6  A    between atoms: C15_21  and  N4_22 
ROOT
HETATM    1  C1  UNL     1      27.518  -0.710  52.934  1.00  0.00     0.044 C 
HETATM    2  C2  UNL     1      26.105  -0.250  52.978  1.00  0.00    -0.077 A 
HETATM    3  C3  UNL     1      25.105  -0.916  53.532  1.00  0.00     0.035 A 
HETATM    4  C4  UNL     1      23.842  -0.201  53.412  1.00  0.00     0.065 A 
HETATM    5  N1  UNL     1      22.564  -0.397  53.774  1.00  0.00    -0.259 NA
HETATM    6  C5  UNL     1      21.587   0.487  53.507  1.00  0.00     0.142 A 
HETATM    7  C6  UNL     1      21.920   1.661  52.819  1.00  0.00     0.089 A 
HETATM    8  C7  UNL     1      20.812   2.548  52.575  1.00  0.00     0.103 C 
HETATM    9  N2  UNL     1      19.911   3.245  52.381  1.00  0.00    -0.191 NA
HETATM   10  C8  UNL     1      23.240   1.917  52.416  1.00  0.00     0.063 A 
HETATM   11  C16 UNL     1      24.163   0.952  52.737  1.00  0.00     0.003 A 
HETATM   12  C17 UNL     1      25.598   1.042  52.392  1.00  0.00     0.077 A 
ENDROOT
BRANCH  10  13
HETATM   13  N3  UNL     1      23.316   3.163  51.742  1.00  0.00    -0.357 N 
HETATM   14  C9  UNL     1      23.185   4.423  52.444  1.00  0.00     0.153 C 
HETATM   15  C10 UNL     1      23.599   5.403  51.374  1.00  0.00     0.015 C 
HETATM   16  C11 UNL     1      23.812   4.739  50.218  1.00  0.00     0.042 C 
HETATM   17 CL1  UNL     1      24.309   5.382  48.653  1.00  0.00    -0.086 Cl
HETATM   18  C12 UNL     1      23.572   3.239  50.326  1.00  0.00     0.192 C 
BRANCH  18  19
HETATM   19  S1  UNL     1      22.188   2.890  49.256  1.00  0.00    -0.128 SA
BRANCH  19  20
HETATM   20  C13 UNL     1      21.009   4.227  49.064  1.00  0.00     0.154 C 
BRANCH  20  21
HETATM   21  S2  UNL     1      20.619   4.678  47.383  1.00  0.00    -0.130 SA
BRANCH  21  22
HETATM   22  C14 UNL     1      19.523   3.522  46.581  1.00  0.00     0.062 C 
HETATM   23  C15 UNL     1      18.451   3.297  47.342  1.00  0.00     0.087 C 
BRANCH  23  24
HETATM   24  N4  UNL     1      17.359   2.434  47.036  1.00  0.00    -0.407 N 
HETATM   25  H14 UNL     1      16.495   2.711  46.489  1.00  0.00     0.155 HD
HETATM   26  H15 UNL     1      16.864   1.513  47.065  1.00  0.00     0.155 HD
ENDBRANCH  23  24
ENDBRANCH  21  22
ENDBRANCH  20  21
ENDBRANCH  19  20
ENDBRANCH  18  19
ENDBRANCH  10  13
TORSDOF 6
ENDMDL
